MODEL 1
REMARK VINA RESULT:      -8.2      0.000      0.000
REMARK  Name = 
REMARK  13 active torsions:
REMARK  status: ('A' for Active; 'I' for Inactive)
REMARK    1  A    between atoms: C_1  and  O_2
REMARK    2  A    between atoms: O_2  and  C_3
REMARK    3  A    between atoms: C_6  and  C_7
REMARK    4  A    between atoms: C_7  and  O_8
REMARK    5  A    between atoms: C_7  and  P_28
REMARK    6  A    between atoms: O_8  and  C_9
REMARK    7  A    between atoms: N_11  and  C_12
REMARK    8  A    between atoms: C_12  and  C_13
REMARK    9  A    between atoms: C_15  and  N_16
REMARK   10  A    between atoms: C_24  and  O_25
REMARK   11  A    between atoms: C_26  and  O_27
REMARK   12  A    between atoms: P_28  and  O_30
REMARK   13  A    between atoms: P_28  and  O_31
REMARK                            x       y       z     vdW  Elec       q    Type
REMARK                         _______ _______ _______ _____ _____    ______ ____
ROOT
ATOM      1  C   UNL     1       1.679   4.973  20.200  0.00  0.00    +0.000 C 
ATOM      2  O   UNL     1       0.909   4.178  20.710  0.00  0.00    +0.000 OA
ATOM      3  N   UNL     1       1.802   6.262  20.646  0.00  0.00    +0.000 N 
ATOM      4  H   UNL     1       1.254   6.385  21.490  0.00  0.00    +0.000 HD
ENDROOT
BRANCH   1   5
ATOM      5  O   UNL     1       2.545   4.714  19.199  0.00  0.00    +0.000 OA
BRANCH   5   6
ATOM      6  C   UNL     1       3.880   4.268  19.575  0.00  0.00    +0.000 C 
BRANCH   6  10
ATOM      7  C   UNL     1       6.857   6.815  17.708  0.00  0.00    +0.000 A 
ATOM      8  C   UNL     1       5.515   6.895  17.339  0.00  0.00    +0.000 A 
ATOM      9  C   UNL     1       4.551   6.116  17.985  0.00  0.00    +0.000 A 
ATOM     10  C   UNL     1       4.917   5.219  19.000  0.00  0.00    +0.000 A 
ATOM     11  C   UNL     1       6.264   5.166  19.386  0.00  0.00    +0.000 A 
ATOM     12  C   UNL     1       7.226   5.956  18.742  0.00  0.00    +0.000 A 
BRANCH   7  14
ATOM     13  C   UNL     1       8.131   8.804  17.532  0.00  0.00    +0.000 C 
ATOM     14  O   UNL     1       7.709   7.575  16.956  0.00  0.00    +0.000 OA
ENDBRANCH   7  14
ENDBRANCH   6  10
BRANCH   6  15
ATOM     15  P   UNL     1       3.862   2.533  19.012  0.00  0.00    +0.000 P 
ATOM     16  O   UNL     1       2.534   1.849  19.025  0.00  0.00    +0.000 OA
BRANCH  15  17
ATOM     17  O   UNL     1       4.506   2.592  17.532  0.00  0.00    +0.000 OA
ATOM     18  H   UNL     1       5.419   2.941  17.537  0.00  0.00    +0.000 HD
ENDBRANCH  15  17
BRANCH  15  19
ATOM     19  O   UNL     1       5.020   1.737  19.782  0.00  0.00    +0.000 OA
ATOM     20  H   UNL     1       5.888   2.162  19.636  0.00  0.00    +0.000 HD
ENDBRANCH  15  19
ENDBRANCH   6  15
ENDBRANCH   5   6
ENDBRANCH   1   5
BRANCH   3  21
ATOM     21  C   UNL     1       1.727   7.378  19.715  0.00  0.00    +0.000 C 
BRANCH  21  22
ATOM     22  C   UNL     1       1.833   8.767  20.357  0.00  0.00    +0.000 C 
ATOM     23  O   UNL     1       1.460   9.801  19.420  0.00  0.00    +0.000 OA
ATOM     24  C   UNL     1       0.249  10.454  19.882  0.00  0.00    +0.000 C 
ATOM     25  C   UNL     1      -0.308   9.576  21.023  0.00  0.00    +0.000 C 
ATOM     26  C   UNL     1       0.955   8.948  21.584  0.00  0.00    +0.000 C 
BRANCH  24  27
ATOM     27  N   UNL     1      -0.683  10.666  18.767  0.00  0.00    +0.000 N 
ATOM     28  C   UNL     1      -1.234   9.609  18.064  0.00  0.00    +0.000 A 
ATOM     29  C   UNL     1      -2.042   9.795  17.018  0.00  0.00    +0.000 A 
ATOM     30  C   UNL     1      -2.373  11.166  16.603  0.00  0.00    +0.000 A 
ATOM     31  O   UNL     1      -3.073  11.379  15.626  0.00  0.00    +0.000 OA
ATOM     32  N   UNL     1      -1.822  12.155  17.363  0.00  0.00    +0.000 N 
ATOM     33  C   UNL     1      -0.905  11.983  18.367  0.00  0.00    +0.000 A 
ATOM     34  O   UNL     1      -0.321  12.958  18.828  0.00  0.00    +0.000 OA
ATOM     35  H   UNL     1      -1.986  13.105  17.069  0.00  0.00    +0.000 HD
ENDBRANCH  24  27
BRANCH  25  36
ATOM     36  O   UNL     1      -1.003  10.266  22.055  0.00  0.00    +0.000 OA
ATOM     37  H   UNL     1      -1.932  10.355  21.767  0.00  0.00    +0.000 HD
ENDBRANCH  25  36
BRANCH  26  38
ATOM     38  O   UNL     1       1.557   9.867  22.517  0.00  0.00    +0.000 OA
ATOM     39  H   UNL     1       1.471   9.515  23.422  0.00  0.00    +0.000 HD
ENDBRANCH  26  38
ENDBRANCH  21  22
ENDBRANCH   3  21
TORSDOF 12
ENDMDL
MODEL 2
REMARK VINA RESULT:      -8.1      0.949      1.321
REMARK  Name = 
REMARK  13 active torsions:
REMARK  status: ('A' for Active; 'I' for Inactive)
REMARK    1  A    between atoms: C_1  and  O_2
REMARK    2  A    between atoms: O_2  and  C_3
REMARK    3  A    between atoms: C_6  and  C_7
REMARK    4  A    between atoms: C_7  and  O_8
REMARK    5  A    between atoms: C_7  and  P_28
REMARK    6  A    between atoms: O_8  and  C_9
REMARK    7  A    between atoms: N_11  and  C_12
REMARK    8  A    between atoms: C_12  and  C_13
REMARK    9  A    between atoms: C_15  and  N_16
REMARK   10  A    between atoms: C_24  and  O_25
REMARK   11  A    between atoms: C_26  and  O_27
REMARK   12  A    between atoms: P_28  and  O_30
REMARK   13  A    between atoms: P_28  and  O_31
REMARK                            x       y       z     vdW  Elec       q    Type
REMARK                         _______ _______ _______ _____ _____    ______ ____
ROOT
ATOM      1  C   UNL     1       1.800   5.017  20.337  0.00  0.00    +0.000 C 
ATOM      2  O   UNL     1       1.243   4.142  20.976  0.00  0.00    +0.000 OA
ATOM      3  N   UNL     1       1.974   6.284  20.827  0.00  0.00    +0.000 N 
ATOM      4  H   UNL     1       1.675   6.320  21.795  0.00  0.00    +0.000 HD
ENDROOT
BRANCH   1   5
ATOM      5  O   UNL     1       2.368   4.878  19.122  0.00  0.00    +0.000 OA
BRANCH   5   6
ATOM      6  C   UNL     1       3.616   4.130  19.055  0.00  0.00    +0.000 C 
BRANCH   6  10
ATOM      7  C   UNL     1       6.613   6.714  17.273  0.00  0.00    +0.000 A 
ATOM      8  C   UNL     1       6.924   5.906  18.365  0.00  0.00    +0.000 A 
ATOM      9  C   UNL     1       5.973   5.031  18.897  0.00  0.00    +0.000 A 
ATOM     10  C   UNL     1       4.678   4.967  18.361  0.00  0.00    +0.000 A 
ATOM     11  C   UNL     1       4.382   5.761  17.244  0.00  0.00    +0.000 A 
ATOM     12  C   UNL     1       5.342   6.630  16.706  0.00  0.00    +0.000 A 
BRANCH   7  14
ATOM     13  C   UNL     1       7.942   8.598  17.816  0.00  0.00    +0.000 C 
ATOM     14  O   UNL     1       7.604   7.574  16.889  0.00  0.00    +0.000 OA
ENDBRANCH   7  14
ENDBRANCH   6  10
BRANCH   6  15
ATOM     15  P   UNL     1       3.071   2.572  18.276  0.00  0.00    +0.000 P 
ATOM     16  O   UNL     1       2.290   1.640  19.143  0.00  0.00    +0.000 OA
BRANCH  15  17
ATOM     17  O   UNL     1       2.235   3.049  16.981  0.00  0.00    +0.000 OA
ATOM     18  H   UNL     1       1.388   3.476  17.221  0.00  0.00    +0.000 HD
ENDBRANCH  15  17
BRANCH  15  19
ATOM     19  O   UNL     1       4.332   1.897  17.553  0.00  0.00    +0.000 OA
ATOM     20  H   UNL     1       5.136   1.991  18.101  0.00  0.00    +0.000 HD
ENDBRANCH  15  19
ENDBRANCH   6  15
ENDBRANCH   5   6
ENDBRANCH   1   5
BRANCH   3  21
ATOM     21  C   UNL     1       1.586   7.444  20.038  0.00  0.00    +0.000 C 
BRANCH  21  22
ATOM     22  C   UNL     1       1.712   8.792  20.759  0.00  0.00    +0.000 C 
ATOM     23  O   UNL     1       1.235   9.871  19.927  0.00  0.00    +0.000 OA
ATOM     24  C   UNL     1       0.051  10.456  20.529  0.00  0.00    +0.000 C 
ATOM     25  C   UNL     1      -0.385   9.490  21.652  0.00  0.00    +0.000 C 
ATOM     26  C   UNL     1       0.937   8.866  22.064  0.00  0.00    +0.000 C 
BRANCH  24  27
ATOM     27  N   UNL     1      -0.977  10.710  19.512  0.00  0.00    +0.000 N 
ATOM     28  C   UNL     1      -1.006  10.018  18.314  0.00  0.00    +0.000 A 
ATOM     29  C   UNL     1      -1.907  10.278  17.364  0.00  0.00    +0.000 A 
ATOM     30  C   UNL     1      -2.913  11.325  17.598  0.00  0.00    +0.000 A 
ATOM     31  O   UNL     1      -3.726  11.623  16.739  0.00  0.00    +0.000 OA
ATOM     32  N   UNL     1      -2.844  11.939  18.813  0.00  0.00    +0.000 N 
ATOM     33  C   UNL     1      -1.861  11.761  19.751  0.00  0.00    +0.000 A 
ATOM     34  O   UNL     1      -1.788  12.527  20.706  0.00  0.00    +0.000 OA
ATOM     35  H   UNL     1      -3.486  12.699  18.980  0.00  0.00    +0.000 HD
ENDBRANCH  24  27
BRANCH  25  36
ATOM     36  O   UNL     1      -1.007  10.091  22.781  0.00  0.00    +0.000 OA
ATOM     37  H   UNL     1      -0.694   9.612  23.573  0.00  0.00    +0.000 HD
ENDBRANCH  25  36
BRANCH  26  38
ATOM     38  O   UNL     1       1.591   9.742  23.002  0.00  0.00    +0.000 OA
ATOM     39  H   UNL     1       2.529   9.842  22.755  0.00  0.00    +0.000 HD
ENDBRANCH  26  38
ENDBRANCH  21  22
ENDBRANCH   3  21
TORSDOF 12
ENDMDL
MODEL 3
REMARK VINA RESULT:      -8.0      1.325      1.686
REMARK  Name = 
REMARK  13 active torsions:
REMARK  status: ('A' for Active; 'I' for Inactive)
REMARK    1  A    between atoms: C_1  and  O_2
REMARK    2  A    between atoms: O_2  and  C_3
REMARK    3  A    between atoms: C_6  and  C_7
REMARK    4  A    between atoms: C_7  and  O_8
REMARK    5  A    between atoms: C_7  and  P_28
REMARK    6  A    between atoms: O_8  and  C_9
REMARK    7  A    between atoms: N_11  and  C_12
REMARK    8  A    between atoms: C_12  and  C_13
REMARK    9  A    between atoms: C_15  and  N_16
REMARK   10  A    between atoms: C_24  and  O_25
REMARK   11  A    between atoms: C_26  and  O_27
REMARK   12  A    between atoms: P_28  and  O_30
REMARK   13  A    between atoms: P_28  and  O_31
REMARK                            x       y       z     vdW  Elec       q    Type
REMARK                         _______ _______ _______ _____ _____    ______ ____
ROOT
ATOM      1  C   UNL     1       1.568   4.889  20.207  0.00  0.00    +0.000 C 
ATOM      2  O   UNL     1       0.736   4.110  20.638  0.00  0.00    +0.000 OA
ATOM      3  N   UNL     1       1.718   6.153  20.712  0.00  0.00    +0.000 N 
ATOM      4  H   UNL     1       1.128   6.268  21.528  0.00  0.00    +0.000 HD
ENDROOT
BRANCH   1   5
ATOM      5  O   UNL     1       2.479   4.631  19.247  0.00  0.00    +0.000 OA
BRANCH   5   6
ATOM      6  C   UNL     1       3.845   4.375  19.681  0.00  0.00    +0.000 C 
BRANCH   6  10
ATOM      7  C   UNL     1       6.642   5.404  16.526  0.00  0.00    +0.000 A 
ATOM      8  C   UNL     1       5.292   5.200  16.246  0.00  0.00    +0.000 A 
ATOM      9  C   UNL     1       4.385   4.928  17.273  0.00  0.00    +0.000 A 
ATOM     10  C   UNL     1       4.818   4.829  18.604  0.00  0.00    +0.000 A 
ATOM     11  C   UNL     1       6.171   5.066  18.882  0.00  0.00    +0.000 A 
ATOM     12  C   UNL     1       7.077   5.348  17.849  0.00  0.00    +0.000 A 
BRANCH   7  14
ATOM     13  C   UNL     1       7.044   4.917  14.243  0.00  0.00    +0.000 C 
ATOM     14  O   UNL     1       7.437   5.593  15.429  0.00  0.00    +0.000 OA
ENDBRANCH   7  14
ENDBRANCH   6  10
BRANCH   6  15
ATOM     15  P   UNL     1       3.769   2.604  20.113  0.00  0.00    +0.000 P 
ATOM     16  O   UNL     1       5.063   1.858  20.065  0.00  0.00    +0.000 OA
BRANCH  15  17
ATOM     17  O   UNL     1       3.104   2.584  21.583  0.00  0.00    +0.000 OA
ATOM     18  H   UNL     1       3.580   1.992  22.199  0.00  0.00    +0.000 HD
ENDBRANCH  15  17
BRANCH  15  19
ATOM     19  O   UNL     1       2.587   1.926  19.269  0.00  0.00    +0.000 OA
ATOM     20  H   UNL     1       2.754   0.970  19.147  0.00  0.00    +0.000 HD
ENDBRANCH  15  19
ENDBRANCH   6  15
ENDBRANCH   5   6
ENDBRANCH   1   5
BRANCH   3  21
ATOM     21  C   UNL     1       1.745   7.307  19.826  0.00  0.00    +0.000 C 
BRANCH  21  22
ATOM     22  C   UNL     1       1.863   8.665  20.531  0.00  0.00    +0.000 C 
ATOM     23  O   UNL     1       1.356   9.728  19.695  0.00  0.00    +0.000 OA
ATOM     24  C   UNL     1       0.175  10.302  20.312  0.00  0.00    +0.000 C 
ATOM     25  C   UNL     1      -0.228   9.342  21.452  0.00  0.00    +0.000 C 
ATOM     26  C   UNL     1       1.109   8.742  21.848  0.00  0.00    +0.000 C 
BRANCH  24  27
ATOM     27  N   UNL     1      -0.874  10.531  19.310  0.00  0.00    +0.000 N 
ATOM     28  C   UNL     1      -0.861   9.894  18.081  0.00  0.00    +0.000 A 
ATOM     29  C   UNL     1      -1.783  10.134  17.146  0.00  0.00    +0.000 A 
ATOM     30  C   UNL     1      -2.859  11.096  17.431  0.00  0.00    +0.000 A 
ATOM     31  O   UNL     1      -3.696  11.376  16.588  0.00  0.00    +0.000 OA
ATOM     32  N   UNL     1      -2.827  11.656  18.673  0.00  0.00    +0.000 N 
ATOM     33  C   UNL     1      -1.828  11.505  19.600  0.00  0.00    +0.000 A 
ATOM     34  O   UNL     1      -1.804  12.229  20.589  0.00  0.00    +0.000 OA
ATOM     35  H   UNL     1      -3.519  12.361  18.877  0.00  0.00    +0.000 HD
ENDBRANCH  24  27
BRANCH  25  36
ATOM     36  O   UNL     1      -0.840   9.947  22.585  0.00  0.00    +0.000 OA
ATOM     37  H   UNL     1      -1.777  10.103  22.358  0.00  0.00    +0.000 HD
ENDBRANCH  25  36
BRANCH  26  38
ATOM     38  O   UNL     1       1.767   9.638  22.766  0.00  0.00    +0.000 OA
ATOM     39  H   UNL     1       2.256   9.120  23.432  0.00  0.00    +0.000 HD
ENDBRANCH  26  38
ENDBRANCH  21  22
ENDBRANCH   3  21
TORSDOF 12
ENDMDL
MODEL 4
REMARK VINA RESULT:      -7.9      2.612      8.710
REMARK  Name = 
REMARK  13 active torsions:
REMARK  status: ('A' for Active; 'I' for Inactive)
REMARK    1  A    between atoms: C_1  and  O_2
REMARK    2  A    between atoms: O_2  and  C_3
REMARK    3  A    between atoms: C_6  and  C_7
REMARK    4  A    between atoms: C_7  and  O_8
REMARK    5  A    between atoms: C_7  and  P_28
REMARK    6  A    between atoms: O_8  and  C_9
REMARK    7  A    between atoms: N_11  and  C_12
REMARK    8  A    between atoms: C_12  and  C_13
REMARK    9  A    between atoms: C_15  and  N_16
REMARK   10  A    between atoms: C_24  and  O_25
REMARK   11  A    between atoms: C_26  and  O_27
REMARK   12  A    between atoms: P_28  and  O_30
REMARK   13  A    between atoms: P_28  and  O_31
REMARK                            x       y       z     vdW  Elec       q    Type
REMARK                         _______ _______ _______ _____ _____    ______ ____
ROOT
ATOM      1  C   UNL     1       0.803   9.512  21.131  0.00  0.00    +0.000 C 
ATOM      2  O   UNL     1       0.842  10.307  22.055  0.00  0.00    +0.000 OA
ATOM      3  N   UNL     1       1.050   8.176  21.304  0.00  0.00    +0.000 N 
ATOM      4  H   UNL     1       1.151   7.973  22.292  0.00  0.00    +0.000 HD
ENDROOT
BRANCH   1   5
ATOM      5  O   UNL     1       0.465   9.789  19.855  0.00  0.00    +0.000 OA
BRANCH   5   6
ATOM      6  C   UNL     1      -0.184  11.068  19.604  0.00  0.00    +0.000 C 
BRANCH   6  10
ATOM      7  C   UNL     1      -3.362  10.661  16.676  0.00  0.00    +0.000 A 
ATOM      8  C   UNL     1      -2.222   9.861  16.610  0.00  0.00    +0.000 A 
ATOM      9  C   UNL     1      -1.229   9.954  17.589  0.00  0.00    +0.000 A 
ATOM     10  C   UNL     1      -1.346  10.872  18.644  0.00  0.00    +0.000 A 
ATOM     11  C   UNL     1      -2.509  11.651  18.720  0.00  0.00    +0.000 A 
ATOM     12  C   UNL     1      -3.508  11.548  17.741  0.00  0.00    +0.000 A 
BRANCH   7  14
ATOM     13  C   UNL     1      -3.640  10.199  14.369  0.00  0.00    +0.000 C 
ATOM     14  O   UNL     1      -4.224  10.525  15.623  0.00  0.00    +0.000 OA
ENDBRANCH   7  14
ENDBRANCH   6  10
BRANCH   6  15
ATOM     15  P   UNL     1       1.226  12.103  19.084  0.00  0.00    +0.000 P 
ATOM     16  O   UNL     1       2.052  12.691  20.180  0.00  0.00    +0.000 OA
BRANCH  15  17
ATOM     17  O   UNL     1       2.088  11.138  18.118  0.00  0.00    +0.000 OA
ATOM     18  H   UNL     1       2.162  10.229  18.470  0.00  0.00    +0.000 HD
ENDBRANCH  15  17
BRANCH  15  19
ATOM     19  O   UNL     1       0.704  13.170  18.008  0.00  0.00    +0.000 OA
ATOM     20  H   UNL     1       1.160  13.049  17.152  0.00  0.00    +0.000 HD
ENDBRANCH  15  19
ENDBRANCH   6  15
ENDBRANCH   5   6
ENDBRANCH   1   5
BRANCH   3  21
ATOM     21  C   UNL     1       2.001   7.482  20.449  0.00  0.00    +0.000 C 
BRANCH  21  22
ATOM     22  C   UNL     1       1.486   6.176  19.831  0.00  0.00    +0.000 C 
ATOM     23  O   UNL     1       2.053   5.965  18.520  0.00  0.00    +0.000 OA
ATOM     24  C   UNL     1       2.906   4.792  18.549  0.00  0.00    +0.000 C 
ATOM     25  C   UNL     1       3.096   4.430  20.038  0.00  0.00    +0.000 C 
ATOM     26  C   UNL     1       1.803   4.938  20.653  0.00  0.00    +0.000 C 
BRANCH  24  27
ATOM     27  N   UNL     1       4.156   5.041  17.820  0.00  0.00    +0.000 N 
ATOM     28  C   UNL     1       4.599   6.324  17.546  0.00  0.00    +0.000 A 
ATOM     29  C   UNL     1       5.707   6.558  16.841  0.00  0.00    +0.000 A 
ATOM     30  C   UNL     1       6.497   5.420  16.347  0.00  0.00    +0.000 A 
ATOM     31  O   UNL     1       7.493   5.591  15.663  0.00  0.00    +0.000 OA
ATOM     32  N   UNL     1       6.020   4.189  16.686  0.00  0.00    +0.000 N 
ATOM     33  C   UNL     1       4.828   3.931  17.311  0.00  0.00    +0.000 A 
ATOM     34  O   UNL     1       4.408   2.780  17.365  0.00  0.00    +0.000 OA
ATOM     35  H   UNL     1       6.509   3.389  16.315  0.00  0.00    +0.000 HD
ENDBRANCH  24  27
BRANCH  25  36
ATOM     36  O   UNL     1       3.255   3.046  20.325  0.00  0.00    +0.000 OA
ATOM     37  H   UNL     1       2.819   2.878  21.183  0.00  0.00    +0.000 HD
ENDBRANCH  25  36
BRANCH  26  38
ATOM     38  O   UNL     1       0.783   3.934  20.487  0.00  0.00    +0.000 OA
ATOM     39  H   UNL     1       0.083   4.275  19.900  0.00  0.00    +0.000 HD
ENDBRANCH  26  38
ENDBRANCH  21  22
ENDBRANCH   3  21
TORSDOF 12
ENDMDL
MODEL 5
REMARK VINA RESULT:      -7.8      1.313      1.681
REMARK  Name = 
REMARK  13 active torsions:
REMARK  status: ('A' for Active; 'I' for Inactive)
REMARK    1  A    between atoms: C_1  and  O_2
REMARK    2  A    between atoms: O_2  and  C_3
REMARK    3  A    between atoms: C_6  and  C_7
REMARK    4  A    between atoms: C_7  and  O_8
REMARK    5  A    between atoms: C_7  and  P_28
REMARK    6  A    between atoms: O_8  and  C_9
REMARK    7  A    between atoms: N_11  and  C_12
REMARK    8  A    between atoms: C_12  and  C_13
REMARK    9  A    between atoms: C_15  and  N_16
REMARK   10  A    between atoms: C_24  and  O_25
REMARK   11  A    between atoms: C_26  and  O_27
REMARK   12  A    between atoms: P_28  and  O_30
REMARK   13  A    between atoms: P_28  and  O_31
REMARK                            x       y       z     vdW  Elec       q    Type
REMARK                         _______ _______ _______ _____ _____    ______ ____
ROOT
ATOM      1  C   UNL     1       1.881   5.426  20.138  0.00  0.00    +0.000 C 
ATOM      2  O   UNL     1       1.266   4.702  20.902  0.00  0.00    +0.000 OA
ATOM      3  N   UNL     1       2.141   6.740  20.426  0.00  0.00    +0.000 N 
ATOM      4  H   UNL     1       1.847   6.947  21.373  0.00  0.00    +0.000 HD
ENDROOT
BRANCH   1   5
ATOM      5  O   UNL     1       2.436   5.060  18.965  0.00  0.00    +0.000 OA
BRANCH   5   6
ATOM      6  C   UNL     1       3.552   4.126  19.022  0.00  0.00    +0.000 C 
BRANCH   6  10
ATOM      7  C   UNL     1       6.693   5.247  16.245  0.00  0.00    +0.000 A 
ATOM      8  C   UNL     1       5.351   5.431  15.918  0.00  0.00    +0.000 A 
ATOM      9  C   UNL     1       4.345   5.124  16.839  0.00  0.00    +0.000 A 
ATOM     10  C   UNL     1       4.664   4.601  18.101  0.00  0.00    +0.000 A 
ATOM     11  C   UNL     1       6.017   4.448  18.434  0.00  0.00    +0.000 A 
ATOM     12  C   UNL     1       7.024   4.766  17.511  0.00  0.00    +0.000 A 
BRANCH   7  14
ATOM     13  C   UNL     1       7.264   4.967  13.964  0.00  0.00    +0.000 C 
ATOM     14  O   UNL     1       7.576   5.518  15.237  0.00  0.00    +0.000 OA
ENDBRANCH   7  14
ENDBRANCH   6  10
BRANCH   6  15
ATOM     15  P   UNL     1       2.725   2.540  18.664  0.00  0.00    +0.000 P 
ATOM     16  O   UNL     1       3.598   1.444  18.146  0.00  0.00    +0.000 OA
BRANCH  15  17
ATOM     17  O   UNL     1       2.007   2.145  20.055  0.00  0.00    +0.000 OA
ATOM     18  H   UNL     1       1.969   1.178  20.193  0.00  0.00    +0.000 HD
ENDBRANCH  15  17
BRANCH  15  19
ATOM     19  O   UNL     1       1.432   2.833  17.763  0.00  0.00    +0.000 OA
ATOM     20  H   UNL     1       0.821   3.440  18.223  0.00  0.00    +0.000 HD
ENDBRANCH  15  19
ENDBRANCH   6  15
ENDBRANCH   5   6
ENDBRANCH   1   5
BRANCH   3  21
ATOM     21  C   UNL     1       1.833   7.785  19.461  0.00  0.00    +0.000 C 
BRANCH  21  22
ATOM     22  C   UNL     1       1.816   9.209  20.030  0.00  0.00    +0.000 C 
ATOM     23  O   UNL     1       1.318  10.151  19.055  0.00  0.00    +0.000 OA
ATOM     24  C   UNL     1       0.060  10.704  19.521  0.00  0.00    +0.000 C 
ATOM     25  C   UNL     1      -0.377   9.837  20.721  0.00  0.00    +0.000 C 
ATOM     26  C   UNL     1       0.957   9.366  21.273  0.00  0.00    +0.000 C 
BRANCH  24  27
ATOM     27  N   UNL     1      -0.917  10.765  18.426  0.00  0.00    +0.000 N 
ATOM     28  C   UNL     1      -1.171   9.675  17.612  0.00  0.00    +0.000 A 
ATOM     29  C   UNL     1      -2.021   9.738  16.585  0.00  0.00    +0.000 A 
ATOM     30  C   UNL     1      -2.724  11.000  16.311  0.00  0.00    +0.000 A 
ATOM     31  O   UNL     1      -3.475  11.111  15.357  0.00  0.00    +0.000 OA
ATOM     32  N   UNL     1      -2.450  12.019  17.175  0.00  0.00    +0.000 N 
ATOM     33  C   UNL     1      -1.501  12.004  18.164  0.00  0.00    +0.000 A 
ATOM     34  O   UNL     1      -1.197  13.049  18.729  0.00  0.00    +0.000 OA
ATOM     35  H   UNL     1      -2.874  12.913  16.980  0.00  0.00    +0.000 HD
ENDBRANCH  24  27
BRANCH  25  36
ATOM     36  O   UNL     1      -1.110  10.509  21.738  0.00  0.00    +0.000 OA
ATOM     37  H   UNL     1      -1.939  10.009  21.874  0.00  0.00    +0.000 HD
ENDBRANCH  25  36
BRANCH  26  38
ATOM     38  O   UNL     1       1.487  10.388  22.140  0.00  0.00    +0.000 OA
ATOM     39  H   UNL     1       2.446  10.252  22.255  0.00  0.00    +0.000 HD
ENDBRANCH  26  38
ENDBRANCH  21  22
ENDBRANCH   3  21
TORSDOF 12
ENDMDL
MODEL 6
REMARK VINA RESULT:      -7.8      2.673      8.701
REMARK  Name = 
REMARK  13 active torsions:
REMARK  status: ('A' for Active; 'I' for Inactive)
REMARK    1  A    between atoms: C_1  and  O_2
REMARK    2  A    between atoms: O_2  and  C_3
REMARK    3  A    between atoms: C_6  and  C_7
REMARK    4  A    between atoms: C_7  and  O_8
REMARK    5  A    between atoms: C_7  and  P_28
REMARK    6  A    between atoms: O_8  and  C_9
REMARK    7  A    between atoms: N_11  and  C_12
REMARK    8  A    between atoms: C_12  and  C_13
REMARK    9  A    between atoms: C_15  and  N_16
REMARK   10  A    between atoms: C_24  and  O_25
REMARK   11  A    between atoms: C_26  and  O_27
REMARK   12  A    between atoms: P_28  and  O_30
REMARK   13  A    between atoms: P_28  and  O_31
REMARK                            x       y       z     vdW  Elec       q    Type
REMARK                         _______ _______ _______ _____ _____    ______ ____
ROOT
ATOM      1  C   UNL     1       1.010   9.481  21.516  0.00  0.00    +0.000 C 
ATOM      2  O   UNL     1       0.984   9.964  22.635  0.00  0.00    +0.000 OA
ATOM      3  N   UNL     1       0.934   8.130  21.300  0.00  0.00    +0.000 N 
ATOM      4  H   UNL     1       0.751   7.654  22.175  0.00  0.00    +0.000 HD
ENDROOT
BRANCH   1   5
ATOM      5  O   UNL     1       1.052  10.163  20.354  0.00  0.00    +0.000 OA
BRANCH   5   6
ATOM      6  C   UNL     1       0.204  11.342  20.246  0.00  0.00    +0.000 C 
BRANCH   6  10
ATOM      7  C   UNL     1      -2.939  10.696  17.324  0.00  0.00    +0.000 A 
ATOM      8  C   UNL     1      -1.758   9.957  17.279  0.00  0.00    +0.000 A 
ATOM      9  C   UNL     1      -0.774  10.126  18.257  0.00  0.00    +0.000 A 
ATOM     10  C   UNL     1      -0.943  11.061  19.289  0.00  0.00    +0.000 A 
ATOM     11  C   UNL     1      -2.146  11.779  19.345  0.00  0.00    +0.000 A 
ATOM     12  C   UNL     1      -3.135  11.599  18.368  0.00  0.00    +0.000 A 
BRANCH   7  14
ATOM     13  C   UNL     1      -3.213  10.547  14.976  0.00  0.00    +0.000 C 
ATOM     14  O   UNL     1      -3.790  10.489  16.274  0.00  0.00    +0.000 OA
ENDBRANCH   7  14
ENDBRANCH   6  10
BRANCH   6  15
ATOM     15  P   UNL     1       1.420  12.633  19.813  0.00  0.00    +0.000 P 
ATOM     16  O   UNL     1       2.232  12.387  18.583  0.00  0.00    +0.000 OA
BRANCH  15  17
ATOM     17  O   UNL     1       0.541  13.983  19.707  0.00  0.00    +0.000 OA
ATOM     18  H   UNL     1       0.826  14.663  20.349  0.00  0.00    +0.000 HD
ENDBRANCH  15  17
BRANCH  15  19
ATOM     19  O   UNL     1       2.287  12.972  21.117  0.00  0.00    +0.000 OA
ATOM     20  H   UNL     1       2.555  12.153  21.577  0.00  0.00    +0.000 HD
ENDBRANCH  15  19
ENDBRANCH   6  15
ENDBRANCH   5   6
ENDBRANCH   1   5
BRANCH   3  21
ATOM     21  C   UNL     1       1.904   7.461  20.445  0.00  0.00    +0.000 C 
BRANCH  21  22
ATOM     22  C   UNL     1       1.426   6.137  19.835  0.00  0.00    +0.000 C 
ATOM     23  O   UNL     1       2.012   5.927  18.532  0.00  0.00    +0.000 OA
ATOM     24  C   UNL     1       2.893   4.775  18.581  0.00  0.00    +0.000 C 
ATOM     25  C   UNL     1       3.076   4.433  20.075  0.00  0.00    +0.000 C 
ATOM     26  C   UNL     1       1.766   4.915  20.672  0.00  0.00    +0.000 C 
BRANCH  24  27
ATOM     27  N   UNL     1       4.144   5.049  17.861  0.00  0.00    +0.000 N 
ATOM     28  C   UNL     1       4.568   6.339  17.597  0.00  0.00    +0.000 A 
ATOM     29  C   UNL     1       5.677   6.595  16.901  0.00  0.00    +0.000 A 
ATOM     30  C   UNL     1       6.489   5.472  16.407  0.00  0.00    +0.000 A 
ATOM     31  O   UNL     1       7.486   5.662  15.731  0.00  0.00    +0.000 OA
ATOM     32  N   UNL     1       6.028   4.232  16.736  0.00  0.00    +0.000 N 
ATOM     33  C   UNL     1       4.837   3.951  17.352  0.00  0.00    +0.000 A 
ATOM     34  O   UNL     1       4.434   2.794  17.397  0.00  0.00    +0.000 OA
ATOM     35  H   UNL     1       6.533   3.442  16.364  0.00  0.00    +0.000 HD
ENDBRANCH  24  27
BRANCH  25  36
ATOM     36  O   UNL     1       3.266   3.056  20.378  0.00  0.00    +0.000 OA
ATOM     37  H   UNL     1       4.065   2.991  20.937  0.00  0.00    +0.000 HD
ENDBRANCH  25  36
BRANCH  26  38
ATOM     38  O   UNL     1       0.772   3.885  20.506  0.00  0.00    +0.000 OA
ATOM     39  H   UNL     1       0.593   3.462  21.366  0.00  0.00    +0.000 HD
ENDBRANCH  26  38
ENDBRANCH  21  22
ENDBRANCH   3  21
TORSDOF 12
ENDMDL
MODEL 7
REMARK VINA RESULT:      -7.7      2.723      8.933
REMARK  Name = 
REMARK  13 active torsions:
REMARK  status: ('A' for Active; 'I' for Inactive)
REMARK    1  A    between atoms: C_1  and  O_2
REMARK    2  A    between atoms: O_2  and  C_3
REMARK    3  A    between atoms: C_6  and  C_7
REMARK    4  A    between atoms: C_7  and  O_8
REMARK    5  A    between atoms: C_7  and  P_28
REMARK    6  A    between atoms: O_8  and  C_9
REMARK    7  A    between atoms: N_11  and  C_12
REMARK    8  A    between atoms: C_12  and  C_13
REMARK    9  A    between atoms: C_15  and  N_16
REMARK   10  A    between atoms: C_24  and  O_25
REMARK   11  A    between atoms: C_26  and  O_27
REMARK   12  A    between atoms: P_28  and  O_30
REMARK   13  A    between atoms: P_28  and  O_31
REMARK                            x       y       z     vdW  Elec       q    Type
REMARK                         _______ _______ _______ _____ _____    ______ ____
ROOT
ATOM      1  C   UNL     1       0.907   9.555  21.168  0.00  0.00    +0.000 C 
ATOM      2  O   UNL     1       1.008  10.273  22.148  0.00  0.00    +0.000 OA
ATOM      3  N   UNL     1       1.097   8.200  21.232  0.00  0.00    +0.000 N 
ATOM      4  H   UNL     1       1.216   7.916  22.197  0.00  0.00    +0.000 HD
ENDROOT
BRANCH   1   5
ATOM      5  O   UNL     1       0.548   9.945  19.929  0.00  0.00    +0.000 OA
BRANCH   5   6
ATOM      6  C   UNL     1      -0.004  11.285  19.789  0.00  0.00    +0.000 C 
BRANCH   6  10
ATOM      7  C   UNL     1      -3.942  10.956  17.993  0.00  0.00    +0.000 A 
ATOM      8  C   UNL     1      -3.652  11.975  18.899  0.00  0.00    +0.000 A 
ATOM      9  C   UNL     1      -2.366  12.113  19.428  0.00  0.00    +0.000 A 
ATOM     10  C   UNL     1      -1.347  11.213  19.080  0.00  0.00    +0.000 A 
ATOM     11  C   UNL     1      -1.638  10.209  18.146  0.00  0.00    +0.000 A 
ATOM     12  C   UNL     1      -2.927  10.080  17.609  0.00  0.00    +0.000 A 
BRANCH   7  14
ATOM     13  C   UNL     1      -5.900  12.126  17.356  0.00  0.00    +0.000 C 
ATOM     14  O   UNL     1      -5.250  10.886  17.602  0.00  0.00    +0.000 OA
ENDBRANCH   7  14
ENDBRANCH   6  10
BRANCH   6  15
ATOM     15  P   UNL     1       1.374  12.170  18.984  0.00  0.00    +0.000 P 
ATOM     16  O   UNL     1       2.360  12.823  19.895  0.00  0.00    +0.000 OA
BRANCH  15  17
ATOM     17  O   UNL     1       2.059  11.056  18.038  0.00  0.00    +0.000 OA
ATOM     18  H   UNL     1       1.407  10.426  17.671  0.00  0.00    +0.000 HD
ENDBRANCH  15  17
BRANCH  15  19
ATOM     19  O   UNL     1       0.768  13.143  17.864  0.00  0.00    +0.000 OA
ATOM     20  H   UNL     1       0.155  13.791  18.264  0.00  0.00    +0.000 HD
ENDBRANCH  15  19
ENDBRANCH   6  15
ENDBRANCH   5   6
ENDBRANCH   1   5
BRANCH   3  21
ATOM     21  C   UNL     1       1.992   7.533  20.297  0.00  0.00    +0.000 C 
BRANCH  21  22
ATOM     22  C   UNL     1       1.478   6.195  19.749  0.00  0.00    +0.000 C 
ATOM     23  O   UNL     1       2.023   5.929  18.438  0.00  0.00    +0.000 OA
ATOM     24  C   UNL     1       2.889   4.767  18.505  0.00  0.00    +0.000 C 
ATOM     25  C   UNL     1       3.110   4.476  20.005  0.00  0.00    +0.000 C 
ATOM     26  C   UNL     1       1.824   5.000  20.621  0.00  0.00    +0.000 C 
BRANCH  24  27
ATOM     27  N   UNL     1       4.122   4.995  17.741  0.00  0.00    +0.000 N 
ATOM     28  C   UNL     1       4.555   6.268  17.414  0.00  0.00    +0.000 A 
ATOM     29  C   UNL     1       5.647   6.481  16.679  0.00  0.00    +0.000 A 
ATOM     30  C   UNL     1       6.430   5.329  16.207  0.00  0.00    +0.000 A 
ATOM     31  O   UNL     1       7.411   5.479  15.497  0.00  0.00    +0.000 OA
ATOM     32  N   UNL     1       5.964   4.109  16.598  0.00  0.00    +0.000 N 
ATOM     33  C   UNL     1       4.787   3.869  17.257  0.00  0.00    +0.000 A 
ATOM     34  O   UNL     1       4.372   2.719  17.358  0.00  0.00    +0.000 OA
ATOM     35  H   UNL     1       6.448   3.298  16.244  0.00  0.00    +0.000 HD
ENDBRANCH  24  27
BRANCH  25  36
ATOM     36  O   UNL     1       3.289   3.108  20.352  0.00  0.00    +0.000 OA
ATOM     37  H   UNL     1       3.774   2.685  19.617  0.00  0.00    +0.000 HD
ENDBRANCH  25  36
BRANCH  26  38
ATOM     38  O   UNL     1       0.811   3.979  20.520  0.00  0.00    +0.000 OA
ATOM     39  H   UNL     1       1.139   3.154  20.922  0.00  0.00    +0.000 HD
ENDBRANCH  26  38
ENDBRANCH  21  22
ENDBRANCH   3  21
TORSDOF 12
ENDMDL
MODEL 8
REMARK VINA RESULT:      -7.7      2.892      8.981
REMARK  Name = 
REMARK  13 active torsions:
REMARK  status: ('A' for Active; 'I' for Inactive)
REMARK    1  A    between atoms: C_1  and  O_2
REMARK    2  A    between atoms: O_2  and  C_3
REMARK    3  A    between atoms: C_6  and  C_7
REMARK    4  A    between atoms: C_7  and  O_8
REMARK    5  A    between atoms: C_7  and  P_28
REMARK    6  A    between atoms: O_8  and  C_9
REMARK    7  A    between atoms: N_11  and  C_12
REMARK    8  A    between atoms: C_12  and  C_13
REMARK    9  A    between atoms: C_15  and  N_16
REMARK   10  A    between atoms: C_24  and  O_25
REMARK   11  A    between atoms: C_26  and  O_27
REMARK   12  A    between atoms: P_28  and  O_30
REMARK   13  A    between atoms: P_28  and  O_31
REMARK                            x       y       z     vdW  Elec       q    Type
REMARK                         _______ _______ _______ _____ _____    ______ ____
ROOT
ATOM      1  C   UNL     1       1.708   8.585  19.114  0.00  0.00    +0.000 C 
ATOM      2  O   UNL     1       1.682   8.464  20.327  0.00  0.00    +0.000 OA
ATOM      3  N   UNL     1       2.012   7.540  18.282  0.00  0.00    +0.000 N 
ATOM      4  H   UNL     1       2.092   6.686  18.820  0.00  0.00    +0.000 HD
ENDROOT
BRANCH   1   5
ATOM      5  O   UNL     1       1.397   9.696  18.417  0.00  0.00    +0.000 OA
BRANCH   5   6
ATOM      6  C   UNL     1       0.632  10.722  19.111  0.00  0.00    +0.000 C 
BRANCH   6  10
ATOM      7  C   UNL     1      -3.436  10.770  17.600  0.00  0.00    +0.000 A 
ATOM      8  C   UNL     1      -2.461   9.973  17.003  0.00  0.00    +0.000 A 
ATOM      9  C   UNL     1      -1.168   9.915  17.529  0.00  0.00    +0.000 A 
ATOM     10  C   UNL     1      -0.817  10.677  18.654  0.00  0.00    +0.000 A 
ATOM     11  C   UNL     1      -1.811  11.453  19.267  0.00  0.00    +0.000 A 
ATOM     12  C   UNL     1      -3.110  11.501  18.742  0.00  0.00    +0.000 A 
BRANCH   7  14
ATOM     13  C   UNL     1      -5.348  12.026  16.986  0.00  0.00    +0.000 C 
ATOM     14  O   UNL     1      -4.639  10.794  16.951  0.00  0.00    +0.000 OA
ENDBRANCH   7  14
ENDBRANCH   6  10
BRANCH   6  15
ATOM     15  P   UNL     1       1.621  12.217  18.766  0.00  0.00    +0.000 P 
ATOM     16  O   UNL     1       2.332  12.820  19.933  0.00  0.00    +0.000 OA
BRANCH  15  17
ATOM     17  O   UNL     1       2.638  11.757  17.600  0.00  0.00    +0.000 OA
ATOM     18  H   UNL     1       3.238  11.041  17.890  0.00  0.00    +0.000 HD
ENDBRANCH  15  17
BRANCH  15  19
ATOM     19  O   UNL     1       0.712  13.249  17.945  0.00  0.00    +0.000 OA
ATOM     20  H   UNL     1      -0.232  13.007  18.011  0.00  0.00    +0.000 HD
ENDBRANCH  15  19
ENDBRANCH   6  15
ENDBRANCH   5   6
ENDBRANCH   1   5
BRANCH   3  21
ATOM     21  C   UNL     1       3.020   7.690  17.242  0.00  0.00    +0.000 C 
BRANCH  21  22
ATOM     22  C   UNL     1       4.382   7.062  17.564  0.00  0.00    +0.000 C 
ATOM     23  O   UNL     1       4.378   6.462  18.878  0.00  0.00    +0.000 OA
ATOM     24  C   UNL     1       4.534   5.025  18.751  0.00  0.00    +0.000 C 
ATOM     25  C   UNL     1       4.336   4.699  17.255  0.00  0.00    +0.000 C 
ATOM     26  C   UNL     1       4.806   5.979  16.587  0.00  0.00    +0.000 C 
BRANCH  24  27
ATOM     27  N   UNL     1       3.615   4.322  19.654  0.00  0.00    +0.000 N 
ATOM     28  C   UNL     1       2.481   4.931  20.161  0.00  0.00    +0.000 A 
ATOM     29  C   UNL     1       1.667   4.315  21.022  0.00  0.00    +0.000 A 
ATOM     30  C   UNL     1       1.973   2.939  21.438  0.00  0.00    +0.000 A 
ATOM     31  O   UNL     1       1.280   2.356  22.255  0.00  0.00    +0.000 OA
ATOM     32  N   UNL     1       3.086   2.392  20.871  0.00  0.00    +0.000 N 
ATOM     33  C   UNL     1       3.989   3.047  20.074  0.00  0.00    +0.000 A 
ATOM     34  O   UNL     1       5.060   2.512  19.805  0.00  0.00    +0.000 OA
ATOM     35  H   UNL     1       3.352   1.469  21.179  0.00  0.00    +0.000 HD
ENDBRANCH  24  27
BRANCH  25  36
ATOM     36  O   UNL     1       5.080   3.593  16.757  0.00  0.00    +0.000 OA
ATOM     37  H   UNL     1       4.662   2.783  17.107  0.00  0.00    +0.000 HD
ENDBRANCH  25  36
BRANCH  26  38
ATOM     38  O   UNL     1       6.241   5.936  16.458  0.00  0.00    +0.000 OA
ATOM     39  H   UNL     1       6.562   5.044  16.688  0.00  0.00    +0.000 HD
ENDBRANCH  26  38
ENDBRANCH  21  22
ENDBRANCH   3  21
TORSDOF 12
ENDMDL
MODEL 9
REMARK VINA RESULT:      -7.6      2.878      8.341
REMARK  Name = 
REMARK  13 active torsions:
REMARK  status: ('A' for Active; 'I' for Inactive)
REMARK    1  A    between atoms: C_1  and  O_2
REMARK    2  A    between atoms: O_2  and  C_3
REMARK    3  A    between atoms: C_6  and  C_7
REMARK    4  A    between atoms: C_7  and  O_8
REMARK    5  A    between atoms: C_7  and  P_28
REMARK    6  A    between atoms: O_8  and  C_9
REMARK    7  A    between atoms: N_11  and  C_12
REMARK    8  A    between atoms: C_12  and  C_13
REMARK    9  A    between atoms: C_15  and  N_16
REMARK   10  A    between atoms: C_24  and  O_25
REMARK   11  A    between atoms: C_26  and  O_27
REMARK   12  A    between atoms: P_28  and  O_30
REMARK   13  A    between atoms: P_28  and  O_31
REMARK                            x       y       z     vdW  Elec       q    Type
REMARK                         _______ _______ _______ _____ _____    ______ ____
ROOT
ATOM      1  C   UNL     1       2.107   8.299  18.410  0.00  0.00    +0.000 C 
ATOM      2  O   UNL     1       1.742   8.592  17.284  0.00  0.00    +0.000 OA
ATOM      3  N   UNL     1       2.863   7.186  18.667  0.00  0.00    +0.000 N 
ATOM      4  H   UNL     1       3.136   6.749  17.795  0.00  0.00    +0.000 HD
ENDROOT
BRANCH   1   5
ATOM      5  O   UNL     1       1.893   9.019  19.530  0.00  0.00    +0.000 OA
BRANCH   5   6
ATOM      6  C   UNL     1       0.522   9.428  19.802  0.00  0.00    +0.000 C 
BRANCH   6  10
ATOM      7  C   UNL     1      -0.063  13.582  18.689  0.00  0.00    +0.000 A 
ATOM      8  C   UNL     1       1.217  13.074  18.910  0.00  0.00    +0.000 A 
ATOM      9  C   UNL     1       1.405  11.722  19.210  0.00  0.00    +0.000 A 
ATOM     10  C   UNL     1       0.308  10.853  19.319  0.00  0.00    +0.000 A 
ATOM     11  C   UNL     1      -0.973  11.365  19.066  0.00  0.00    +0.000 A 
ATOM     12  C   UNL     1      -1.156  12.720  18.756  0.00  0.00    +0.000 A 
BRANCH   7  14
ATOM     13  C   UNL     1      -0.616  15.719  19.547  0.00  0.00    +0.000 C 
ATOM     14  O   UNL     1      -0.119  14.931  18.473  0.00  0.00    +0.000 OA
ENDBRANCH   7  14
ENDBRANCH   6  10
BRANCH   6  15
ATOM     15  P   UNL     1       0.377   9.068  21.585  0.00  0.00    +0.000 P 
ATOM     16  O   UNL     1      -0.727   8.145  21.984  0.00  0.00    +0.000 OA
BRANCH  15  17
ATOM     17  O   UNL     1       1.831   8.496  21.992  0.00  0.00    +0.000 OA
ATOM     18  H   UNL     1       2.546   8.869  21.438  0.00  0.00    +0.000 HD
ENDBRANCH  15  17
BRANCH  15  19
ATOM     19  O   UNL     1       0.396  10.456  22.387  0.00  0.00    +0.000 OA
ATOM     20  H   UNL     1      -0.159  10.399  23.189  0.00  0.00    +0.000 HD
ENDBRANCH  15  19
ENDBRANCH   6  15
ENDBRANCH   5   6
ENDBRANCH   1   5
BRANCH   3  21
ATOM     21  C   UNL     1       2.470   6.249  19.710  0.00  0.00    +0.000 C 
BRANCH  21  22
ATOM     22  C   UNL     1       2.268   4.803  19.241  0.00  0.00    +0.000 C 
ATOM     23  O   UNL     1       2.719   4.633  17.879  0.00  0.00    +0.000 OA
ATOM     24  C   UNL     1       3.860   3.737  17.859  0.00  0.00    +0.000 C 
ATOM     25  C   UNL     1       4.310   3.576  19.327  0.00  0.00    +0.000 C 
ATOM     26  C   UNL     1       3.007   3.774  20.080  0.00  0.00    +0.000 C 
BRANCH  24  27
ATOM     27  N   UNL     1       4.901   4.244  16.956  0.00  0.00    +0.000 N 
ATOM     28  C   UNL     1       5.187   3.627  15.751  0.00  0.00    +0.000 A 
ATOM     29  C   UNL     1       6.165   4.052  14.948  0.00  0.00    +0.000 A 
ATOM     30  C   UNL     1       6.960   5.224  15.345  0.00  0.00    +0.000 A 
ATOM     31  O   UNL     1       7.890   5.618  14.661  0.00  0.00    +0.000 OA
ATOM     32  N   UNL     1       6.598   5.800  16.527  0.00  0.00    +0.000 N 
ATOM     33  C   UNL     1       5.673   5.311  17.412  0.00  0.00    +0.000 A 
ATOM     34  O   UNL     1       5.593   5.797  18.535  0.00  0.00    +0.000 OA
ATOM     35  H   UNL     1       7.160   6.572  16.852  0.00  0.00    +0.000 HD
ENDBRANCH  24  27
BRANCH  25  36
ATOM     36  O   UNL     1       4.876   2.316  19.667  0.00  0.00    +0.000 OA
ATOM     37  H   UNL     1       4.146   1.667  19.686  0.00  0.00    +0.000 HD
ENDBRANCH  25  36
BRANCH  26  38
ATOM     38  O   UNL     1       2.291   2.524  20.109  0.00  0.00    +0.000 OA
ATOM     39  H   UNL     1       2.863   1.813  19.765  0.00  0.00    +0.000 HD
ENDBRANCH  26  38
ENDBRANCH  21  22
ENDBRANCH   3  21
TORSDOF 12
ENDMDL
