MODEL 1
REMARK VINA RESULT:      -8.1      0.000      0.000
REMARK  Name = 
REMARK  2 active torsions:
REMARK  status: ('A' for Active; 'I' for Inactive)
REMARK    1  A    between atoms: C_2  and  C_4
REMARK    2  A    between atoms: N_10  and  C_11
REMARK                            x       y       z     vdW  Elec       q    Type
REMARK                         _______ _______ _______ _____ _____    ______ ____
ROOT
ATOM      1  C   UNL     1       7.000   5.593  17.535  0.00  0.00    +0.000 A 
ATOM      2  C   UNL     1       7.455   5.525  16.192  0.00  0.00    +0.000 A 
ATOM      3  C   UNL     1       6.761   4.819  15.160  0.00  0.00    +0.000 A 
ATOM      4  C   UNL     1       5.564   4.107  15.369  0.00  0.00    +0.000 A 
ATOM      5  C   UNL     1       5.147   4.203  16.690  0.00  0.00    +0.000 A 
ATOM      6  C   UNL     1       4.046   3.589  17.210  0.00  0.00    +0.000 A 
ATOM      7  N   UNL     1       4.004   3.954  18.538  0.00  0.00    +0.000 N 
ATOM      8  N   UNL     1       5.044   4.764  18.882  0.00  0.00    +0.000 NA
ATOM      9  C   UNL     1       5.787   4.911  17.766  0.00  0.00    +0.000 A 
ENDROOT
BRANCH   7  10
ATOM     10  C   UNL     1       3.035   3.572  19.508  0.00  0.00    +0.000 A 
ATOM     11  C   UNL     1       1.688   3.928  19.356  0.00  0.00    +0.000 A 
ATOM     12  C   UNL     1       0.751   3.549  20.320  0.00  0.00    +0.000 A 
ATOM     13  C   UNL     1       1.151   2.824  21.440  0.00  0.00    +0.000 A 
ATOM     14  C   UNL     1       2.487   2.464  21.597  0.00  0.00    +0.000 A 
ATOM     15  C   UNL     1       3.430   2.830  20.632  0.00  0.00    +0.000 A 
ENDBRANCH   7  10
BRANCH   1  17
ATOM     16  N   UNL     1       8.052   5.559  19.715  0.00  0.00    +0.000 N 
ATOM     17  C   UNL     1       7.778   6.268  18.586  0.00  0.00    +0.000 C 
ATOM     18  O   UNL     1       8.184   7.417  18.434  0.00  0.00    +0.000 OA
ATOM     19  H   UNL     1       8.635   5.971  20.430  0.00  0.00    +0.000 HD
ATOM     20  H   UNL     1       7.739   4.596  19.816  0.00  0.00    +0.000 HD
ENDBRANCH   1  17
TORSDOF 2
ENDMDL
MODEL 2
REMARK VINA RESULT:      -8.1      0.084      1.143
REMARK  Name = 
REMARK  2 active torsions:
REMARK  status: ('A' for Active; 'I' for Inactive)
REMARK    1  A    between atoms: C_2  and  C_4
REMARK    2  A    between atoms: N_10  and  C_11
REMARK                            x       y       z     vdW  Elec       q    Type
REMARK                         _______ _______ _______ _____ _____    ______ ____
ROOT
ATOM      1  C   UNL     1       6.961   5.656  17.486  0.00  0.00    +0.000 A 
ATOM      2  C   UNL     1       7.383   5.618  16.132  0.00  0.00    +0.000 A 
ATOM      3  C   UNL     1       6.663   4.937  15.101  0.00  0.00    +0.000 A 
ATOM      4  C   UNL     1       5.470   4.223  15.323  0.00  0.00    +0.000 A 
ATOM      5  C   UNL     1       5.085   4.291  16.656  0.00  0.00    +0.000 A 
ATOM      6  C   UNL     1       3.995   3.667  17.187  0.00  0.00    +0.000 A 
ATOM      7  N   UNL     1       3.986   4.003  18.524  0.00  0.00    +0.000 N 
ATOM      8  N   UNL     1       5.036   4.803  18.861  0.00  0.00    +0.000 NA
ATOM      9  C   UNL     1       5.752   4.973  17.731  0.00  0.00    +0.000 A 
ENDROOT
BRANCH   7  10
ATOM     10  C   UNL     1       3.040   3.601  19.509  0.00  0.00    +0.000 A 
ATOM     11  C   UNL     1       3.440   2.860  20.628  0.00  0.00    +0.000 A 
ATOM     12  C   UNL     1       2.499   2.469  21.584  0.00  0.00    +0.000 A 
ATOM     13  C   UNL     1       1.157   2.807  21.424  0.00  0.00    +0.000 A 
ATOM     14  C   UNL     1       0.751   3.547  20.315  0.00  0.00    +0.000 A 
ATOM     15  C   UNL     1       1.688   3.950  19.360  0.00  0.00    +0.000 A 
ENDBRANCH   7  10
BRANCH   1  17
ATOM     16  N   UNL     1       8.051   5.577  19.646  0.00  0.00    +0.000 N 
ATOM     17  C   UNL     1       7.766   6.306  18.533  0.00  0.00    +0.000 C 
ATOM     18  O   UNL     1       8.185   7.452  18.391  0.00  0.00    +0.000 OA
ATOM     19  H   UNL     1       8.651   5.971  20.357  0.00  0.00    +0.000 HD
ATOM     20  H   UNL     1       7.727   4.617  19.739  0.00  0.00    +0.000 HD
ENDBRANCH   1  17
TORSDOF 2
ENDMDL
MODEL 3
REMARK VINA RESULT:      -7.4      2.858      6.323
REMARK  Name = 
REMARK  2 active torsions:
REMARK  status: ('A' for Active; 'I' for Inactive)
REMARK    1  A    between atoms: C_2  and  C_4
REMARK    2  A    between atoms: N_10  and  C_11
REMARK                            x       y       z     vdW  Elec       q    Type
REMARK                         _______ _______ _______ _____ _____    ______ ____
ROOT
ATOM      1  C   UNL     1       4.003   3.642  18.824  0.00  0.00    +0.000 A 
ATOM      2  C   UNL     1       3.386   4.555  19.719  0.00  0.00    +0.000 A 
ATOM      3  C   UNL     1       3.227   5.948  19.436  0.00  0.00    +0.000 A 
ATOM      4  C   UNL     1       3.675   6.562  18.250  0.00  0.00    +0.000 A 
ATOM      5  C   UNL     1       4.263   5.636  17.398  0.00  0.00    +0.000 A 
ATOM      6  C   UNL     1       4.828   5.931  16.192  0.00  0.00    +0.000 A 
ATOM      7  N   UNL     1       5.280   4.732  15.686  0.00  0.00    +0.000 N 
ATOM      8  N   UNL     1       5.036   3.692  16.532  0.00  0.00    +0.000 NA
ATOM      9  C   UNL     1       4.435   4.225  17.615  0.00  0.00    +0.000 A 
ENDROOT
BRANCH   7  10
ATOM     10  C   UNL     1       5.941   4.513  14.445  0.00  0.00    +0.000 A 
ATOM     11  C   UNL     1       7.145   5.167  14.148  0.00  0.00    +0.000 A 
ATOM     12  C   UNL     1       7.779   4.944  12.924  0.00  0.00    +0.000 A 
ATOM     13  C   UNL     1       7.215   4.079  11.989  0.00  0.00    +0.000 A 
ATOM     14  C   UNL     1       6.021   3.423  12.277  0.00  0.00    +0.000 A 
ATOM     15  C   UNL     1       5.385   3.632  13.504  0.00  0.00    +0.000 A 
ENDBRANCH   7  10
BRANCH   1  17
ATOM     16  N   UNL     1       3.753   1.289  18.310  0.00  0.00    +0.000 N 
ATOM     17  C   UNL     1       4.214   2.229  19.179  0.00  0.00    +0.000 C 
ATOM     18  O   UNL     1       4.809   1.917  20.207  0.00  0.00    +0.000 OA
ATOM     19  H   UNL     1       3.934   0.313  18.493  0.00  0.00    +0.000 HD
ATOM     20  H   UNL     1       3.291   1.560  17.445  0.00  0.00    +0.000 HD
ENDBRANCH   1  17
TORSDOF 2
ENDMDL
MODEL 4
REMARK VINA RESULT:      -7.3      2.855      6.298
REMARK  Name = 
REMARK  2 active torsions:
REMARK  status: ('A' for Active; 'I' for Inactive)
REMARK    1  A    between atoms: C_2  and  C_4
REMARK    2  A    between atoms: N_10  and  C_11
REMARK                            x       y       z     vdW  Elec       q    Type
REMARK                         _______ _______ _______ _____ _____    ______ ____
ROOT
ATOM      1  C   UNL     1       3.926   3.727  18.788  0.00  0.00    +0.000 A 
ATOM      2  C   UNL     1       3.328   4.657  19.677  0.00  0.00    +0.000 A 
ATOM      3  C   UNL     1       3.212   6.055  19.394  0.00  0.00    +0.000 A 
ATOM      4  C   UNL     1       3.689   6.655  18.213  0.00  0.00    +0.000 A 
ATOM      5  C   UNL     1       4.259   5.713  17.366  0.00  0.00    +0.000 A 
ATOM      6  C   UNL     1       4.844   5.993  16.167  0.00  0.00    +0.000 A 
ATOM      7  N   UNL     1       5.266   4.781  15.664  0.00  0.00    +0.000 N 
ATOM      8  N   UNL     1       4.983   3.748  16.506  0.00  0.00    +0.000 NA
ATOM      9  C   UNL     1       4.387   4.298  17.584  0.00  0.00    +0.000 A 
ENDROOT
BRANCH   7  10
ATOM     10  C   UNL     1       5.932   4.543  14.429  0.00  0.00    +0.000 A 
ATOM     11  C   UNL     1       5.401   3.654  13.486  0.00  0.00    +0.000 A 
ATOM     12  C   UNL     1       6.069   3.429  12.280  0.00  0.00    +0.000 A 
ATOM     13  C   UNL     1       7.272   4.079  12.014  0.00  0.00    +0.000 A 
ATOM     14  C   UNL     1       7.806   4.967  12.945  0.00  0.00    +0.000 A 
ATOM     15  C   UNL     1       7.138   5.206  14.149  0.00  0.00    +0.000 A 
ENDBRANCH   7  10
BRANCH   1  17
ATOM     16  N   UNL     1       3.482   1.388  18.349  0.00  0.00    +0.000 N 
ATOM     17  C   UNL     1       4.093   2.308  19.144  0.00  0.00    +0.000 C 
ATOM     18  O   UNL     1       4.779   1.973  20.105  0.00  0.00    +0.000 OA
ATOM     19  H   UNL     1       3.625   0.404  18.529  0.00  0.00    +0.000 HD
ATOM     20  H   UNL     1       2.943   1.675  17.535  0.00  0.00    +0.000 HD
ENDBRANCH   1  17
TORSDOF 2
ENDMDL
MODEL 5
REMARK VINA RESULT:      -7.1      3.017      6.446
REMARK  Name = 
REMARK  2 active torsions:
REMARK  status: ('A' for Active; 'I' for Inactive)
REMARK    1  A    between atoms: C_2  and  C_4
REMARK    2  A    between atoms: N_10  and  C_11
REMARK                            x       y       z     vdW  Elec       q    Type
REMARK                         _______ _______ _______ _____ _____    ______ ____
ROOT
ATOM      1  C   UNL     1       1.791   3.699  19.056  0.00  0.00    +0.000 A 
ATOM      2  C   UNL     1       1.279   4.473  20.130  0.00  0.00    +0.000 A 
ATOM      3  C   UNL     1       1.749   5.786  20.448  0.00  0.00    +0.000 A 
ATOM      4  C   UNL     1       2.774   6.442  19.741  0.00  0.00    +0.000 A 
ATOM      5  C   UNL     1       3.243   5.658  18.695  0.00  0.00    +0.000 A 
ATOM      6  C   UNL     1       4.261   6.002  17.855  0.00  0.00    +0.000 A 
ATOM      7  N   UNL     1       4.391   4.951  16.973  0.00  0.00    +0.000 N 
ATOM      8  N   UNL     1       3.505   3.949  17.233  0.00  0.00    +0.000 NA
ATOM      9  C   UNL     1       2.801   4.344  18.313  0.00  0.00    +0.000 A 
ENDROOT
BRANCH   7  10
ATOM     10  C   UNL     1       5.317   4.835  15.899  0.00  0.00    +0.000 A 
ATOM     11  C   UNL     1       4.982   4.128  14.736  0.00  0.00    +0.000 A 
ATOM     12  C   UNL     1       5.904   4.020  13.692  0.00  0.00    +0.000 A 
ATOM     13  C   UNL     1       7.162   4.606  13.804  0.00  0.00    +0.000 A 
ATOM     14  C   UNL     1       7.502   5.313  14.956  0.00  0.00    +0.000 A 
ATOM     15  C   UNL     1       6.582   5.435  16.001  0.00  0.00    +0.000 A 
ENDBRANCH   7  10
BRANCH   1  17
ATOM     16  N   UNL     1       2.289   1.370  18.618  0.00  0.00    +0.000 N 
ATOM     17  C   UNL     1       1.335   2.322  18.803  0.00  0.00    +0.000 C 
ATOM     18  O   UNL     1       0.139   2.044  18.787  0.00  0.00    +0.000 OA
ATOM     19  H   UNL     1       2.012   0.406  18.502  0.00  0.00    +0.000 HD
ATOM     20  H   UNL     1       3.278   1.605  18.666  0.00  0.00    +0.000 HD
ENDBRANCH   1  17
TORSDOF 2
ENDMDL
MODEL 6
REMARK VINA RESULT:      -7.1      2.996      6.489
REMARK  Name = 
REMARK  2 active torsions:
REMARK  status: ('A' for Active; 'I' for Inactive)
REMARK    1  A    between atoms: C_2  and  C_4
REMARK    2  A    between atoms: N_10  and  C_11
REMARK                            x       y       z     vdW  Elec       q    Type
REMARK                         _______ _______ _______ _____ _____    ______ ____
ROOT
ATOM      1  C   UNL     1       1.765   3.731  19.137  0.00  0.00    +0.000 A 
ATOM      2  C   UNL     1       1.243   4.507  20.205  0.00  0.00    +0.000 A 
ATOM      3  C   UNL     1       1.707   5.822  20.523  0.00  0.00    +0.000 A 
ATOM      4  C   UNL     1       2.736   6.479  19.823  0.00  0.00    +0.000 A 
ATOM      5  C   UNL     1       3.215   5.693  18.782  0.00  0.00    +0.000 A 
ATOM      6  C   UNL     1       4.238   6.038  17.949  0.00  0.00    +0.000 A 
ATOM      7  N   UNL     1       4.378   4.985  17.071  0.00  0.00    +0.000 N 
ATOM      8  N   UNL     1       3.492   3.981  17.326  0.00  0.00    +0.000 NA
ATOM      9  C   UNL     1       2.779   4.378  18.400  0.00  0.00    +0.000 A 
ENDROOT
BRANCH   7  10
ATOM     10  C   UNL     1       5.312   4.869  16.004  0.00  0.00    +0.000 A 
ATOM     11  C   UNL     1       6.603   5.403  16.118  0.00  0.00    +0.000 A 
ATOM     12  C   UNL     1       7.507   5.284  15.060  0.00  0.00    +0.000 A 
ATOM     13  C   UNL     1       7.128   4.643  13.883  0.00  0.00    +0.000 A 
ATOM     14  C   UNL     1       5.848   4.107  13.762  0.00  0.00    +0.000 A 
ATOM     15  C   UNL     1       4.940   4.212  14.820  0.00  0.00    +0.000 A 
ENDBRANCH   7  10
BRANCH   1  17
ATOM     16  N   UNL     1       2.272   1.405  18.696  0.00  0.00    +0.000 N 
ATOM     17  C   UNL     1       1.313   2.354  18.883  0.00  0.00    +0.000 C 
ATOM     18  O   UNL     1       0.118   2.071  18.869  0.00  0.00    +0.000 OA
ATOM     19  H   UNL     1       1.998   0.440  18.580  0.00  0.00    +0.000 HD
ATOM     20  H   UNL     1       3.259   1.644  18.743  0.00  0.00    +0.000 HD
ENDBRANCH   1  17
TORSDOF 2
ENDMDL
MODEL 7
REMARK VINA RESULT:      -7.0      2.601      5.900
REMARK  Name = 
REMARK  2 active torsions:
REMARK  status: ('A' for Active; 'I' for Inactive)
REMARK    1  A    between atoms: C_2  and  C_4
REMARK    2  A    between atoms: N_10  and  C_11
REMARK                            x       y       z     vdW  Elec       q    Type
REMARK                         _______ _______ _______ _____ _____    ______ ____
ROOT
ATOM      1  C   UNL     1       2.438   3.212  20.032  0.00  0.00    +0.000 A 
ATOM      2  C   UNL     1       1.654   2.211  19.400  0.00  0.00    +0.000 A 
ATOM      3  C   UNL     1       1.848   1.799  18.044  0.00  0.00    +0.000 A 
ATOM      4  C   UNL     1       2.825   2.348  17.193  0.00  0.00    +0.000 A 
ATOM      5  C   UNL     1       3.576   3.315  17.849  0.00  0.00    +0.000 A 
ATOM      6  C   UNL     1       4.570   4.054  17.278  0.00  0.00    +0.000 A 
ATOM      7  N   UNL     1       5.046   4.878  18.275  0.00  0.00    +0.000 N 
ATOM      8  N   UNL     1       4.381   4.698  19.451  0.00  0.00    +0.000 NA
ATOM      9  C   UNL     1       3.444   3.759  19.210  0.00  0.00    +0.000 A 
ENDROOT
BRANCH   7  10
ATOM     10  C   UNL     1       6.093   5.836  18.177  0.00  0.00    +0.000 A 
ATOM     11  C   UNL     1       7.219   5.756  19.008  0.00  0.00    +0.000 A 
ATOM     12  C   UNL     1       8.236   6.708  18.903  0.00  0.00    +0.000 A 
ATOM     13  C   UNL     1       8.133   7.745  17.978  0.00  0.00    +0.000 A 
ATOM     14  C   UNL     1       7.018   7.829  17.147  0.00  0.00    +0.000 A 
ATOM     15  C   UNL     1       6.001   6.876  17.239  0.00  0.00    +0.000 A 
ENDBRANCH   7  10
BRANCH   1  17
ATOM     16  N   UNL     1       2.243   4.997  21.655  0.00  0.00    +0.000 N 
ATOM     17  C   UNL     1       2.162   3.662  21.406  0.00  0.00    +0.000 C 
ATOM     18  O   UNL     1       1.845   2.863  22.284  0.00  0.00    +0.000 OA
ATOM     19  H   UNL     1       2.001   5.347  22.572  0.00  0.00    +0.000 HD
ATOM     20  H   UNL     1       2.474   5.654  20.914  0.00  0.00    +0.000 HD
ENDBRANCH   1  17
TORSDOF 2
ENDMDL
MODEL 8
REMARK VINA RESULT:      -7.0      3.816      4.627
REMARK  Name = 
REMARK  2 active torsions:
REMARK  status: ('A' for Active; 'I' for Inactive)
REMARK    1  A    between atoms: C_2  and  C_4
REMARK    2  A    between atoms: N_10  and  C_11
REMARK                            x       y       z     vdW  Elec       q    Type
REMARK                         _______ _______ _______ _____ _____    ______ ____
ROOT
ATOM      1  C   UNL     1       4.399   4.069  17.767  0.00  0.00    +0.000 A 
ATOM      2  C   UNL     1       5.293   3.956  16.670  0.00  0.00    +0.000 A 
ATOM      3  C   UNL     1       5.642   5.054  15.823  0.00  0.00    +0.000 A 
ATOM      4  C   UNL     1       5.128   6.356  15.978  0.00  0.00    +0.000 A 
ATOM      5  C   UNL     1       4.266   6.428  17.065  0.00  0.00    +0.000 A 
ATOM      6  C   UNL     1       3.581   7.544  17.447  0.00  0.00    +0.000 A 
ATOM      7  N   UNL     1       2.858   7.176  18.562  0.00  0.00    +0.000 N 
ATOM      8  N   UNL     1       3.049   5.868  18.890  0.00  0.00    +0.000 NA
ATOM      9  C   UNL     1       3.892   5.369  17.963  0.00  0.00    +0.000 A 
ENDROOT
BRANCH   7  10
ATOM     10  C   UNL     1       1.986   7.994  19.333  0.00  0.00    +0.000 A 
ATOM     11  C   UNL     1       1.650   7.645  20.648  0.00  0.00    +0.000 A 
ATOM     12  C   UNL     1       0.789   8.457  21.391  0.00  0.00    +0.000 A 
ATOM     13  C   UNL     1       0.253   9.612  20.825  0.00  0.00    +0.000 A 
ATOM     14  C   UNL     1       0.584   9.967  19.520  0.00  0.00    +0.000 A 
ATOM     15  C   UNL     1       1.453   9.166  18.773  0.00  0.00    +0.000 A 
ENDBRANCH   7  10
BRANCH   1  17
ATOM     16  N   UNL     1       4.865   2.498  19.549  0.00  0.00    +0.000 N 
ATOM     17  C   UNL     1       4.007   2.901  18.572  0.00  0.00    +0.000 C 
ATOM     18  O   UNL     1       2.935   2.333  18.384  0.00  0.00    +0.000 OA
ATOM     19  H   UNL     1       4.600   1.738  20.160  0.00  0.00    +0.000 HD
ATOM     20  H   UNL     1       5.736   2.996  19.718  0.00  0.00    +0.000 HD
ENDBRANCH   1  17
TORSDOF 2
ENDMDL
MODEL 9
REMARK VINA RESULT:      -7.0      4.304      5.630
REMARK  Name = 
REMARK  2 active torsions:
REMARK  status: ('A' for Active; 'I' for Inactive)
REMARK    1  A    between atoms: C_2  and  C_4
REMARK    2  A    between atoms: N_10  and  C_11
REMARK                            x       y       z     vdW  Elec       q    Type
REMARK                         _______ _______ _______ _____ _____    ______ ____
ROOT
ATOM      1  C   UNL     1       2.871   3.599  19.878  0.00  0.00    +0.000 A 
ATOM      2  C   UNL     1       3.643   2.850  18.952  0.00  0.00    +0.000 A 
ATOM      3  C   UNL     1       4.218   3.413  17.770  0.00  0.00    +0.000 A 
ATOM      4  C   UNL     1       4.069   4.762  17.394  0.00  0.00    +0.000 A 
ATOM      5  C   UNL     1       3.316   5.462  18.328  0.00  0.00    +0.000 A 
ATOM      6  C   UNL     1       2.966   6.777  18.223  0.00  0.00    +0.000 A 
ATOM      7  N   UNL     1       2.235   7.061  19.356  0.00  0.00    +0.000 N 
ATOM      8  N   UNL     1       2.097   5.974  20.166  0.00  0.00    +0.000 NA
ATOM      9  C   UNL     1       2.730   4.961  19.541  0.00  0.00    +0.000 A 
ENDROOT
BRANCH   7  10
ATOM     10  C   UNL     1       1.649   8.307  19.715  0.00  0.00    +0.000 A 
ATOM     11  C   UNL     1       1.444   9.307  18.754  0.00  0.00    +0.000 A 
ATOM     12  C   UNL     1       0.871  10.526  19.123  0.00  0.00    +0.000 A 
ATOM     13  C   UNL     1       0.509  10.759  20.448  0.00  0.00    +0.000 A 
ATOM     14  C   UNL     1       0.707   9.769  21.409  0.00  0.00    +0.000 A 
ATOM     15  C   UNL     1       1.270   8.542  21.046  0.00  0.00    +0.000 A 
ENDBRANCH   7  10
BRANCH   1  17
ATOM     16  N   UNL     1       0.873   2.959  21.088  0.00  0.00    +0.000 N 
ATOM     17  C   UNL     1       2.234   2.970  21.047  0.00  0.00    +0.000 C 
ATOM     18  O   UNL     1       2.907   2.452  21.933  0.00  0.00    +0.000 OA
ATOM     19  H   UNL     1       0.404   2.483  21.845  0.00  0.00    +0.000 HD
ATOM     20  H   UNL     1       0.325   3.362  20.332  0.00  0.00    +0.000 HD
ENDBRANCH   1  17
TORSDOF 2
ENDMDL
