MODEL 1
REMARK VINA RESULT:      -7.2      0.000      0.000
REMARK  Name = 
REMARK  8 active torsions:
REMARK  status: ('A' for Active; 'I' for Inactive)
REMARK    1  A    between atoms: C_1  and  C_2
REMARK    2  A    between atoms: C_2  and  C_3
REMARK    3  A    between atoms: C_2  and  N_4
REMARK    4  A    between atoms: C_8  and  C_9
REMARK    5  A    between atoms: C_11  and  C_12
REMARK    6  A    between atoms: N_18  and  C_19
REMARK    7  A    between atoms: C_19  and  C_20
REMARK    8  A    between atoms: C_20  and  O_21
REMARK                            x       y       z     vdW  Elec       q    Type
REMARK                         _______ _______ _______ _____ _____    ______ ____
ROOT
ATOM      1  C   UNL     1       5.214   5.728  16.872  0.00  0.00    +0.000 A 
ATOM      2  N   UNL     1       4.952   4.850  15.914  0.00  0.00    +0.000 NA
ATOM      3  C   UNL     1       6.120   4.744  15.205  0.00  0.00    +0.000 A 
ATOM      4  N   UNL     1       7.117   5.491  15.687  0.00  0.00    +0.000 NA
ATOM      5  N   UNL     1       6.542   6.081  16.757  0.00  0.00    +0.000 N 
ENDROOT
BRANCH   1  10
ATOM      6  N   UNL     1       1.683   7.653  20.765  0.00  0.00    +0.000 N 
ATOM      7  C   UNL     1       2.492   7.182  19.746  0.00  0.00    +0.000 A 
ATOM      8  N   UNL     1       2.668   7.870  18.614  0.00  0.00    +0.000 NA
ATOM      9  C   UNL     1       3.548   7.366  17.711  0.00  0.00    +0.000 A 
ATOM     10  C   UNL     1       4.242   6.183  17.866  0.00  0.00    +0.000 A 
ATOM     11  C   UNL     1       3.975   5.554  19.063  0.00  0.00    +0.000 A 
ATOM     12  N   UNL     1       3.106   6.018  19.996  0.00  0.00    +0.000 NA
ATOM     13  H   UNL     1       1.500   6.861  21.368  0.00  0.00    +0.000 HD
BRANCH   6  15
ATOM     14  C   UNL     1      -0.515   8.352  21.528  0.00  0.00    +0.000 C 
ATOM     15  C   UNL     1       0.539   8.489  20.423  0.00  0.00    +0.000 C 
ATOM     16  C   UNL     1       0.957   9.955  20.319  0.00  0.00    +0.000 C 
ENDBRANCH   6  15
ENDBRANCH   1  10
BRANCH   3  17
ATOM     17  C   UNL     1       6.292   3.883  14.003  0.00  0.00    +0.000 C 
ATOM     18  C   UNL     1       5.006   3.660  13.212  0.00  0.00    +0.000 C 
ATOM     19  C   UNL     1       5.491   3.128  11.869  0.00  0.00    +0.000 C 
ATOM     20  C   UNL     1       6.871   3.744  11.648  0.00  0.00    +0.000 C 
ATOM     21  C   UNL     1       7.246   4.451  12.951  0.00  0.00    +0.000 C 
ENDBRANCH   3  17
BRANCH   5  22
ATOM     22  C   UNL     1       7.389   6.866  17.632  0.00  0.00    +0.000 C 
BRANCH  22  23
ATOM     23  C   UNL     1       7.757   6.120  18.909  0.00  0.00    +0.000 C 
BRANCH  23  24
ATOM     24  O   UNL     1       8.024   4.747  18.632  0.00  0.00    +0.000 OA
ATOM     25  H   UNL     1       8.988   4.670  18.499  0.00  0.00    +0.000 HD
ENDBRANCH  23  24
ENDBRANCH  22  23
ENDBRANCH   5  22
TORSDOF 6
ENDMDL
MODEL 2
REMARK VINA RESULT:      -7.1      1.391      1.502
REMARK  Name = 
REMARK  8 active torsions:
REMARK  status: ('A' for Active; 'I' for Inactive)
REMARK    1  A    between atoms: C_1  and  C_2
REMARK    2  A    between atoms: C_2  and  C_3
REMARK    3  A    between atoms: C_2  and  N_4
REMARK    4  A    between atoms: C_8  and  C_9
REMARK    5  A    between atoms: C_11  and  C_12
REMARK    6  A    between atoms: N_18  and  C_19
REMARK    7  A    between atoms: C_19  and  C_20
REMARK    8  A    between atoms: C_20  and  O_21
REMARK                            x       y       z     vdW  Elec       q    Type
REMARK                         _______ _______ _______ _____ _____    ______ ____
ROOT
ATOM      1  C   UNL     1       4.840   5.820  17.201  0.00  0.00    +0.000 A 
ATOM      2  N   UNL     1       4.840   5.403  15.942  0.00  0.00    +0.000 NA
ATOM      3  C   UNL     1       5.991   4.669  15.816  0.00  0.00    +0.000 A 
ATOM      4  N   UNL     1       6.703   4.578  16.942  0.00  0.00    +0.000 NA
ATOM      5  N   UNL     1       5.951   5.281  17.815  0.00  0.00    +0.000 N 
ENDROOT
BRANCH   1  10
ATOM      6  N   UNL     1       1.090   9.226  19.581  0.00  0.00    +0.000 N 
ATOM      7  C   UNL     1       1.976   8.394  18.919  0.00  0.00    +0.000 A 
ATOM      8  N   UNL     1       2.648   8.802  17.838  0.00  0.00    +0.000 NA
ATOM      9  C   UNL     1       3.556   7.941  17.310  0.00  0.00    +0.000 A 
ATOM     10  C   UNL     1       3.808   6.672  17.790  0.00  0.00    +0.000 A 
ATOM     11  C   UNL     1       3.052   6.356  18.898  0.00  0.00    +0.000 A 
ATOM     12  N   UNL     1       2.132   7.180  19.462  0.00  0.00    +0.000 NA
ATOM     13  H   UNL     1       0.527   8.626  20.171  0.00  0.00    +0.000 HD
BRANCH   6  15
ATOM     14  C   UNL     1      -1.109  10.185  19.194  0.00  0.00    +0.000 C 
ATOM     15  C   UNL     1       0.377  10.242  18.817  0.00  0.00    +0.000 C 
ATOM     16  C   UNL     1       0.916  11.635  19.143  0.00  0.00    +0.000 C 
ENDBRANCH   6  15
ENDBRANCH   1  10
BRANCH   3  17
ATOM     17  C   UNL     1       6.432   4.021  14.550  0.00  0.00    +0.000 C 
ATOM     18  C   UNL     1       5.289   3.674  13.601  0.00  0.00    +0.000 C 
ATOM     19  C   UNL     1       5.983   3.422  12.268  0.00  0.00    +0.000 C 
ATOM     20  C   UNL     1       7.230   4.304  12.273  0.00  0.00    +0.000 C 
ATOM     21  C   UNL     1       7.344   4.888  13.682  0.00  0.00    +0.000 C 
ENDBRANCH   3  17
BRANCH   5  22
ATOM     22  C   UNL     1       6.346   5.270  19.209  0.00  0.00    +0.000 C 
BRANCH  22  23
ATOM     23  C   UNL     1       7.801   5.679  19.405  0.00  0.00    +0.000 C 
BRANCH  23  24
ATOM     24  O   UNL     1       8.239   5.367  20.726  0.00  0.00    +0.000 OA
ATOM     25  H   UNL     1       8.835   6.089  21.001  0.00  0.00    +0.000 HD
ENDBRANCH  23  24
ENDBRANCH  22  23
ENDBRANCH   5  22
TORSDOF 6
ENDMDL
MODEL 3
REMARK VINA RESULT:      -7.1      3.236      6.000
REMARK  Name = 
REMARK  8 active torsions:
REMARK  status: ('A' for Active; 'I' for Inactive)
REMARK    1  A    between atoms: C_1  and  C_2
REMARK    2  A    between atoms: C_2  and  C_3
REMARK    3  A    between atoms: C_2  and  N_4
REMARK    4  A    between atoms: C_8  and  C_9
REMARK    5  A    between atoms: C_11  and  C_12
REMARK    6  A    between atoms: N_18  and  C_19
REMARK    7  A    between atoms: C_19  and  C_20
REMARK    8  A    between atoms: C_20  and  O_21
REMARK                            x       y       z     vdW  Elec       q    Type
REMARK                         _______ _______ _______ _____ _____    ______ ____
ROOT
ATOM      1  C   UNL     1       5.769   5.289  17.256  0.00  0.00    +0.000 A 
ATOM      2  N   UNL     1       4.654   4.911  17.866  0.00  0.00    +0.000 NA
ATOM      3  C   UNL     1       4.114   3.954  17.046  0.00  0.00    +0.000 A 
ATOM      4  N   UNL     1       4.849   3.689  15.963  0.00  0.00    +0.000 NA
ATOM      5  N   UNL     1       5.906   4.514  16.124  0.00  0.00    +0.000 N 
ENDROOT
BRANCH   1  10
ATOM      6  N   UNL     1       9.387   9.217  18.936  0.00  0.00    +0.000 N 
ATOM      7  C   UNL     1       8.430   8.300  18.538  0.00  0.00    +0.000 A 
ATOM      8  N   UNL     1       7.532   8.589  17.590  0.00  0.00    +0.000 NA
ATOM      9  C   UNL     1       6.689   7.594  17.209  0.00  0.00    +0.000 A 
ATOM     10  C   UNL     1       6.673   6.326  17.754  0.00  0.00    +0.000 A 
ATOM     11  C   UNL     1       7.632   6.146  18.728  0.00  0.00    +0.000 A 
ATOM     12  N   UNL     1       8.496   7.106  19.142  0.00  0.00    +0.000 NA
ATOM     13  H   UNL     1       9.751   8.878  19.818  0.00  0.00    +0.000 HD
BRANCH   6  15
ATOM     14  C   UNL     1       9.269  11.254  20.255  0.00  0.00    +0.000 C 
ATOM     15  C   UNL     1       9.070  10.637  18.865  0.00  0.00    +0.000 C 
ATOM     16  C   UNL     1       9.995  11.344  17.875  0.00  0.00    +0.000 C 
ENDBRANCH   6  15
ENDBRANCH   1  10
BRANCH   3  17
ATOM     17  C   UNL     1       2.826   3.257  17.313  0.00  0.00    +0.000 C 
ATOM     18  C   UNL     1       2.947   2.081  18.277  0.00  0.00    +0.000 C 
ATOM     19  C   UNL     1       1.510   1.806  18.702  0.00  0.00    +0.000 C 
ATOM     20  C   UNL     1       0.789   3.151  18.632  0.00  0.00    +0.000 C 
ATOM     21  C   UNL     1       1.761   4.132  17.975  0.00  0.00    +0.000 C 
ENDBRANCH   3  17
BRANCH   5  22
ATOM     22  C   UNL     1       7.009   4.388  15.194  0.00  0.00    +0.000 C 
BRANCH  22  23
ATOM     23  C   UNL     1       6.556   4.437  13.740  0.00  0.00    +0.000 C 
BRANCH  23  24
ATOM     24  O   UNL     1       6.286   3.125  13.251  0.00  0.00    +0.000 OA
ATOM     25  H   UNL     1       5.871   2.632  13.985  0.00  0.00    +0.000 HD
ENDBRANCH  23  24
ENDBRANCH  22  23
ENDBRANCH   5  22
TORSDOF 6
ENDMDL
MODEL 4
REMARK VINA RESULT:      -7.0      0.857      1.433
REMARK  Name = 
REMARK  8 active torsions:
REMARK  status: ('A' for Active; 'I' for Inactive)
REMARK    1  A    between atoms: C_1  and  C_2
REMARK    2  A    between atoms: C_2  and  C_3
REMARK    3  A    between atoms: C_2  and  N_4
REMARK    4  A    between atoms: C_8  and  C_9
REMARK    5  A    between atoms: C_11  and  C_12
REMARK    6  A    between atoms: N_18  and  C_19
REMARK    7  A    between atoms: C_19  and  C_20
REMARK    8  A    between atoms: C_20  and  O_21
REMARK                            x       y       z     vdW  Elec       q    Type
REMARK                         _______ _______ _______ _____ _____    ______ ____
ROOT
ATOM      1  C   UNL     1       5.246   5.943  16.928  0.00  0.00    +0.000 A 
ATOM      2  N   UNL     1       5.001   5.239  15.832  0.00  0.00    +0.000 NA
ATOM      3  C   UNL     1       6.232   4.800  15.416  0.00  0.00    +0.000 A 
ATOM      4  N   UNL     1       7.238   5.168  16.213  0.00  0.00    +0.000 NA
ATOM      5  N   UNL     1       6.599   5.860  17.180  0.00  0.00    +0.000 N 
ENDROOT
BRANCH   1  10
ATOM      6  N   UNL     1       1.141   8.433  19.807  0.00  0.00    +0.000 N 
ATOM      7  C   UNL     1       2.200   7.812  19.167  0.00  0.00    +0.000 A 
ATOM      8  N   UNL     1       2.663   6.624  19.569  0.00  0.00    +0.000 NA
ATOM      9  C   UNL     1       3.649   6.059  18.824  0.00  0.00    +0.000 A 
ATOM     10  C   UNL     1       4.223   6.637  17.711  0.00  0.00    +0.000 A 
ATOM     11  C   UNL     1       3.676   7.862  17.397  0.00  0.00    +0.000 A 
ATOM     12  N   UNL     1       2.691   8.468  18.108  0.00  0.00    +0.000 NA
ATOM     13  H   UNL     1       1.159   9.400  19.506  0.00  0.00    +0.000 HD
BRANCH   6  15
ATOM     14  C   UNL     1       1.675   9.296  22.014  0.00  0.00    +0.000 C 
ATOM     15  C   UNL     1       0.946   8.197  21.231  0.00  0.00    +0.000 C 
ATOM     16  C   UNL     1      -0.541   8.243  21.584  0.00  0.00    +0.000 C 
ENDBRANCH   6  15
ENDBRANCH   1  10
BRANCH   3  17
ATOM     17  C   UNL     1       6.456   3.986  14.190  0.00  0.00    +0.000 C 
ATOM     18  C   UNL     1       5.186   3.701  13.395  0.00  0.00    +0.000 C 
ATOM     19  C   UNL     1       5.700   3.239  12.036  0.00  0.00    +0.000 C 
ATOM     20  C   UNL     1       7.037   3.950  11.831  0.00  0.00    +0.000 C 
ATOM     21  C   UNL     1       7.368   4.643  13.154  0.00  0.00    +0.000 C 
ENDBRANCH   3  17
BRANCH   5  22
ATOM     22  C   UNL     1       7.373   6.293  18.326  0.00  0.00    +0.000 C 
BRANCH  22  23
ATOM     23  C   UNL     1       7.092   5.458  19.569  0.00  0.00    +0.000 C 
BRANCH  23  24
ATOM     24  O   UNL     1       8.198   5.503  20.468  0.00  0.00    +0.000 OA
ATOM     25  H   UNL     1       8.817   6.172  20.118  0.00  0.00    +0.000 HD
ENDBRANCH  23  24
ENDBRANCH  22  23
ENDBRANCH   5  22
TORSDOF 6
ENDMDL
MODEL 5
REMARK VINA RESULT:      -7.0      2.685      4.453
REMARK  Name = 
REMARK  8 active torsions:
REMARK  status: ('A' for Active; 'I' for Inactive)
REMARK    1  A    between atoms: C_1  and  C_2
REMARK    2  A    between atoms: C_2  and  C_3
REMARK    3  A    between atoms: C_2  and  N_4
REMARK    4  A    between atoms: C_8  and  C_9
REMARK    5  A    between atoms: C_11  and  C_12
REMARK    6  A    between atoms: N_18  and  C_19
REMARK    7  A    between atoms: C_19  and  C_20
REMARK    8  A    between atoms: C_20  and  O_21
REMARK                            x       y       z     vdW  Elec       q    Type
REMARK                         _______ _______ _______ _____ _____    ______ ____
ROOT
ATOM      1  C   UNL     1       2.786   6.486  19.122  0.00  0.00    +0.000 A 
ATOM      2  N   UNL     1       3.706   6.264  18.194  0.00  0.00    +0.000 NA
ATOM      3  C   UNL     1       4.151   4.991  18.440  0.00  0.00    +0.000 A 
ATOM      4  N   UNL     1       3.535   4.387  19.460  0.00  0.00    +0.000 NA
ATOM      5  N   UNL     1       2.654   5.329  19.860  0.00  0.00    +0.000 N 
ENDROOT
BRANCH   1  10
ATOM      6  N   UNL     1       0.207  11.422  19.688  0.00  0.00    +0.000 N 
ATOM      7  C   UNL     1       0.788  10.182  19.488  0.00  0.00    +0.000 A 
ATOM      8  N   UNL     1       1.210   9.791  18.282  0.00  0.00    +0.000 NA
ATOM      9  C   UNL     1       1.843   8.591  18.205  0.00  0.00    +0.000 A 
ATOM     10  C   UNL     1       2.049   7.741  19.273  0.00  0.00    +0.000 A 
ATOM     11  C   UNL     1       1.563   8.241  20.461  0.00  0.00    +0.000 A 
ATOM     12  N   UNL     1       0.925   9.432  20.590  0.00  0.00    +0.000 NA
ATOM     13  H   UNL     1      -0.259  11.374  20.586  0.00  0.00    +0.000 HD
BRANCH   6  15
ATOM     14  C   UNL     1      -2.037  11.765  18.823  0.00  0.00    +0.000 C 
ATOM     15  C   UNL     1      -0.544  12.029  18.597  0.00  0.00    +0.000 C 
ATOM     16  C   UNL     1      -0.310  13.539  18.559  0.00  0.00    +0.000 C 
ENDBRANCH   6  15
ENDBRANCH   1  10
BRANCH   3  17
ATOM     17  C   UNL     1       5.222   4.316  17.656  0.00  0.00    +0.000 C 
ATOM     18  C   UNL     1       5.001   4.351  16.147  0.00  0.00    +0.000 C 
ATOM     19  C   UNL     1       6.365   3.990  15.569  0.00  0.00    +0.000 C 
ATOM     20  C   UNL     1       7.393   4.491  16.581  0.00  0.00    +0.000 C 
ATOM     21  C   UNL     1       6.608   4.943  17.813  0.00  0.00    +0.000 C 
ENDBRANCH   3  17
BRANCH   5  22
ATOM     22  C   UNL     1       1.688   4.962  20.875  0.00  0.00    +0.000 C 
BRANCH  22  23
ATOM     23  C   UNL     1       1.604   3.454  21.082  0.00  0.00    +0.000 C 
BRANCH  23  24
ATOM     24  O   UNL     1       2.470   3.041  22.138  0.00  0.00    +0.000 OA
ATOM     25  H   UNL     1       2.161   2.161  22.426  0.00  0.00    +0.000 HD
ENDBRANCH  23  24
ENDBRANCH  22  23
ENDBRANCH   5  22
TORSDOF 6
ENDMDL
MODEL 6
REMARK VINA RESULT:      -6.9      1.963      2.697
REMARK  Name = 
REMARK  8 active torsions:
REMARK  status: ('A' for Active; 'I' for Inactive)
REMARK    1  A    between atoms: C_1  and  C_2
REMARK    2  A    between atoms: C_2  and  C_3
REMARK    3  A    between atoms: C_2  and  N_4
REMARK    4  A    between atoms: C_8  and  C_9
REMARK    5  A    between atoms: C_11  and  C_12
REMARK    6  A    between atoms: N_18  and  C_19
REMARK    7  A    between atoms: C_19  and  C_20
REMARK    8  A    between atoms: C_20  and  O_21
REMARK                            x       y       z     vdW  Elec       q    Type
REMARK                         _______ _______ _______ _____ _____    ______ ____
ROOT
ATOM      1  C   UNL     1       3.715   5.389  17.680  0.00  0.00    +0.000 A 
ATOM      2  N   UNL     1       4.509   5.559  16.632  0.00  0.00    +0.000 NA
ATOM      3  C   UNL     1       5.009   4.311  16.365  0.00  0.00    +0.000 A 
ATOM      4  N   UNL     1       4.546   3.356  17.175  0.00  0.00    +0.000 NA
ATOM      5  N   UNL     1       3.706   4.043  17.979  0.00  0.00    +0.000 N 
ENDROOT
BRANCH   1  10
ATOM      6  N   UNL     1       1.138   9.626  20.277  0.00  0.00    +0.000 N 
ATOM      7  C   UNL     1       1.721   8.588  19.571  0.00  0.00    +0.000 A 
ATOM      8  N   UNL     1       2.191   8.760  18.331  0.00  0.00    +0.000 NA
ATOM      9  C   UNL     1       2.821   7.703  17.755  0.00  0.00    +0.000 A 
ATOM     10  C   UNL     1       2.978   6.465  18.343  0.00  0.00    +0.000 A 
ATOM     11  C   UNL     1       2.446   6.400  19.613  0.00  0.00    +0.000 A 
ATOM     12  N   UNL     1       1.808   7.426  20.231  0.00  0.00    +0.000 NA
ATOM     13  H   UNL     1       0.635   9.197  21.044  0.00  0.00    +0.000 HD
BRANCH   6  15
ATOM     14  C   UNL     1      -0.967  10.158  19.186  0.00  0.00    +0.000 C 
ATOM     15  C   UNL     1       0.436  10.668  19.540  0.00  0.00    +0.000 C 
ATOM     16  C   UNL     1       0.300  11.930  20.393  0.00  0.00    +0.000 C 
ENDBRANCH   6  15
ENDBRANCH   1  10
BRANCH   3  17
ATOM     17  C   UNL     1       5.982   4.018  15.277  0.00  0.00    +0.000 C 
ATOM     18  C   UNL     1       5.341   3.851  13.902  0.00  0.00    +0.000 C 
ATOM     19  C   UNL     1       6.512   3.972  12.935  0.00  0.00    +0.000 C 
ATOM     20  C   UNL     1       7.523   4.893  13.616  0.00  0.00    +0.000 C 
ATOM     21  C   UNL     1       7.015   5.120  15.040  0.00  0.00    +0.000 C 
ENDBRANCH   3  17
BRANCH   5  22
ATOM     22  C   UNL     1       2.890   3.287  18.907  0.00  0.00    +0.000 C 
BRANCH  22  23
ATOM     23  C   UNL     1       3.669   2.842  20.139  0.00  0.00    +0.000 C 
BRANCH  23  24
ATOM     24  O   UNL     1       4.909   2.246  19.763  0.00  0.00    +0.000 OA
ATOM     25  H   UNL     1       5.007   2.385  18.802  0.00  0.00    +0.000 HD
ENDBRANCH  23  24
ENDBRANCH  22  23
ENDBRANCH   5  22
TORSDOF 6
ENDMDL
MODEL 7
REMARK VINA RESULT:      -6.9      2.886      4.730
REMARK  Name = 
REMARK  8 active torsions:
REMARK  status: ('A' for Active; 'I' for Inactive)
REMARK    1  A    between atoms: C_1  and  C_2
REMARK    2  A    between atoms: C_2  and  C_3
REMARK    3  A    between atoms: C_2  and  N_4
REMARK    4  A    between atoms: C_8  and  C_9
REMARK    5  A    between atoms: C_11  and  C_12
REMARK    6  A    between atoms: N_18  and  C_19
REMARK    7  A    between atoms: C_19  and  C_20
REMARK    8  A    between atoms: C_20  and  O_21
REMARK                            x       y       z     vdW  Elec       q    Type
REMARK                         _______ _______ _______ _____ _____    ______ ____
ROOT
ATOM      1  C   UNL     1       2.669   6.322  19.473  0.00  0.00    +0.000 A 
ATOM      2  N   UNL     1       3.757   6.233  18.720  0.00  0.00    +0.000 NA
ATOM      3  C   UNL     1       4.072   4.899  18.715  0.00  0.00    +0.000 A 
ATOM      4  N   UNL     1       3.219   4.137  19.404  0.00  0.00    +0.000 NA
ATOM      5  N   UNL     1       2.322   5.042  19.850  0.00  0.00    +0.000 N 
ENDROOT
BRANCH   1  10
ATOM      6  N   UNL     1      -0.199  10.971  20.693  0.00  0.00    +0.000 N 
ATOM      7  C   UNL     1       0.565   9.843  20.452  0.00  0.00    +0.000 A 
ATOM      8  N   UNL     1       0.850   8.968  21.421  0.00  0.00    +0.000 NA
ATOM      9  C   UNL     1       1.535   7.850  21.067  0.00  0.00    +0.000 A 
ATOM     10  C   UNL     1       1.982   7.573  19.790  0.00  0.00    +0.000 A 
ATOM     11  C   UNL     1       1.641   8.548  18.878  0.00  0.00    +0.000 A 
ATOM     12  N   UNL     1       0.959   9.681  19.182  0.00  0.00    +0.000 NA
ATOM     13  H   UNL     1      -0.047  11.588  19.905  0.00  0.00    +0.000 HD
BRANCH   6  15
ATOM     14  C   UNL     1      -0.149  13.106  21.852  0.00  0.00    +0.000 C 
ATOM     15  C   UNL     1      -0.153  11.581  22.015  0.00  0.00    +0.000 C 
ATOM     16  C   UNL     1      -1.376  11.176  22.838  0.00  0.00    +0.000 C 
ENDBRANCH   6  15
ENDBRANCH   1  10
BRANCH   3  17
ATOM     17  C   UNL     1       5.252   4.324  18.013  0.00  0.00    +0.000 C 
ATOM     18  C   UNL     1       5.212   4.489  16.497  0.00  0.00    +0.000 C 
ATOM     19  C   UNL     1       6.647   4.215  16.061  0.00  0.00    +0.000 C 
ATOM     20  C   UNL     1       7.529   4.647  17.230  0.00  0.00    +0.000 C 
ATOM     21  C   UNL     1       6.587   4.967  18.391  0.00  0.00    +0.000 C 
ENDBRANCH   3  17
BRANCH   5  22
ATOM     22  C   UNL     1       1.141   4.545  20.526  0.00  0.00    +0.000 C 
BRANCH  22  23
ATOM     23  C   UNL     1       1.341   3.147  21.099  0.00  0.00    +0.000 C 
BRANCH  23  24
ATOM     24  O   UNL     1       2.266   3.175  22.184  0.00  0.00    +0.000 OA
ATOM     25  H   UNL     1       1.735   3.217  23.003  0.00  0.00    +0.000 HD
ENDBRANCH  23  24
ENDBRANCH  22  23
ENDBRANCH   5  22
TORSDOF 6
ENDMDL
MODEL 8
REMARK VINA RESULT:      -6.8      2.303      3.452
REMARK  Name = 
REMARK  8 active torsions:
REMARK  status: ('A' for Active; 'I' for Inactive)
REMARK    1  A    between atoms: C_1  and  C_2
REMARK    2  A    between atoms: C_2  and  C_3
REMARK    3  A    between atoms: C_2  and  N_4
REMARK    4  A    between atoms: C_8  and  C_9
REMARK    5  A    between atoms: C_11  and  C_12
REMARK    6  A    between atoms: N_18  and  C_19
REMARK    7  A    between atoms: C_19  and  C_20
REMARK    8  A    between atoms: C_20  and  O_21
REMARK                            x       y       z     vdW  Elec       q    Type
REMARK                         _______ _______ _______ _____ _____    ______ ____
ROOT
ATOM      1  C   UNL     1       3.247   5.801  17.973  0.00  0.00    +0.000 A 
ATOM      2  N   UNL     1       4.185   5.883  17.039  0.00  0.00    +0.000 NA
ATOM      3  C   UNL     1       4.576   4.587  16.820  0.00  0.00    +0.000 A 
ATOM      4  N   UNL     1       3.908   3.688  17.548  0.00  0.00    +0.000 NA
ATOM      5  N   UNL     1       3.052   4.464  18.246  0.00  0.00    +0.000 N 
ENDROOT
BRANCH   1  10
ATOM      6  N   UNL     1       0.832  10.339  20.188  0.00  0.00    +0.000 N 
ATOM      7  C   UNL     1       1.366   9.214  19.584  0.00  0.00    +0.000 A 
ATOM      8  N   UNL     1       1.651   9.187  18.278  0.00  0.00    +0.000 NA
ATOM      9  C   UNL     1       2.250   8.067  17.797  0.00  0.00    +0.000 A 
ATOM     10  C   UNL     1       2.553   6.951  18.551  0.00  0.00    +0.000 A 
ATOM     11  C   UNL     1       2.205   7.087  19.877  0.00  0.00    +0.000 A 
ATOM     12  N   UNL     1       1.606   8.184  20.406  0.00  0.00    +0.000 NA
ATOM     13  H   UNL     1       0.463  10.031  21.080  0.00  0.00    +0.000 HD
BRANCH   6  15
ATOM     14  C   UNL     1      -1.268  11.562  20.225  0.00  0.00    +0.000 C 
ATOM     15  C   UNL     1      -0.020  11.221  19.401  0.00  0.00    +0.000 C 
ATOM     16  C   UNL     1       0.716  12.516  19.061  0.00  0.00    +0.000 C 
ENDBRANCH   6  15
ENDBRANCH   1  10
BRANCH   3  17
ATOM     17  C   UNL     1       5.644   4.189  15.864  0.00  0.00    +0.000 C 
ATOM     18  C   UNL     1       5.162   4.039  14.424  0.00  0.00    +0.000 C 
ATOM     19  C   UNL     1       6.447   4.040  13.605  0.00  0.00    +0.000 C 
ATOM     20  C   UNL     1       7.442   4.894  14.389  0.00  0.00    +0.000 C 
ATOM     21  C   UNL     1       6.787   5.197  15.737  0.00  0.00    +0.000 C 
ENDBRANCH   3  17
BRANCH   5  22
ATOM     22  C   UNL     1       2.043   3.803  19.049  0.00  0.00    +0.000 C 
BRANCH  22  23
ATOM     23  C   UNL     1       1.546   2.510  18.413  0.00  0.00    +0.000 C 
BRANCH  23  24
ATOM     24  O   UNL     1       2.480   1.454  18.623  0.00  0.00    +0.000 OA
ATOM     25  H   UNL     1       2.091   0.652  18.223  0.00  0.00    +0.000 HD
ENDBRANCH  23  24
ENDBRANCH  22  23
ENDBRANCH   5  22
TORSDOF 6
ENDMDL
MODEL 9
REMARK VINA RESULT:      -6.8      0.934      1.032
REMARK  Name = 
REMARK  8 active torsions:
REMARK  status: ('A' for Active; 'I' for Inactive)
REMARK    1  A    between atoms: C_1  and  C_2
REMARK    2  A    between atoms: C_2  and  C_3
REMARK    3  A    between atoms: C_2  and  N_4
REMARK    4  A    between atoms: C_8  and  C_9
REMARK    5  A    between atoms: C_11  and  C_12
REMARK    6  A    between atoms: N_18  and  C_19
REMARK    7  A    between atoms: C_19  and  C_20
REMARK    8  A    between atoms: C_20  and  O_21
REMARK                            x       y       z     vdW  Elec       q    Type
REMARK                         _______ _______ _______ _____ _____    ______ ____
ROOT
ATOM      1  C   UNL     1       5.279   5.755  17.015  0.00  0.00    +0.000 A 
ATOM      2  N   UNL     1       5.035   4.925  16.009  0.00  0.00    +0.000 NA
ATOM      3  C   UNL     1       6.232   4.808  15.353  0.00  0.00    +0.000 A 
ATOM      4  N   UNL     1       7.229   5.499  15.912  0.00  0.00    +0.000 NA
ATOM      5  N   UNL     1       6.622   6.065  16.977  0.00  0.00    +0.000 N 
ENDROOT
BRANCH   1  10
ATOM      6  N   UNL     1       1.625   7.653  20.806  0.00  0.00    +0.000 N 
ATOM      7  C   UNL     1       2.467   7.189  19.810  0.00  0.00    +0.000 A 
ATOM      8  N   UNL     1       2.676   7.883  18.688  0.00  0.00    +0.000 NA
ATOM      9  C   UNL     1       3.585   7.385  17.810  0.00  0.00    +0.000 A 
ATOM     10  C   UNL     1       4.276   6.202  17.981  0.00  0.00    +0.000 A 
ATOM     11  C   UNL     1       3.973   5.567  19.165  0.00  0.00    +0.000 A 
ATOM     12  N   UNL     1       3.074   6.024  20.074  0.00  0.00    +0.000 NA
ATOM     13  H   UNL     1       1.425   6.857  21.399  0.00  0.00    +0.000 HD
BRANCH   6  15
ATOM     14  C   UNL     1      -0.543   8.445  21.564  0.00  0.00    +0.000 C 
ATOM     15  C   UNL     1       0.491   8.488  20.432  0.00  0.00    +0.000 C 
ATOM     16  C   UNL     1       0.935   9.936  20.225  0.00  0.00    +0.000 C 
ENDBRANCH   6  15
ENDBRANCH   1  10
BRANCH   3  17
ATOM     17  C   UNL     1       6.433   3.991  14.125  0.00  0.00    +0.000 C 
ATOM     18  C   UNL     1       5.152   3.728  13.339  0.00  0.00    +0.000 C 
ATOM     19  C   UNL     1       5.648   3.258  11.977  0.00  0.00    +0.000 C 
ATOM     20  C   UNL     1       6.994   3.947  11.761  0.00  0.00    +0.000 C 
ATOM     21  C   UNL     1       7.347   4.634  13.081  0.00  0.00    +0.000 C 
ENDBRANCH   3  17
BRANCH   5  22
ATOM     22  C   UNL     1       7.451   6.783  17.924  0.00  0.00    +0.000 C 
BRANCH  22  23
ATOM     23  C   UNL     1       7.677   8.234  17.518  0.00  0.00    +0.000 C 
BRANCH  23  24
ATOM     24  O   UNL     1       8.544   8.888  18.443  0.00  0.00    +0.000 OA
ATOM     25  H   UNL     1       7.993   9.515  18.949  0.00  0.00    +0.000 HD
ENDBRANCH  23  24
ENDBRANCH  22  23
ENDBRANCH   5  22
TORSDOF 6
ENDMDL
