MODEL 1
REMARK VINA RESULT:      -8.0      0.000      0.000
REMARK  Name = 
REMARK  6 active torsions:
REMARK  status: ('A' for Active; 'I' for Inactive)
REMARK    1  A    between atoms: C_4  and  C_5
REMARK    2  A    between atoms: C_5  and  C_6
REMARK    3  A    between atoms: C_6  and  C_7
REMARK    4  A    between atoms: C_7  and  N_8
REMARK    5  A    between atoms: C_11  and  C_12
REMARK    6  A    between atoms: C_12  and  C_13
REMARK                            x       y       z     vdW  Elec       q    Type
REMARK                         _______ _______ _______ _____ _____    ______ ____
ROOT
ATOM      1  N   UNL     1       7.208   6.281  17.321  0.00  0.00    +0.000 NA
ATOM      2  C   UNL     1       6.361   6.249  18.528  0.00  0.00    +0.000 C 
ATOM      3  C   UNL     1       5.959   4.826  18.905  0.00  0.00    +0.000 C 
ATOM      4  C   UNL     1       5.202   4.130  17.772  0.00  0.00    +0.000 C 
ATOM      5  C   UNL     1       6.089   4.189  16.516  0.00  0.00    +0.000 C 
ATOM      6  C   UNL     1       6.554   5.616  16.182  0.00  0.00    +0.000 C 
ENDROOT
BRANCH   1   7
ATOM      7  C   UNL     1       7.601   7.661  16.969  0.00  0.00    +0.000 C 
BRANCH   7   8
ATOM      8  C   UNL     1       8.243   8.402  18.151  0.00  0.00    +0.000 C 
BRANCH   8   9
ATOM      9  C   UNL     1       8.091   9.923  18.066  0.00  0.00    +0.000 C 
BRANCH   9  13
ATOM     10  C   UNL     1      11.512  11.985  19.702  0.00  0.00    +0.000 A 
ATOM     11  C   UNL     1      10.534  11.470  20.550  0.00  0.00    +0.000 A 
ATOM     12  C   UNL     1       9.441  10.781  20.022  0.00  0.00    +0.000 A 
ATOM     13  C   UNL     1       9.317  10.600  18.638  0.00  0.00    +0.000 A 
ATOM     14  C   UNL     1      10.306  11.124  17.792  0.00  0.00    +0.000 A 
ATOM     15  C   UNL     1      11.398  11.813  18.324  0.00  0.00    +0.000 A 
ENDBRANCH   9  13
ENDBRANCH   8   9
ENDBRANCH   7   8
ENDBRANCH   1   7
BRANCH   4  16
ATOM     16  C   UNL     1       3.808   4.738  17.491  0.00  0.00    +0.000 C 
BRANCH  16  17
ATOM     17  C   UNL     1       2.683   4.233  18.365  0.00  0.00    +0.000 A 
ATOM     18  C   UNL     1       2.016   3.044  18.032  0.00  0.00    +0.000 A 
ATOM     19  C   UNL     1       1.005   2.540  18.853  0.00  0.00    +0.000 A 
ATOM     20  C   UNL     1       0.651   3.217  20.017  0.00  0.00    +0.000 A 
ATOM     21  C   UNL     1       1.303   4.402  20.356  0.00  0.00    +0.000 A 
ATOM     22  C   UNL     1       2.313   4.908  19.535  0.00  0.00    +0.000 A 
ENDBRANCH  16  17
ENDBRANCH   4  16
TORSDOF 6
ENDMDL
MODEL 2
REMARK VINA RESULT:      -7.9      1.106      1.774
REMARK  Name = 
REMARK  6 active torsions:
REMARK  status: ('A' for Active; 'I' for Inactive)
REMARK    1  A    between atoms: C_4  and  C_5
REMARK    2  A    between atoms: C_5  and  C_6
REMARK    3  A    between atoms: C_6  and  C_7
REMARK    4  A    between atoms: C_7  and  N_8
REMARK    5  A    between atoms: C_11  and  C_12
REMARK    6  A    between atoms: C_12  and  C_13
REMARK                            x       y       z     vdW  Elec       q    Type
REMARK                         _______ _______ _______ _____ _____    ______ ____
ROOT
ATOM      1  N   UNL     1       6.797   6.971  16.979  0.00  0.00    +0.000 NA
ATOM      2  C   UNL     1       7.030   5.563  16.605  0.00  0.00    +0.000 C 
ATOM      3  C   UNL     1       5.836   4.965  15.866  0.00  0.00    +0.000 C 
ATOM      4  C   UNL     1       4.558   5.030  16.704  0.00  0.00    +0.000 C 
ATOM      5  C   UNL     1       4.339   6.499  17.104  0.00  0.00    +0.000 C 
ATOM      6  C   UNL     1       5.571   7.122  17.781  0.00  0.00    +0.000 C 
ENDROOT
BRANCH   1   7
ATOM      7  C   UNL     1       7.961   7.545  17.685  0.00  0.00    +0.000 C 
BRANCH   7   8
ATOM      8  C   UNL     1       7.962   9.081  17.648  0.00  0.00    +0.000 C 
BRANCH   8   9
ATOM      9  C   UNL     1       8.796   9.712  18.766  0.00  0.00    +0.000 C 
BRANCH   9  13
ATOM     10  C   UNL     1      10.739  13.345  17.477  0.00  0.00    +0.000 A 
ATOM     11  C   UNL     1      11.499  12.232  17.833  0.00  0.00    +0.000 A 
ATOM     12  C   UNL     1      10.870  11.050  18.225  0.00  0.00    +0.000 A 
ATOM     13  C   UNL     1       9.471  10.969  18.264  0.00  0.00    +0.000 A 
ATOM     14  C   UNL     1       8.715  12.094  17.906  0.00  0.00    +0.000 A 
ATOM     15  C   UNL     1       9.348  13.277  17.513  0.00  0.00    +0.000 A 
ENDBRANCH   9  13
ENDBRANCH   8   9
ENDBRANCH   7   8
ENDBRANCH   1   7
BRANCH   4  16
ATOM     16  C   UNL     1       4.587   4.118  17.954  0.00  0.00    +0.000 C 
BRANCH  16  17
ATOM     17  C   UNL     1       3.253   3.877  18.622  0.00  0.00    +0.000 A 
ATOM     18  C   UNL     1       2.339   2.973  18.060  0.00  0.00    +0.000 A 
ATOM     19  C   UNL     1       1.121   2.707  18.689  0.00  0.00    +0.000 A 
ATOM     20  C   UNL     1       0.804   3.339  19.888  0.00  0.00    +0.000 A 
ATOM     21  C   UNL     1       1.701   4.245  20.454  0.00  0.00    +0.000 A 
ATOM     22  C   UNL     1       2.919   4.512  19.825  0.00  0.00    +0.000 A 
ENDBRANCH  16  17
ENDBRANCH   4  16
TORSDOF 6
ENDMDL
MODEL 3
REMARK VINA RESULT:      -7.7      0.826      1.276
REMARK  Name = 
REMARK  6 active torsions:
REMARK  status: ('A' for Active; 'I' for Inactive)
REMARK    1  A    between atoms: C_4  and  C_5
REMARK    2  A    between atoms: C_5  and  C_6
REMARK    3  A    between atoms: C_6  and  C_7
REMARK    4  A    between atoms: C_7  and  N_8
REMARK    5  A    between atoms: C_11  and  C_12
REMARK    6  A    between atoms: C_12  and  C_13
REMARK                            x       y       z     vdW  Elec       q    Type
REMARK                         _______ _______ _______ _____ _____    ______ ____
ROOT
ATOM      1  N   UNL     1       7.080   6.603  17.577  0.00  0.00    +0.000 NA
ATOM      2  C   UNL     1       6.035   6.060  18.465  0.00  0.00    +0.000 C 
ATOM      3  C   UNL     1       6.091   4.537  18.545  0.00  0.00    +0.000 C 
ATOM      4  C   UNL     1       5.930   3.889  17.168  0.00  0.00    +0.000 C 
ATOM      5  C   UNL     1       7.012   4.480  16.248  0.00  0.00    +0.000 C 
ATOM      6  C   UNL     1       7.002   6.017  16.228  0.00  0.00    +0.000 C 
ENDROOT
BRANCH   1   7
ATOM      7  C   UNL     1       7.025   8.079  17.513  0.00  0.00    +0.000 C 
BRANCH   7   8
ATOM      8  C   UNL     1       8.305   8.731  18.057  0.00  0.00    +0.000 C 
BRANCH   8   9
ATOM      9  C   UNL     1       8.360  10.242  17.819  0.00  0.00    +0.000 C 
BRANCH   9  13
ATOM     10  C   UNL     1      11.632  12.088  19.945  0.00  0.00    +0.000 A 
ATOM     11  C   UNL     1      10.530  11.600  20.644  0.00  0.00    +0.000 A 
ATOM     12  C   UNL     1       9.484  10.980  19.958  0.00  0.00    +0.000 A 
ATOM     13  C   UNL     1       9.532  10.843  18.564  0.00  0.00    +0.000 A 
ATOM     14  C   UNL     1      10.645  11.338  17.870  0.00  0.00    +0.000 A 
ATOM     15  C   UNL     1      11.690  11.958  18.559  0.00  0.00    +0.000 A 
ENDBRANCH   9  13
ENDBRANCH   8   9
ENDBRANCH   7   8
ENDBRANCH   1   7
BRANCH   4  16
ATOM     16  C   UNL     1       4.523   4.075  16.554  0.00  0.00    +0.000 C 
BRANCH  16  17
ATOM     17  C   UNL     1       3.365   3.636  17.420  0.00  0.00    +0.000 A 
ATOM     18  C   UNL     1       2.396   4.567  17.824  0.00  0.00    +0.000 A 
ATOM     19  C   UNL     1       1.297   4.167  18.586  0.00  0.00    +0.000 A 
ATOM     20  C   UNL     1       1.153   2.832  18.953  0.00  0.00    +0.000 A 
ATOM     21  C   UNL     1       2.112   1.898  18.563  0.00  0.00    +0.000 A 
ATOM     22  C   UNL     1       3.212   2.296  17.801  0.00  0.00    +0.000 A 
ENDBRANCH  16  17
ENDBRANCH   4  16
TORSDOF 6
ENDMDL
MODEL 4
REMARK VINA RESULT:      -7.7      1.304      2.063
REMARK  Name = 
REMARK  6 active torsions:
REMARK  status: ('A' for Active; 'I' for Inactive)
REMARK    1  A    between atoms: C_4  and  C_5
REMARK    2  A    between atoms: C_5  and  C_6
REMARK    3  A    between atoms: C_6  and  C_7
REMARK    4  A    between atoms: C_7  and  N_8
REMARK    5  A    between atoms: C_11  and  C_12
REMARK    6  A    between atoms: C_12  and  C_13
REMARK                            x       y       z     vdW  Elec       q    Type
REMARK                         _______ _______ _______ _____ _____    ______ ____
ROOT
ATOM      1  N   UNL     1       6.294   6.085  16.984  0.00  0.00    +0.000 NA
ATOM      2  C   UNL     1       6.382   4.774  16.313  0.00  0.00    +0.000 C 
ATOM      3  C   UNL     1       5.042   4.348  15.719  0.00  0.00    +0.000 C 
ATOM      4  C   UNL     1       3.948   4.264  16.786  0.00  0.00    +0.000 C 
ATOM      5  C   UNL     1       3.883   5.630  17.490  0.00  0.00    +0.000 C 
ATOM      6  C   UNL     1       5.249   6.092  18.022  0.00  0.00    +0.000 C 
ENDROOT
BRANCH   1   7
ATOM      7  C   UNL     1       7.597   6.495  17.547  0.00  0.00    +0.000 C 
BRANCH   7   8
ATOM      8  C   UNL     1       7.755   8.022  17.591  0.00  0.00    +0.000 C 
BRANCH   8   9
ATOM      9  C   UNL     1       8.618   8.507  18.759  0.00  0.00    +0.000 C 
BRANCH   9  13
ATOM     10  C   UNL     1       9.250  12.770  18.503  0.00  0.00    +0.000 A 
ATOM     11  C   UNL     1       9.911  12.021  19.475  0.00  0.00    +0.000 A 
ATOM     12  C   UNL     1       9.726  10.639  19.540  0.00  0.00    +0.000 A 
ATOM     13  C   UNL     1       8.877   9.992  18.633  0.00  0.00    +0.000 A 
ATOM     14  C   UNL     1       8.215  10.754  17.659  0.00  0.00    +0.000 A 
ATOM     15  C   UNL     1       8.402  12.137  17.595  0.00  0.00    +0.000 A 
ENDBRANCH   9  13
ENDBRANCH   8   9
ENDBRANCH   7   8
ENDBRANCH   1   7
BRANCH   4  16
ATOM     16  C   UNL     1       4.165   3.126  17.810  0.00  0.00    +0.000 C 
BRANCH  16  17
ATOM     17  C   UNL     1       3.114   3.007  18.891  0.00  0.00    +0.000 A 
ATOM     18  C   UNL     1       3.497   2.973  20.241  0.00  0.00    +0.000 A 
ATOM     19  C   UNL     1       2.536   2.909  21.252  0.00  0.00    +0.000 A 
ATOM     20  C   UNL     1       1.183   2.881  20.926  0.00  0.00    +0.000 A 
ATOM     21  C   UNL     1       0.790   2.910  19.588  0.00  0.00    +0.000 A 
ATOM     22  C   UNL     1       1.750   2.973  18.576  0.00  0.00    +0.000 A 
ENDBRANCH  16  17
ENDBRANCH   4  16
TORSDOF 6
ENDMDL
MODEL 5
REMARK VINA RESULT:      -7.7      1.105      1.414
REMARK  Name = 
REMARK  6 active torsions:
REMARK  status: ('A' for Active; 'I' for Inactive)
REMARK    1  A    between atoms: C_4  and  C_5
REMARK    2  A    between atoms: C_5  and  C_6
REMARK    3  A    between atoms: C_6  and  C_7
REMARK    4  A    between atoms: C_7  and  N_8
REMARK    5  A    between atoms: C_11  and  C_12
REMARK    6  A    between atoms: C_12  and  C_13
REMARK                            x       y       z     vdW  Elec       q    Type
REMARK                         _______ _______ _______ _____ _____    ______ ____
ROOT
ATOM      1  N   UNL     1       7.246   7.121  17.313  0.00  0.00    +0.000 NA
ATOM      2  C   UNL     1       7.733   6.242  18.393  0.00  0.00    +0.000 C 
ATOM      3  C   UNL     1       7.594   4.766  18.031  0.00  0.00    +0.000 C 
ATOM      4  C   UNL     1       6.142   4.389  17.729  0.00  0.00    +0.000 C 
ATOM      5  C   UNL     1       5.641   5.327  16.617  0.00  0.00    +0.000 C 
ATOM      6  C   UNL     1       5.852   6.812  16.952  0.00  0.00    +0.000 C 
ENDROOT
BRANCH   1   7
ATOM      7  C   UNL     1       7.393   8.548  17.666  0.00  0.00    +0.000 C 
BRANCH   7   8
ATOM      8  C   UNL     1       8.766   8.854  18.284  0.00  0.00    +0.000 C 
BRANCH   8   9
ATOM      9  C   UNL     1       8.761  10.094  19.183  0.00  0.00    +0.000 C 
BRANCH   9  13
ATOM     10  C   UNL     1      12.108  12.692  18.356  0.00  0.00    +0.000 A 
ATOM     11  C   UNL     1      11.939  12.152  19.629  0.00  0.00    +0.000 A 
ATOM     12  C   UNL     1      10.871  11.291  19.889  0.00  0.00    +0.000 A 
ATOM     13  C   UNL     1       9.961  10.962  18.875  0.00  0.00    +0.000 A 
ATOM     14  C   UNL     1      10.139  11.512  17.597  0.00  0.00    +0.000 A 
ATOM     15  C   UNL     1      11.209  12.373  17.340  0.00  0.00    +0.000 A 
ENDBRANCH   9  13
ENDBRANCH   8   9
ENDBRANCH   7   8
ENDBRANCH   1   7
BRANCH   4  16
ATOM     16  C   UNL     1       5.213   4.454  18.964  0.00  0.00    +0.000 C 
BRANCH  16  17
ATOM     17  C   UNL     1       3.829   3.876  18.775  0.00  0.00    +0.000 A 
ATOM     18  C   UNL     1       3.639   2.486  18.799  0.00  0.00    +0.000 A 
ATOM     19  C   UNL     1       2.360   1.940  18.671  0.00  0.00    +0.000 A 
ATOM     20  C   UNL     1       1.258   2.775  18.519  0.00  0.00    +0.000 A 
ATOM     21  C   UNL     1       1.434   4.158  18.489  0.00  0.00    +0.000 A 
ATOM     22  C   UNL     1       2.712   4.706  18.616  0.00  0.00    +0.000 A 
ENDBRANCH  16  17
ENDBRANCH   4  16
TORSDOF 6
ENDMDL
MODEL 6
REMARK VINA RESULT:      -7.7      1.313      1.908
REMARK  Name = 
REMARK  6 active torsions:
REMARK  status: ('A' for Active; 'I' for Inactive)
REMARK    1  A    between atoms: C_4  and  C_5
REMARK    2  A    between atoms: C_5  and  C_6
REMARK    3  A    between atoms: C_6  and  C_7
REMARK    4  A    between atoms: C_7  and  N_8
REMARK    5  A    between atoms: C_11  and  C_12
REMARK    6  A    between atoms: C_12  and  C_13
REMARK                            x       y       z     vdW  Elec       q    Type
REMARK                         _______ _______ _______ _____ _____    ______ ____
ROOT
ATOM      1  N   UNL     1       7.429   7.358  17.348  0.00  0.00    +0.000 NA
ATOM      2  C   UNL     1       7.802   6.485  18.477  0.00  0.00    +0.000 C 
ATOM      3  C   UNL     1       7.597   5.009  18.148  0.00  0.00    +0.000 C 
ATOM      4  C   UNL     1       6.145   4.707  17.771  0.00  0.00    +0.000 C 
ATOM      5  C   UNL     1       5.765   5.638  16.607  0.00  0.00    +0.000 C 
ATOM      6  C   UNL     1       6.043   7.119  16.914  0.00  0.00    +0.000 C 
ENDROOT
BRANCH   1   7
ATOM      7  C   UNL     1       7.640   8.785  17.672  0.00  0.00    +0.000 C 
BRANCH   7   8
ATOM      8  C   UNL     1       8.904   9.007  18.516  0.00  0.00    +0.000 C 
BRANCH   8   9
ATOM      9  C   UNL     1       8.865  10.303  19.331  0.00  0.00    +0.000 C 
BRANCH   9  13
ATOM     10  C   UNL     1      11.216  13.275  17.264  0.00  0.00    +0.000 A 
ATOM     11  C   UNL     1       9.830  13.404  17.335  0.00  0.00    +0.000 A 
ATOM     12  C   UNL     1       9.074  12.456  18.025  0.00  0.00    +0.000 A 
ATOM     13  C   UNL     1       9.697  11.369  18.653  0.00  0.00    +0.000 A 
ATOM     14  C   UNL     1      11.092  11.247  18.574  0.00  0.00    +0.000 A 
ATOM     15  C   UNL     1      11.847  12.197  17.882  0.00  0.00    +0.000 A 
ENDBRANCH   9  13
ENDBRANCH   8   9
ENDBRANCH   7   8
ENDBRANCH   1   7
BRANCH   4  16
ATOM     16  C   UNL     1       5.152   4.862  18.947  0.00  0.00    +0.000 C 
BRANCH  16  17
ATOM     17  C   UNL     1       3.839   4.127  18.798  0.00  0.00    +0.000 A 
ATOM     18  C   UNL     1       2.761   4.743  18.145  0.00  0.00    +0.000 A 
ATOM     19  C   UNL     1       1.557   4.061  17.960  0.00  0.00    +0.000 A 
ATOM     20  C   UNL     1       1.417   2.756  18.423  0.00  0.00    +0.000 A 
ATOM     21  C   UNL     1       2.480   2.135  19.079  0.00  0.00    +0.000 A 
ATOM     22  C   UNL     1       3.685   2.816  19.265  0.00  0.00    +0.000 A 
ENDBRANCH  16  17
ENDBRANCH   4  16
TORSDOF 6
ENDMDL
MODEL 7
REMARK VINA RESULT:      -7.6      0.877      1.445
REMARK  Name = 
REMARK  6 active torsions:
REMARK  status: ('A' for Active; 'I' for Inactive)
REMARK    1  A    between atoms: C_4  and  C_5
REMARK    2  A    between atoms: C_5  and  C_6
REMARK    3  A    between atoms: C_6  and  C_7
REMARK    4  A    between atoms: C_7  and  N_8
REMARK    5  A    between atoms: C_11  and  C_12
REMARK    6  A    between atoms: C_12  and  C_13
REMARK                            x       y       z     vdW  Elec       q    Type
REMARK                         _______ _______ _______ _____ _____    ______ ____
ROOT
ATOM      1  N   UNL     1       7.122   6.664  17.624  0.00  0.00    +0.000 NA
ATOM      2  C   UNL     1       6.032   6.153  18.476  0.00  0.00    +0.000 C 
ATOM      3  C   UNL     1       6.085   4.635  18.619  0.00  0.00    +0.000 C 
ATOM      4  C   UNL     1       5.999   3.932  17.262  0.00  0.00    +0.000 C 
ATOM      5  C   UNL     1       7.128   4.490  16.379  0.00  0.00    +0.000 C 
ATOM      6  C   UNL     1       7.116   6.026  16.297  0.00  0.00    +0.000 C 
ENDROOT
BRANCH   1   7
ATOM      7  C   UNL     1       7.068   8.136  17.498  0.00  0.00    +0.000 C 
BRANCH   7   8
ATOM      8  C   UNL     1       8.286   8.817  18.141  0.00  0.00    +0.000 C 
BRANCH   8   9
ATOM      9  C   UNL     1       8.505  10.251  17.650  0.00  0.00    +0.000 C 
BRANCH   9  13
ATOM     10  C   UNL     1      11.616  12.059  20.035  0.00  0.00    +0.000 A 
ATOM     11  C   UNL     1      11.729  12.025  18.647  0.00  0.00    +0.000 A 
ATOM     12  C   UNL     1      10.710  11.463  17.875  0.00  0.00    +0.000 A 
ATOM     13  C   UNL     1       9.568  10.929  18.486  0.00  0.00    +0.000 A 
ATOM     14  C   UNL     1       9.464  10.967  19.884  0.00  0.00    +0.000 A 
ATOM     15  C   UNL     1      10.485  11.530  20.655  0.00  0.00    +0.000 A 
ENDBRANCH   9  13
ENDBRANCH   8   9
ENDBRANCH   7   8
ENDBRANCH   1   7
BRANCH   4  16
ATOM     16  C   UNL     1       4.626   4.090  16.567  0.00  0.00    +0.000 C 
BRANCH  16  17
ATOM     17  C   UNL     1       3.429   3.625  17.364  0.00  0.00    +0.000 A 
ATOM     18  C   UNL     1       3.375   2.308  17.845  0.00  0.00    +0.000 A 
ATOM     19  C   UNL     1       2.298   1.876  18.622  0.00  0.00    +0.000 A 
ATOM     20  C   UNL     1       1.264   2.756  18.928  0.00  0.00    +0.000 A 
ATOM     21  C   UNL     1       1.303   4.066  18.452  0.00  0.00    +0.000 A 
ATOM     22  C   UNL     1       2.380   4.499  17.675  0.00  0.00    +0.000 A 
ENDBRANCH  16  17
ENDBRANCH   4  16
TORSDOF 6
ENDMDL
MODEL 8
REMARK VINA RESULT:      -7.6      0.923      1.691
REMARK  Name = 
REMARK  6 active torsions:
REMARK  status: ('A' for Active; 'I' for Inactive)
REMARK    1  A    between atoms: C_4  and  C_5
REMARK    2  A    between atoms: C_5  and  C_6
REMARK    3  A    between atoms: C_6  and  C_7
REMARK    4  A    between atoms: C_7  and  N_8
REMARK    5  A    between atoms: C_11  and  C_12
REMARK    6  A    between atoms: C_12  and  C_13
REMARK                            x       y       z     vdW  Elec       q    Type
REMARK                         _______ _______ _______ _____ _____    ______ ____
ROOT
ATOM      1  N   UNL     1       7.408   6.631  17.289  0.00  0.00    +0.000 NA
ATOM      2  C   UNL     1       7.519   6.342  18.731  0.00  0.00    +0.000 C 
ATOM      3  C   UNL     1       7.152   4.896  19.052  0.00  0.00    +0.000 C 
ATOM      4  C   UNL     1       5.727   4.559  18.606  0.00  0.00    +0.000 C 
ATOM      5  C   UNL     1       5.621   4.884  17.106  0.00  0.00    +0.000 C 
ATOM      6  C   UNL     1       6.063   6.319  16.776  0.00  0.00    +0.000 C 
ENDROOT
BRANCH   1   7
ATOM      7  C   UNL     1       7.775   8.030  16.986  0.00  0.00    +0.000 C 
BRANCH   7   8
ATOM      8  C   UNL     1       8.352   8.757  18.210  0.00  0.00    +0.000 C 
BRANCH   8   9
ATOM      9  C   UNL     1       8.234  10.281  18.119  0.00  0.00    +0.000 C 
BRANCH   9  13
ATOM     10  C   UNL     1      11.842  12.007  19.743  0.00  0.00    +0.000 A 
ATOM     11  C   UNL     1      11.723  11.796  18.371  0.00  0.00    +0.000 A 
ATOM     12  C   UNL     1      10.546  11.262  17.844  0.00  0.00    +0.000 A 
ATOM     13  C   UNL     1       9.475  10.933  18.686  0.00  0.00    +0.000 A 
ATOM     14  C   UNL     1       9.606  11.147  20.066  0.00  0.00    +0.000 A 
ATOM     15  C   UNL     1      10.785  11.682  20.591  0.00  0.00    +0.000 A 
ENDBRANCH   9  13
ENDBRANCH   8   9
ENDBRANCH   7   8
ENDBRANCH   1   7
BRANCH   4  16
ATOM     16  C   UNL     1       4.632   5.300  19.410  0.00  0.00    +0.000 C 
BRANCH  16  17
ATOM     17  C   UNL     1       3.397   4.492  19.735  0.00  0.00    +0.000 A 
ATOM     18  C   UNL     1       2.247   5.133  20.221  0.00  0.00    +0.000 A 
ATOM     19  C   UNL     1       1.084   4.406  20.483  0.00  0.00    +0.000 A 
ATOM     20  C   UNL     1       1.056   3.033  20.261  0.00  0.00    +0.000 A 
ATOM     21  C   UNL     1       2.194   2.383  19.783  0.00  0.00    +0.000 A 
ATOM     22  C   UNL     1       3.358   3.108  19.521  0.00  0.00    +0.000 A 
ENDBRANCH  16  17
ENDBRANCH   4  16
TORSDOF 6
ENDMDL
MODEL 9
REMARK VINA RESULT:      -7.6      1.033      1.797
REMARK  Name = 
REMARK  6 active torsions:
REMARK  status: ('A' for Active; 'I' for Inactive)
REMARK    1  A    between atoms: C_4  and  C_5
REMARK    2  A    between atoms: C_5  and  C_6
REMARK    3  A    between atoms: C_6  and  C_7
REMARK    4  A    between atoms: C_7  and  N_8
REMARK    5  A    between atoms: C_11  and  C_12
REMARK    6  A    between atoms: C_12  and  C_13
REMARK                            x       y       z     vdW  Elec       q    Type
REMARK                         _______ _______ _______ _____ _____    ______ ____
ROOT
ATOM      1  N   UNL     1       7.029   7.130  17.184  0.00  0.00    +0.000 NA
ATOM      2  C   UNL     1       7.336   5.816  16.588  0.00  0.00    +0.000 C 
ATOM      3  C   UNL     1       6.225   5.341  15.656  0.00  0.00    +0.000 C 
ATOM      4  C   UNL     1       4.881   5.234  16.380  0.00  0.00    +0.000 C 
ATOM      5  C   UNL     1       4.585   6.604  17.014  0.00  0.00    +0.000 C 
ATOM      6  C   UNL     1       5.739   7.115  17.893  0.00  0.00    +0.000 C 
ENDROOT
BRANCH   1   7
ATOM      7  C   UNL     1       8.114   7.587  18.078  0.00  0.00    +0.000 C 
BRANCH   7   8
ATOM      8  C   UNL     1       8.386   9.092  17.936  0.00  0.00    +0.000 C 
BRANCH   8   9
ATOM      9  C   UNL     1       8.787   9.760  19.255  0.00  0.00    +0.000 C 
BRANCH   9  13
ATOM     10  C   UNL     1      11.725  12.850  18.580  0.00  0.00    +0.000 A 
ATOM     11  C   UNL     1      11.526  12.340  19.861  0.00  0.00    +0.000 A 
ATOM     12  C   UNL     1      10.594  11.324  20.074  0.00  0.00    +0.000 A 
ATOM     13  C   UNL     1       9.851  10.805  19.005  0.00  0.00    +0.000 A 
ATOM     14  C   UNL     1      10.057  11.325  17.719  0.00  0.00    +0.000 A 
ATOM     15  C   UNL     1      10.991  12.343  17.508  0.00  0.00    +0.000 A 
ENDBRANCH   9  13
ENDBRANCH   8   9
ENDBRANCH   7   8
ENDBRANCH   1   7
BRANCH   4  16
ATOM     16  C   UNL     1       4.837   4.113  17.446  0.00  0.00    +0.000 C 
BRANCH  16  17
ATOM     17  C   UNL     1       3.539   3.985  18.210  0.00  0.00    +0.000 A 
ATOM     18  C   UNL     1       3.525   4.152  19.603  0.00  0.00    +0.000 A 
ATOM     19  C   UNL     1       2.327   4.081  20.317  0.00  0.00    +0.000 A 
ATOM     20  C   UNL     1       1.130   3.845  19.647  0.00  0.00    +0.000 A 
ATOM     21  C   UNL     1       1.132   3.671  18.263  0.00  0.00    +0.000 A 
ATOM     22  C   UNL     1       2.329   3.741  17.548  0.00  0.00    +0.000 A 
ENDBRANCH  16  17
ENDBRANCH   4  16
TORSDOF 6
ENDMDL
