MODEL 1
REMARK VINA RESULT:      -8.2      0.000      0.000
REMARK  Name = 
REMARK  3 active torsions:
REMARK  status: ('A' for Active; 'I' for Inactive)
REMARK    1  A    between atoms: C_1  and  N_2
REMARK    2  A    between atoms: C_13  and  N_14
REMARK    3  A    between atoms: C_19  and  C_20
REMARK                            x       y       z     vdW  Elec       q    Type
REMARK                         _______ _______ _______ _____ _____    ______ ____
ROOT
ATOM      1  C   UNL     1       0.096  10.033  21.797  0.00  0.00    +0.000 C 
ATOM      2  N   UNL     1       0.836   9.582  20.634  0.00  0.00    +0.000 N 
ATOM      3  C   UNL     1       1.220  10.459  19.598  0.00  0.00    +0.000 A 
ATOM      4  N   UNL     1       0.930  11.803  19.713  0.00  0.00    +0.000 N 
ATOM      5  C   UNL     1       1.529  12.649  20.735  0.00  0.00    +0.000 C 
ATOM      6  C   UNL     1       1.900  14.006  20.132  0.00  0.00    +0.000 C 
ATOM      7  C   UNL     1       0.703  14.689  19.412  0.00  0.00    +0.000 C 
ATOM      8  C   UNL     1       0.124  13.676  18.394  0.00  0.00    +0.000 C 
ATOM      9  C   UNL     1      -0.245  12.347  19.041  0.00  0.00    +0.000 C 
ATOM     10  C   UNL     1       1.197  15.947  18.672  0.00  0.00    +0.000 C 
ATOM     11  O   UNL     1       0.544  17.088  19.245  0.00  0.00    +0.000 OA
ATOM     12  C   UNL     1       0.120  16.716  20.557  0.00  0.00    +0.000 C 
ATOM     13  C   UNL     1      -0.309  15.250  20.440  0.00  0.00    +0.000 C 
ATOM     14  N   UNL     1       1.832  10.049  18.514  0.00  0.00    +0.000 NA
ATOM     15  C   UNL     1       2.119   8.730  18.497  0.00  0.00    +0.000 A 
ATOM     16  N   UNL     1       2.783   8.076  17.507  0.00  0.00    +0.000 N 
ATOM     17  N   UNL     1       3.012   6.779  17.787  0.00  0.00    +0.000 NA
ATOM     18  C   UNL     1       2.394   6.561  18.965  0.00  0.00    +0.000 A 
ATOM     19  C   UNL     1       1.837   7.783  19.441  0.00  0.00    +0.000 A 
ATOM     20  C   UNL     1       1.110   8.204  20.604  0.00  0.00    +0.000 A 
ATOM     21  O   UNL     1       0.762   7.431  21.496  0.00  0.00    +0.000 OA
ATOM     22  H   UNL     1       3.121   8.459  16.631  0.00  0.00    +0.000 HD
ENDROOT
BRANCH  18  23
ATOM     23  C   UNL     1       2.402   5.235  19.617  0.00  0.00    +0.000 A 
ATOM     24  C   UNL     1       1.184   4.751  20.140  0.00  0.00    +0.000 A 
ATOM     25  C   UNL     1       1.073   3.473  20.688  0.00  0.00    +0.000 A 
ATOM     26  C   UNL     1       2.201   2.671  20.791  0.00  0.00    +0.000 A 
ATOM     27  C   UNL     1       3.435   3.146  20.339  0.00  0.00    +0.000 A 
ATOM     28 CL   UNL     1       4.790   2.084  20.555  0.00  0.00    +0.000 Cl
ATOM     29  C   UNL     1       3.547   4.417  19.736  0.00  0.00    +0.000 A 
ATOM     30 CL   UNL     1       5.099   4.910  19.116  0.00  0.00    +0.000 Cl
ENDBRANCH  18  23
BRANCH  13  31
ATOM     31  N   UNL     1      -1.708  15.169  19.990  0.00  0.00    +0.000 NA
ATOM     32  H   UNL     1      -1.814  15.743  19.150  0.00  0.00    +0.000 HD
ATOM     33  H   UNL     1      -2.313  15.612  20.683  0.00  0.00    +0.000 HD
ENDBRANCH  13  31
TORSDOF 2
ENDMDL
MODEL 2
REMARK VINA RESULT:      -8.1      2.207      2.548
REMARK  Name = 
REMARK  3 active torsions:
REMARK  status: ('A' for Active; 'I' for Inactive)
REMARK    1  A    between atoms: C_1  and  N_2
REMARK    2  A    between atoms: C_13  and  N_14
REMARK    3  A    between atoms: C_19  and  C_20
REMARK                            x       y       z     vdW  Elec       q    Type
REMARK                         _______ _______ _______ _____ _____    ______ ____
ROOT
ATOM      1  C   UNL     1      -0.054   8.673  22.010  0.00  0.00    +0.000 C 
ATOM      2  N   UNL     1       0.625   8.849  20.741  0.00  0.00    +0.000 N 
ATOM      3  C   UNL     1       0.504  10.030  19.977  0.00  0.00    +0.000 A 
ATOM      4  N   UNL     1      -0.244  11.077  20.473  0.00  0.00    +0.000 N 
ATOM      5  C   UNL     1       0.138  11.816  21.668  0.00  0.00    +0.000 C 
ATOM      6  C   UNL     1      -0.112  13.311  21.455  0.00  0.00    +0.000 C 
ATOM      7  C   UNL     1      -1.566  13.616  20.999  0.00  0.00    +0.000 C 
ATOM      8  C   UNL     1      -1.867  12.737  19.761  0.00  0.00    +0.000 C 
ATOM      9  C   UNL     1      -1.620  11.257  20.025  0.00  0.00    +0.000 C 
ATOM     10  C   UNL     1      -1.686  15.105  20.622  0.00  0.00    +0.000 C 
ATOM     11  O   UNL     1      -2.626  15.718  21.515  0.00  0.00    +0.000 OA
ATOM     12  C   UNL     1      -2.688  14.903  22.686  0.00  0.00    +0.000 C 
ATOM     13  C   UNL     1      -2.556  13.463  22.180  0.00  0.00    +0.000 C 
ATOM     14  N   UNL     1       1.062  10.172  18.800  0.00  0.00    +0.000 NA
ATOM     15  C   UNL     1       1.813   9.121  18.404  0.00  0.00    +0.000 A 
ATOM     16  N   UNL     1       2.523   9.045  17.247  0.00  0.00    +0.000 N 
ATOM     17  N   UNL     1       3.254   7.919  17.145  0.00  0.00    +0.000 NA
ATOM     18  C   UNL     1       2.936   7.196  18.238  0.00  0.00    +0.000 A 
ATOM     19  C   UNL     1       2.040   7.942  19.056  0.00  0.00    +0.000 A 
ATOM     20  C   UNL     1       1.383   7.745  20.316  0.00  0.00    +0.000 A 
ATOM     21  O   UNL     1       1.479   6.706  20.969  0.00  0.00    +0.000 OA
ATOM     22  H   UNL     1       2.565   9.731  16.501  0.00  0.00    +0.000 HD
ENDROOT
BRANCH  18  23
ATOM     23  C   UNL     1       3.529   5.867  18.492  0.00  0.00    +0.000 A 
ATOM     24  C   UNL     1       4.827   5.819  19.045  0.00  0.00    +0.000 A 
ATOM     25  C   UNL     1       5.431   4.615  19.406  0.00  0.00    +0.000 A 
ATOM     26  C   UNL     1       4.776   3.418  19.156  0.00  0.00    +0.000 A 
ATOM     27  C   UNL     1       3.516   3.428  18.553  0.00  0.00    +0.000 A 
ATOM     28 CL   UNL     1       2.802   1.877  18.243  0.00  0.00    +0.000 Cl
ATOM     29  C   UNL     1       2.874   4.643  18.232  0.00  0.00    +0.000 A 
ATOM     30 CL   UNL     1       1.267   4.584  17.561  0.00  0.00    +0.000 Cl
ENDBRANCH  18  23
BRANCH  13  31
ATOM     31  N   UNL     1      -3.873  12.947  21.777  0.00  0.00    +0.000 NA
ATOM     32  H   UNL     1      -4.462  12.870  22.609  0.00  0.00    +0.000 HD
ATOM     33  H   UNL     1      -3.773  11.987  21.442  0.00  0.00    +0.000 HD
ENDBRANCH  13  31
TORSDOF 2
ENDMDL
MODEL 3
REMARK VINA RESULT:      -8.0      1.662      1.906
REMARK  Name = 
REMARK  3 active torsions:
REMARK  status: ('A' for Active; 'I' for Inactive)
REMARK    1  A    between atoms: C_1  and  N_2
REMARK    2  A    between atoms: C_13  and  N_14
REMARK    3  A    between atoms: C_19  and  C_20
REMARK                            x       y       z     vdW  Elec       q    Type
REMARK                         _______ _______ _______ _____ _____    ______ ____
ROOT
ATOM      1  C   UNL     1       0.192   8.948  21.326  0.00  0.00    +0.000 C 
ATOM      2  N   UNL     1       1.022   8.863  20.140  0.00  0.00    +0.000 N 
ATOM      3  C   UNL     1       1.166   9.942  19.241  0.00  0.00    +0.000 A 
ATOM      4  N   UNL     1       0.538  11.138  19.521  0.00  0.00    +0.000 N 
ATOM      5  C   UNL     1       0.899  11.963  20.665  0.00  0.00    +0.000 C 
ATOM      6  C   UNL     1       0.906  13.438  20.259  0.00  0.00    +0.000 C 
ATOM      7  C   UNL     1      -0.427  13.883  19.594  0.00  0.00    +0.000 C 
ATOM      8  C   UNL     1      -0.725  12.903  18.432  0.00  0.00    +0.000 C 
ATOM      9  C   UNL     1      -0.738  11.449  18.888  0.00  0.00    +0.000 C 
ATOM     10  C   UNL     1      -0.276  15.313  19.043  0.00  0.00    +0.000 C 
ATOM     11  O   UNL     1      -1.201  16.160  19.738  0.00  0.00    +0.000 OA
ATOM     12  C   UNL     1      -1.513  15.518  20.974  0.00  0.00    +0.000 C 
ATOM     13  C   UNL     1      -1.549  14.022  20.652  0.00  0.00    +0.000 C 
ATOM     14  N   UNL     1       1.862   9.853  18.135  0.00  0.00    +0.000 NA
ATOM     15  C   UNL     1       2.481   8.666  17.955  0.00  0.00    +0.000 A 
ATOM     16  N   UNL     1       3.290   8.345  16.910  0.00  0.00    +0.000 N 
ATOM     17  N   UNL     1       3.846   7.124  17.026  0.00  0.00    +0.000 NA
ATOM     18  C   UNL     1       3.307   6.598  18.144  0.00  0.00    +0.000 A 
ATOM     19  C   UNL     1       2.453   7.560  18.756  0.00  0.00    +0.000 A 
ATOM     20  C   UNL     1       1.643   7.619  19.939  0.00  0.00    +0.000 A 
ATOM     21  O   UNL     1       1.507   6.669  20.709  0.00  0.00    +0.000 OA
ATOM     22  H   UNL     1       3.517   8.916  16.104  0.00  0.00    +0.000 HD
ENDROOT
BRANCH  18  23
ATOM     23  C   UNL     1       3.658   5.243  18.615  0.00  0.00    +0.000 A 
ATOM     24  C   UNL     1       4.925   5.060  19.210  0.00  0.00    +0.000 A 
ATOM     25  C   UNL     1       5.308   3.840  19.769  0.00  0.00    +0.000 A 
ATOM     26  C   UNL     1       4.456   2.749  19.683  0.00  0.00    +0.000 A 
ATOM     27  C   UNL     1       3.220   2.881  19.046  0.00  0.00    +0.000 A 
ATOM     28 CL   UNL     1       2.249   1.446  18.953  0.00  0.00    +0.000 Cl
ATOM     29  C   UNL     1       2.801   4.123  18.523  0.00  0.00    +0.000 A 
ATOM     30 CL   UNL     1       1.212   4.237  17.819  0.00  0.00    +0.000 Cl
ENDBRANCH  18  23
BRANCH  13  31
ATOM     31  N   UNL     1      -2.880  13.647  20.147  0.00  0.00    +0.000 NA
ATOM     32  H   UNL     1      -2.878  13.732  19.128  0.00  0.00    +0.000 HD
ATOM     33  H   UNL     1      -3.567  14.334  20.462  0.00  0.00    +0.000 HD
ENDBRANCH  13  31
TORSDOF 2
ENDMDL
MODEL 4
REMARK VINA RESULT:      -8.0      2.632      3.633
REMARK  Name = 
REMARK  3 active torsions:
REMARK  status: ('A' for Active; 'I' for Inactive)
REMARK    1  A    between atoms: C_1  and  N_2
REMARK    2  A    between atoms: C_13  and  N_14
REMARK    3  A    between atoms: C_19  and  C_20
REMARK                            x       y       z     vdW  Elec       q    Type
REMARK                         _______ _______ _______ _____ _____    ______ ____
ROOT
ATOM      1  C   UNL     1       1.882  10.335  17.821  0.00  0.00    +0.000 C 
ATOM      2  N   UNL     1       1.821   9.201  18.724  0.00  0.00    +0.000 N 
ATOM      3  C   UNL     1       1.061   9.223  19.912  0.00  0.00    +0.000 A 
ATOM      4  N   UNL     1       0.305  10.338  20.206  0.00  0.00    +0.000 N 
ATOM      5  C   UNL     1      -0.833  10.749  19.397  0.00  0.00    +0.000 C 
ATOM      6  C   UNL     1      -1.975  11.212  20.306  0.00  0.00    +0.000 C 
ATOM      7  C   UNL     1      -1.529  12.307  21.316  0.00  0.00    +0.000 C 
ATOM      8  C   UNL     1      -0.288  11.774  22.073  0.00  0.00    +0.000 C 
ATOM      9  C   UNL     1       0.827  11.341  21.129  0.00  0.00    +0.000 C 
ATOM     10  C   UNL     1      -2.670  12.582  22.314  0.00  0.00    +0.000 C 
ATOM     11  O   UNL     1      -3.085  13.945  22.155  0.00  0.00    +0.000 OA
ATOM     12  C   UNL     1      -2.685  14.357  20.848  0.00  0.00    +0.000 C 
ATOM     13  C   UNL     1      -1.340  13.668  20.603  0.00  0.00    +0.000 C 
ATOM     14  N   UNL     1       1.052   8.228  20.765  0.00  0.00    +0.000 NA
ATOM     15  C   UNL     1       1.781   7.156  20.385  0.00  0.00    +0.000 A 
ATOM     16  N   UNL     1       1.895   5.990  21.075  0.00  0.00    +0.000 N 
ATOM     17  N   UNL     1       2.614   5.056  20.423  0.00  0.00    +0.000 NA
ATOM     18  C   UNL     1       3.057   5.669  19.308  0.00  0.00    +0.000 A 
ATOM     19  C   UNL     1       2.530   6.992  19.253  0.00  0.00    +0.000 A 
ATOM     20  C   UNL     1       2.602   8.097  18.342  0.00  0.00    +0.000 A 
ATOM     21  O   UNL     1       3.282   8.078  17.316  0.00  0.00    +0.000 OA
ATOM     22  H   UNL     1       1.496   5.764  21.979  0.00  0.00    +0.000 HD
ENDROOT
BRANCH  18  23
ATOM     23  C   UNL     1       3.904   4.973  18.319  0.00  0.00    +0.000 A 
ATOM     24  C   UNL     1       3.260   4.219  17.314  0.00  0.00    +0.000 A 
ATOM     25  C   UNL     1       3.972   3.605  16.283  0.00  0.00    +0.000 A 
ATOM     26  C   UNL     1       5.358   3.670  16.274  0.00  0.00    +0.000 A 
ATOM     27  C   UNL     1       6.029   4.355  17.289  0.00  0.00    +0.000 A 
ATOM     28 CL   UNL     1       7.762   4.338  17.210  0.00  0.00    +0.000 Cl
ATOM     29  C   UNL     1       5.316   5.024  18.307  0.00  0.00    +0.000 A 
ATOM     30 CL   UNL     1       6.213   5.932  19.493  0.00  0.00    +0.000 Cl
ENDBRANCH  18  23
BRANCH  13  31
ATOM     31  N   UNL     1      -0.249  14.478  21.167  0.00  0.00    +0.000 NA
ATOM     32  H   UNL     1      -0.136  15.318  20.595  0.00  0.00    +0.000 HD
ATOM     33  H   UNL     1       0.635  13.975  21.064  0.00  0.00    +0.000 HD
ENDBRANCH  13  31
TORSDOF 2
ENDMDL
MODEL 5
REMARK VINA RESULT:      -7.8      3.491      9.324
REMARK  Name = 
REMARK  3 active torsions:
REMARK  status: ('A' for Active; 'I' for Inactive)
REMARK    1  A    between atoms: C_1  and  N_2
REMARK    2  A    between atoms: C_13  and  N_14
REMARK    3  A    between atoms: C_19  and  C_20
REMARK                            x       y       z     vdW  Elec       q    Type
REMARK                         _______ _______ _______ _____ _____    ______ ____
ROOT
ATOM      1  C   UNL     1       1.831   8.663  17.679  0.00  0.00    +0.000 C 
ATOM      2  N   UNL     1       1.477   8.831  19.076  0.00  0.00    +0.000 N 
ATOM      3  C   UNL     1       1.601   7.786  20.016  0.00  0.00    +0.000 A 
ATOM      4  N   UNL     1       2.125   6.576  19.612  0.00  0.00    +0.000 N 
ATOM      5  C   UNL     1       3.506   6.429  19.173  0.00  0.00    +0.000 C 
ATOM      6  C   UNL     1       4.093   5.133  19.738  0.00  0.00    +0.000 C 
ATOM      7  C   UNL     1       3.222   3.888  19.412  0.00  0.00    +0.000 C 
ATOM      8  C   UNL     1       1.776   4.188  19.877  0.00  0.00    +0.000 C 
ATOM      9  C   UNL     1       1.228   5.477  19.276  0.00  0.00    +0.000 C 
ATOM     10  C   UNL     1       3.769   2.663  20.170  0.00  0.00    +0.000 C 
ATOM     11  O   UNL     1       4.199   1.695  19.203  0.00  0.00    +0.000 OA
ATOM     12  C   UNL     1       4.447   2.397  17.985  0.00  0.00    +0.000 C 
ATOM     13  C   UNL     1       3.373   3.487  17.924  0.00  0.00    +0.000 C 
ATOM     14  N   UNL     1       1.222   7.910  21.265  0.00  0.00    +0.000 NA
ATOM     15  C   UNL     1       0.761   9.136  21.593  0.00  0.00    +0.000 A 
ATOM     16  N   UNL     1       0.349   9.523  22.830  0.00  0.00    +0.000 N 
ATOM     17  N   UNL     1       0.022  10.827  22.896  0.00  0.00    +0.000 NA
ATOM     18  C   UNL     1       0.140  11.283  21.633  0.00  0.00    +0.000 A 
ATOM     19  C   UNL     1       0.622  10.236  20.795  0.00  0.00    +0.000 A 
ATOM     20  C   UNL     1       0.970  10.098  19.410  0.00  0.00    +0.000 A 
ATOM     21  O   UNL     1       0.843  11.007  18.591  0.00  0.00    +0.000 OA
ATOM     22  H   UNL     1       0.288   8.955  23.667  0.00  0.00    +0.000 HD
ENDROOT
BRANCH  18  23
ATOM     23  C   UNL     1      -0.148  12.688  21.281  0.00  0.00    +0.000 A 
ATOM     24  C   UNL     1      -1.492  13.117  21.329  0.00  0.00    +0.000 A 
ATOM     25  C   UNL     1      -1.850  14.446  21.105  0.00  0.00    +0.000 A 
ATOM     26  C   UNL     1      -0.876  15.369  20.756  0.00  0.00    +0.000 A 
ATOM     27  C   UNL     1       0.456  14.964  20.639  0.00  0.00    +0.000 A 
ATOM     28 CL   UNL     1       1.590  16.184  20.154  0.00  0.00    +0.000 Cl
ATOM     29  C   UNL     1       0.836  13.632  20.915  0.00  0.00    +0.000 A 
ATOM     30 CL   UNL     1       2.526  13.215  20.834  0.00  0.00    +0.000 Cl
ENDBRANCH  18  23
BRANCH  13  31
ATOM     31  N   UNL     1       2.138   2.945  17.335  0.00  0.00    +0.000 NA
ATOM     32  H   UNL     1       1.443   3.693  17.291  0.00  0.00    +0.000 HD
ATOM     33  H   UNL     1       1.734   2.254  17.970  0.00  0.00    +0.000 HD
ENDBRANCH  13  31
TORSDOF 2
ENDMDL
MODEL 6
REMARK VINA RESULT:      -7.8      3.867      9.485
REMARK  Name = 
REMARK  3 active torsions:
REMARK  status: ('A' for Active; 'I' for Inactive)
REMARK    1  A    between atoms: C_1  and  N_2
REMARK    2  A    between atoms: C_13  and  N_14
REMARK    3  A    between atoms: C_19  and  C_20
REMARK                            x       y       z     vdW  Elec       q    Type
REMARK                         _______ _______ _______ _____ _____    ______ ____
ROOT
ATOM      1  C   UNL     1       1.888   8.725  17.731  0.00  0.00    +0.000 C 
ATOM      2  N   UNL     1       1.513   8.866  19.125  0.00  0.00    +0.000 N 
ATOM      3  C   UNL     1       1.602   7.797  20.041  0.00  0.00    +0.000 A 
ATOM      4  N   UNL     1       2.111   6.588  19.616  0.00  0.00    +0.000 N 
ATOM      5  C   UNL     1       3.496   6.425  19.198  0.00  0.00    +0.000 C 
ATOM      6  C   UNL     1       4.051   5.106  19.741  0.00  0.00    +0.000 C 
ATOM      7  C   UNL     1       3.163   3.885  19.369  0.00  0.00    +0.000 C 
ATOM      8  C   UNL     1       1.714   4.201  19.817  0.00  0.00    +0.000 C 
ATOM      9  C   UNL     1       1.200   5.513  19.239  0.00  0.00    +0.000 C 
ATOM     10  C   UNL     1       3.675   2.633  20.107  0.00  0.00    +0.000 C 
ATOM     11  O   UNL     1       4.104   1.680  19.124  0.00  0.00    +0.000 OA
ATOM     12  C   UNL     1       4.385   2.406  17.928  0.00  0.00    +0.000 C 
ATOM     13  C   UNL     1       3.332   3.517  17.875  0.00  0.00    +0.000 C 
ATOM     14  N   UNL     1       1.204   7.897  21.286  0.00  0.00    +0.000 NA
ATOM     15  C   UNL     1       0.759   9.123  21.636  0.00  0.00    +0.000 A 
ATOM     16  N   UNL     1       0.333   9.488  22.875  0.00  0.00    +0.000 N 
ATOM     17  N   UNL     1       0.028  10.796  22.967  0.00  0.00    +0.000 NA
ATOM     18  C   UNL     1       0.176  11.280  21.718  0.00  0.00    +0.000 A 
ATOM     19  C   UNL     1       0.653  10.245  20.863  0.00  0.00    +0.000 A 
ATOM     20  C   UNL     1       1.023  10.134  19.481  0.00  0.00    +0.000 A 
ATOM     21  O   UNL     1       0.926  11.065  18.683  0.00  0.00    +0.000 OA
ATOM     22  H   UNL     1       0.246   8.901  23.697  0.00  0.00    +0.000 HD
ENDROOT
BRANCH  18  23
ATOM     23  C   UNL     1      -0.080  12.698  21.396  0.00  0.00    +0.000 A 
ATOM     24  C   UNL     1       1.032  13.524  21.125  0.00  0.00    +0.000 A 
ATOM     25  C   UNL     1       0.884  14.851  20.720  0.00  0.00    +0.000 A 
ATOM     26  C   UNL     1      -0.385  15.407  20.644  0.00  0.00    +0.000 A 
ATOM     27  C   UNL     1      -1.503  14.634  20.966  0.00  0.00    +0.000 A 
ATOM     28 CL   UNL     1      -3.039  15.436  20.883  0.00  0.00    +0.000 Cl
ATOM     29  C   UNL     1      -1.368  13.276  21.326  0.00  0.00    +0.000 A 
ATOM     30 CL   UNL     1      -2.810  12.347  21.630  0.00  0.00    +0.000 Cl
ENDBRANCH  18  23
BRANCH  13  31
ATOM     31  N   UNL     1       2.098   3.013  17.252  0.00  0.00    +0.000 NA
ATOM     32  H   UNL     1       2.265   2.060  16.923  0.00  0.00    +0.000 HD
ATOM     33  H   UNL     1       1.903   3.549  16.404  0.00  0.00    +0.000 HD
ENDBRANCH  13  31
TORSDOF 2
ENDMDL
MODEL 7
REMARK VINA RESULT:      -7.7      1.275      1.342
REMARK  Name = 
REMARK  3 active torsions:
REMARK  status: ('A' for Active; 'I' for Inactive)
REMARK    1  A    between atoms: C_1  and  N_2
REMARK    2  A    between atoms: C_13  and  N_14
REMARK    3  A    between atoms: C_19  and  C_20
REMARK                            x       y       z     vdW  Elec       q    Type
REMARK                         _______ _______ _______ _____ _____    ______ ____
ROOT
ATOM      1  C   UNL     1      -0.174  10.397  21.649  0.00  0.00    +0.000 C 
ATOM      2  N   UNL     1       0.650   9.941  20.547  0.00  0.00    +0.000 N 
ATOM      3  C   UNL     1       1.156  10.823  19.568  0.00  0.00    +0.000 A 
ATOM      4  N   UNL     1       0.904  12.174  19.686  0.00  0.00    +0.000 N 
ATOM      5  C   UNL     1       1.439  12.978  20.775  0.00  0.00    +0.000 C 
ATOM      6  C   UNL     1       1.910  14.332  20.237  0.00  0.00    +0.000 C 
ATOM      7  C   UNL     1       0.806  15.072  19.430  0.00  0.00    +0.000 C 
ATOM      8  C   UNL     1       0.285  14.100  18.342  0.00  0.00    +0.000 C 
ATOM      9  C   UNL     1      -0.187  12.774  18.926  0.00  0.00    +0.000 C 
ATOM     10  C   UNL     1       1.408  16.324  18.764  0.00  0.00    +0.000 C 
ATOM     11  O   UNL     1       0.747  17.477  19.302  0.00  0.00    +0.000 OA
ATOM     12  C   UNL     1       0.196  17.097  20.563  0.00  0.00    +0.000 C 
ATOM     13  C   UNL     1      -0.273  15.651  20.377  0.00  0.00    +0.000 C 
ATOM     14  N   UNL     1       1.847  10.411  18.533  0.00  0.00    +0.000 NA
ATOM     15  C   UNL     1       2.088   9.082  18.513  0.00  0.00    +0.000 A 
ATOM     16  N   UNL     1       2.814   8.423  17.571  0.00  0.00    +0.000 N 
ATOM     17  N   UNL     1       2.971   7.113  17.842  0.00  0.00    +0.000 NA
ATOM     18  C   UNL     1       2.243   6.897  18.956  0.00  0.00    +0.000 A 
ATOM     19  C   UNL     1       1.690   8.129  19.408  0.00  0.00    +0.000 A 
ATOM     20  C   UNL     1       0.877   8.555  20.510  0.00  0.00    +0.000 A 
ATOM     21  O   UNL     1       0.424   7.778  21.351  0.00  0.00    +0.000 OA
ATOM     22  H   UNL     1       3.242   8.809  16.737  0.00  0.00    +0.000 HD
ENDROOT
BRANCH  18  23
ATOM     23  C   UNL     1       2.147   5.560  19.576  0.00  0.00    +0.000 A 
ATOM     24  C   UNL     1       2.521   5.433  20.932  0.00  0.00    +0.000 A 
ATOM     25  C   UNL     1       2.376   4.233  21.628  0.00  0.00    +0.000 A 
ATOM     26  C   UNL     1       1.917   3.106  20.962  0.00  0.00    +0.000 A 
ATOM     27  C   UNL     1       1.597   3.182  19.605  0.00  0.00    +0.000 A 
ATOM     28 CL   UNL     1       1.075   1.706  18.856  0.00  0.00    +0.000 Cl
ATOM     29  C   UNL     1       1.691   4.404  18.904  0.00  0.00    +0.000 A 
ATOM     30 CL   UNL     1       1.193   4.447  17.235  0.00  0.00    +0.000 Cl
ENDBRANCH  18  23
BRANCH  13  31
ATOM     31  N   UNL     1      -1.628  15.630  19.803  0.00  0.00    +0.000 NA
ATOM     32  H   UNL     1      -2.048  16.554  19.927  0.00  0.00    +0.000 HD
ATOM     33  H   UNL     1      -2.218  15.002  20.352  0.00  0.00    +0.000 HD
ENDBRANCH  13  31
TORSDOF 2
ENDMDL
MODEL 8
REMARK VINA RESULT:      -7.6      3.178      4.458
REMARK  Name = 
REMARK  3 active torsions:
REMARK  status: ('A' for Active; 'I' for Inactive)
REMARK    1  A    between atoms: C_1  and  N_2
REMARK    2  A    between atoms: C_13  and  N_14
REMARK    3  A    between atoms: C_19  and  C_20
REMARK                            x       y       z     vdW  Elec       q    Type
REMARK                         _______ _______ _______ _____ _____    ______ ____
ROOT
ATOM      1  C   UNL     1      -1.682  11.650  17.935  0.00  0.00    +0.000 C 
ATOM      2  N   UNL     1      -1.045  11.087  19.111  0.00  0.00    +0.000 N 
ATOM      3  C   UNL     1      -1.344  11.532  20.416  0.00  0.00    +0.000 A 
ATOM      4  N   UNL     1      -2.311  12.499  20.592  0.00  0.00    +0.000 N 
ATOM      5  C   UNL     1      -3.715  12.268  20.284  0.00  0.00    +0.000 C 
ATOM      6  C   UNL     1      -4.594  12.894  21.369  0.00  0.00    +0.000 C 
ATOM      7  C   UNL     1      -4.271  14.395  21.610  0.00  0.00    +0.000 C 
ATOM      8  C   UNL     1      -2.749  14.514  21.874  0.00  0.00    +0.000 C 
ATOM      9  C   UNL     1      -1.916  13.893  20.761  0.00  0.00    +0.000 C 
ATOM     10  C   UNL     1      -5.054  14.901  22.837  0.00  0.00    +0.000 C 
ATOM     11  O   UNL     1      -5.954  15.928  22.401  0.00  0.00    +0.000 OA
ATOM     12  C   UNL     1      -6.165  15.738  21.002  0.00  0.00    +0.000 C 
ATOM     13  C   UNL     1      -4.815  15.267  20.452  0.00  0.00    +0.000 C 
ATOM     14  N   UNL     1      -0.727  11.074  21.478  0.00  0.00    +0.000 NA
ATOM     15  C   UNL     1       0.174  10.100  21.227  0.00  0.00    +0.000 A 
ATOM     16  N   UNL     1       0.909   9.440  22.162  0.00  0.00    +0.000 N 
ATOM     17  N   UNL     1       1.666   8.454  21.643  0.00  0.00    +0.000 NA
ATOM     18  C   UNL     1       1.482   8.535  20.311  0.00  0.00    +0.000 A 
ATOM     19  C   UNL     1       0.531   9.557  20.025  0.00  0.00    +0.000 A 
ATOM     20  C   UNL     1      -0.088  10.093  18.847  0.00  0.00    +0.000 A 
ATOM     21  O   UNL     1       0.190   9.714  17.710  0.00  0.00    +0.000 OA
ATOM     22  H   UNL     1       0.925   9.601  23.163  0.00  0.00    +0.000 HD
ENDROOT
BRANCH  18  23
ATOM     23  C   UNL     1       2.160   7.618  19.373  0.00  0.00    +0.000 A 
ATOM     24  C   UNL     1       2.858   8.186  18.284  0.00  0.00    +0.000 A 
ATOM     25  C   UNL     1       3.606   7.407  17.401  0.00  0.00    +0.000 A 
ATOM     26  C   UNL     1       3.616   6.027  17.544  0.00  0.00    +0.000 A 
ATOM     27  C   UNL     1       2.886   5.429  18.574  0.00  0.00    +0.000 A 
ATOM     28 CL   UNL     1       2.928   3.696  18.638  0.00  0.00    +0.000 Cl
ATOM     29  C   UNL     1       2.168   6.212  19.504  0.00  0.00    +0.000 A 
ATOM     30 CL   UNL     1       1.350   5.406  20.814  0.00  0.00    +0.000 Cl
ENDBRANCH  18  23
BRANCH  13  31
ATOM     31  N   UNL     1      -3.965  16.428  20.143  0.00  0.00    +0.000 NA
ATOM     32  H   UNL     1      -4.232  16.792  19.226  0.00  0.00    +0.000 HD
ATOM     33  H   UNL     1      -2.998  16.118  20.026  0.00  0.00    +0.000 HD
ENDBRANCH  13  31
TORSDOF 2
ENDMDL
MODEL 9
REMARK VINA RESULT:      -7.4      2.397      3.312
REMARK  Name = 
REMARK  3 active torsions:
REMARK  status: ('A' for Active; 'I' for Inactive)
REMARK    1  A    between atoms: C_1  and  N_2
REMARK    2  A    between atoms: C_13  and  N_14
REMARK    3  A    between atoms: C_19  and  C_20
REMARK                            x       y       z     vdW  Elec       q    Type
REMARK                         _______ _______ _______ _____ _____    ______ ____
ROOT
ATOM      1  C   UNL     1       1.171  11.303  17.792  0.00  0.00    +0.000 C 
ATOM      2  N   UNL     1       1.172  10.309  18.848  0.00  0.00    +0.000 N 
ATOM      3  C   UNL     1       0.611  10.557  20.119  0.00  0.00    +0.000 A 
ATOM      4  N   UNL     1      -0.007  11.766  20.356  0.00  0.00    +0.000 N 
ATOM      5  C   UNL     1      -1.227  12.170  19.670  0.00  0.00    +0.000 C 
ATOM      6  C   UNL     1      -2.176  12.852  20.659  0.00  0.00    +0.000 C 
ATOM      7  C   UNL     1      -1.500  14.025  21.425  0.00  0.00    +0.000 C 
ATOM      8  C   UNL     1      -0.196  13.484  22.062  0.00  0.00    +0.000 C 
ATOM      9  C   UNL     1       0.722  12.829  21.038  0.00  0.00    +0.000 C 
ATOM     10  C   UNL     1      -2.448  14.532  22.529  0.00  0.00    +0.000 C 
ATOM     11  O   UNL     1      -2.784  15.895  22.236  0.00  0.00    +0.000 OA
ATOM     12  C   UNL     1      -2.567  16.093  20.839  0.00  0.00    +0.000 C 
ATOM     13  C   UNL     1      -1.329  15.257  20.503  0.00  0.00    +0.000 C 
ATOM     14  N   UNL     1       0.666   9.688  21.098  0.00  0.00    +0.000 NA
ATOM     15  C   UNL     1       1.248   8.513  20.774  0.00  0.00    +0.000 A 
ATOM     16  N   UNL     1       1.387   7.443  21.602  0.00  0.00    +0.000 N 
ATOM     17  N   UNL     1       1.925   6.368  20.994  0.00  0.00    +0.000 NA
ATOM     18  C   UNL     1       2.230   6.786  19.749  0.00  0.00    +0.000 A 
ATOM     19  C   UNL     1       1.797   8.133  19.582  0.00  0.00    +0.000 A 
ATOM     20  C   UNL     1       1.803   9.097  18.519  0.00  0.00    +0.000 A 
ATOM     21  O   UNL     1       2.310   8.881  17.419  0.00  0.00    +0.000 OA
ATOM     22  H   UNL     1       1.118   7.376  22.577  0.00  0.00    +0.000 HD
ENDROOT
BRANCH  18  23
ATOM     23  C   UNL     1       2.860   5.890  18.759  0.00  0.00    +0.000 A 
ATOM     24  C   UNL     1       3.969   6.382  18.036  0.00  0.00    +0.000 A 
ATOM     25  C   UNL     1       4.686   5.579  17.149  0.00  0.00    +0.000 A 
ATOM     26  C   UNL     1       4.267   4.279  16.909  0.00  0.00    +0.000 A 
ATOM     27  C   UNL     1       3.136   3.782  17.561  0.00  0.00    +0.000 A 
ATOM     28 CL   UNL     1       2.670   2.160  17.158  0.00  0.00    +0.000 Cl
ATOM     29  C   UNL     1       2.434   4.569  18.500  0.00  0.00    +0.000 A 
ATOM     30 CL   UNL     1       1.085   3.856  19.341  0.00  0.00    +0.000 Cl
ENDBRANCH  18  23
BRANCH  13  31
ATOM     31  N   UNL     1      -0.108  16.030  20.780  0.00  0.00    +0.000 NA
ATOM     32  H   UNL     1      -0.294  16.665  21.559  0.00  0.00    +0.000 HD
ATOM     33  H   UNL     1       0.090  16.645  19.988  0.00  0.00    +0.000 HD
ENDBRANCH  13  31
TORSDOF 2
ENDMDL
