MODEL 1
REMARK VINA RESULT:      -7.0      0.000      0.000
REMARK  Name = 
REMARK  2 active torsions:
REMARK  status: ('A' for Active; 'I' for Inactive)
REMARK    1  A    between atoms: N_10  and  C_11
REMARK    2  A    between atoms: C_11  and  C_12
REMARK                            x       y       z     vdW  Elec       q    Type
REMARK                         _______ _______ _______ _____ _____    ______ ____
ROOT
ATOM      1  O   UNL     1       3.365   3.654  16.983  0.00  0.00    +0.000 OA
ATOM      2  C   UNL     1       4.401   4.297  17.077  0.00  0.00    +0.000 A 
ATOM      3  C   UNL     1       5.363   4.402  15.974  0.00  0.00    +0.000 A 
ATOM      4  C   UNL     1       5.290   3.803  14.727  0.00  0.00    +0.000 A 
ATOM      5  C   UNL     1       6.306   4.090  13.815  0.00  0.00    +0.000 A 
ATOM      6  C   UNL     1       7.325   4.963  14.196  0.00  0.00    +0.000 A 
ATOM      7  N   UNL     1       7.408   5.559  15.410  0.00  0.00    +0.000 NA
ATOM      8  C   UNL     1       6.414   5.252  16.264  0.00  0.00    +0.000 A 
ATOM      9  S   UNL     1       6.286   5.919  17.908  0.00  0.00    +0.000 S 
ATOM     10  N   UNL     1       4.824   5.052  18.161  0.00  0.00    +0.000 N 
ENDROOT
BRANCH  10  11
ATOM     11  C   UNL     1       3.975   5.346  19.294  0.00  0.00    +0.000 C 
BRANCH  11  12
ATOM     12  C   UNL     1       3.075   6.545  19.093  0.00  0.00    +0.000 A 
ATOM     13  C   UNL     1       2.234   6.988  20.124  0.00  0.00    +0.000 A 
ATOM     14  C   UNL     1       1.510   8.174  19.984  0.00  0.00    +0.000 A 
ATOM     15  C   UNL     1       1.611   8.914  18.808  0.00  0.00    +0.000 A 
ATOM     16 CL   UNL     1       0.782  10.416  18.668  0.00  0.00    +0.000 Cl
ATOM     17  C   UNL     1       2.398   8.456  17.754  0.00  0.00    +0.000 A 
ATOM     18  C   UNL     1       3.120   7.267  17.891  0.00  0.00    +0.000 A 
ENDBRANCH  11  12
ENDBRANCH  10  11
TORSDOF 2
ENDMDL
MODEL 2
REMARK VINA RESULT:      -7.0      3.682      6.417
REMARK  Name = 
REMARK  2 active torsions:
REMARK  status: ('A' for Active; 'I' for Inactive)
REMARK    1  A    between atoms: N_10  and  C_11
REMARK    2  A    between atoms: C_11  and  C_12
REMARK                            x       y       z     vdW  Elec       q    Type
REMARK                         _______ _______ _______ _____ _____    ______ ____
ROOT
ATOM      1  O   UNL     1       5.689   3.613  19.063  0.00  0.00    +0.000 OA
ATOM      2  C   UNL     1       4.578   4.112  18.949  0.00  0.00    +0.000 A 
ATOM      3  C   UNL     1       3.439   3.690  19.773  0.00  0.00    +0.000 A 
ATOM      4  C   UNL     1       3.413   2.694  20.735  0.00  0.00    +0.000 A 
ATOM      5  C   UNL     1       2.219   2.503  21.430  0.00  0.00    +0.000 A 
ATOM      6  C   UNL     1       1.128   3.320  21.133  0.00  0.00    +0.000 A 
ATOM      7  N   UNL     1       1.139   4.300  20.197  0.00  0.00    +0.000 NA
ATOM      8  C   UNL     1       2.306   4.450  19.543  0.00  0.00    +0.000 A 
ATOM      9  S   UNL     1       2.581   5.677  18.285  0.00  0.00    +0.000 S 
ATOM     10  N   UNL     1       4.208   5.149  18.106  0.00  0.00    +0.000 N 
ENDROOT
BRANCH  10  11
ATOM     11  C   UNL     1       5.163   5.937  17.360  0.00  0.00    +0.000 C 
BRANCH  11  12
ATOM     12  C   UNL     1       5.660   5.267  16.098  0.00  0.00    +0.000 A 
ATOM     13  C   UNL     1       4.805   4.461  15.332  0.00  0.00    +0.000 A 
ATOM     14  C   UNL     1       5.225   3.960  14.098  0.00  0.00    +0.000 A 
ATOM     15  C   UNL     1       6.505   4.248  13.631  0.00  0.00    +0.000 A 
ATOM     16 CL   UNL     1       6.992   3.698  12.075  0.00  0.00    +0.000 Cl
ATOM     17  C   UNL     1       7.385   4.999  14.407  0.00  0.00    +0.000 A 
ATOM     18  C   UNL     1       6.967   5.499  15.644  0.00  0.00    +0.000 A 
ENDBRANCH  11  12
ENDBRANCH  10  11
TORSDOF 2
ENDMDL
MODEL 3
REMARK VINA RESULT:      -7.0      3.364      6.211
REMARK  Name = 
REMARK  2 active torsions:
REMARK  status: ('A' for Active; 'I' for Inactive)
REMARK    1  A    between atoms: N_10  and  C_11
REMARK    2  A    between atoms: C_11  and  C_12
REMARK                            x       y       z     vdW  Elec       q    Type
REMARK                         _______ _______ _______ _____ _____    ______ ____
ROOT
ATOM      1  O   UNL     1       2.651   6.716  18.071  0.00  0.00    +0.000 OA
ATOM      2  C   UNL     1       3.304   5.809  18.567  0.00  0.00    +0.000 A 
ATOM      3  C   UNL     1       2.694   4.770  19.405  0.00  0.00    +0.000 A 
ATOM      4  C   UNL     1       1.367   4.660  19.786  0.00  0.00    +0.000 A 
ATOM      5  C   UNL     1       1.007   3.551  20.552  0.00  0.00    +0.000 A 
ATOM      6  C   UNL     1       1.987   2.614  20.881  0.00  0.00    +0.000 A 
ATOM      7  N   UNL     1       3.287   2.706  20.513  0.00  0.00    +0.000 NA
ATOM      8  C   UNL     1       3.597   3.793  19.782  0.00  0.00    +0.000 A 
ATOM      9  S   UNL     1       5.229   4.131  19.161  0.00  0.00    +0.000 S 
ATOM     10  N   UNL     1       4.660   5.566  18.404  0.00  0.00    +0.000 N 
ENDROOT
BRANCH  10  11
ATOM     11  C   UNL     1       5.475   6.266  17.438  0.00  0.00    +0.000 C 
BRANCH  11  12
ATOM     12  C   UNL     1       5.798   5.455  16.203  0.00  0.00    +0.000 A 
ATOM     13  C   UNL     1       4.796   4.734  15.538  0.00  0.00    +0.000 A 
ATOM     14  C   UNL     1       5.068   4.101  14.323  0.00  0.00    +0.000 A 
ATOM     15  C   UNL     1       6.347   4.172  13.775  0.00  0.00    +0.000 A 
ATOM     16 CL   UNL     1       6.660   3.461  12.240  0.00  0.00    +0.000 Cl
ATOM     17  C   UNL     1       7.367   4.835  14.454  0.00  0.00    +0.000 A 
ATOM     18  C   UNL     1       7.096   5.466  15.671  0.00  0.00    +0.000 A 
ENDBRANCH  11  12
ENDBRANCH  10  11
TORSDOF 2
ENDMDL
MODEL 4
REMARK VINA RESULT:      -6.9      3.695      5.749
REMARK  Name = 
REMARK  2 active torsions:
REMARK  status: ('A' for Active; 'I' for Inactive)
REMARK    1  A    between atoms: N_10  and  C_11
REMARK    2  A    between atoms: C_11  and  C_12
REMARK                            x       y       z     vdW  Elec       q    Type
REMARK                         _______ _______ _______ _____ _____    ______ ____
ROOT
ATOM      1  O   UNL     1       5.388   3.162  19.731  0.00  0.00    +0.000 OA
ATOM      2  C   UNL     1       4.361   3.176  19.068  0.00  0.00    +0.000 A 
ATOM      3  C   UNL     1       3.030   3.073  19.679  0.00  0.00    +0.000 A 
ATOM      4  C   UNL     1       2.725   2.915  21.021  0.00  0.00    +0.000 A 
ATOM      5  C   UNL     1       1.376   2.891  21.375  0.00  0.00    +0.000 A 
ATOM      6  C   UNL     1       0.414   3.035  20.374  0.00  0.00    +0.000 A 
ATOM      7  N   UNL     1       0.698   3.192  19.059  0.00  0.00    +0.000 NA
ATOM      8  C   UNL     1       2.009   3.204  18.755  0.00  0.00    +0.000 A 
ATOM      9  S   UNL     1       2.639   3.417  17.105  0.00  0.00    +0.000 S 
ATOM     10  N   UNL     1       4.251   3.335  17.694  0.00  0.00    +0.000 N 
ENDROOT
BRANCH  10  11
ATOM     11  C   UNL     1       5.366   3.711  16.854  0.00  0.00    +0.000 C 
BRANCH  11  12
ATOM     12  C   UNL     1       5.996   5.035  17.225  0.00  0.00    +0.000 A 
ATOM     13  C   UNL     1       7.236   5.079  17.878  0.00  0.00    +0.000 A 
ATOM     14  C   UNL     1       7.879   6.301  18.093  0.00  0.00    +0.000 A 
ATOM     15  C   UNL     1       7.278   7.484  17.671  0.00  0.00    +0.000 A 
ATOM     16 CL   UNL     1       8.106   8.980  17.864  0.00  0.00    +0.000 Cl
ATOM     17  C   UNL     1       6.020   7.460  17.074  0.00  0.00    +0.000 A 
ATOM     18  C   UNL     1       5.374   6.239  16.861  0.00  0.00    +0.000 A 
ENDBRANCH  11  12
ENDBRANCH  10  11
TORSDOF 2
ENDMDL
MODEL 5
REMARK VINA RESULT:      -6.9      0.852      1.418
REMARK  Name = 
REMARK  2 active torsions:
REMARK  status: ('A' for Active; 'I' for Inactive)
REMARK    1  A    between atoms: N_10  and  C_11
REMARK    2  A    between atoms: C_11  and  C_12
REMARK                            x       y       z     vdW  Elec       q    Type
REMARK                         _______ _______ _______ _____ _____    ______ ____
ROOT
ATOM      1  O   UNL     1       2.704   4.078  17.094  0.00  0.00    +0.000 OA
ATOM      2  C   UNL     1       3.789   4.493  17.476  0.00  0.00    +0.000 A 
ATOM      3  C   UNL     1       4.980   4.488  16.618  0.00  0.00    +0.000 A 
ATOM      4  C   UNL     1       5.087   4.008  15.323  0.00  0.00    +0.000 A 
ATOM      5  C   UNL     1       6.318   4.155  14.683  0.00  0.00    +0.000 A 
ATOM      6  C   UNL     1       7.362   4.778  15.366  0.00  0.00    +0.000 A 
ATOM      7  N   UNL     1       7.271   5.254  16.632  0.00  0.00    +0.000 NA
ATOM      8  C   UNL     1       6.071   5.088  17.218  0.00  0.00    +0.000 A 
ATOM      9  S   UNL     1       5.693   5.643  18.865  0.00  0.00    +0.000 S 
ATOM     10  N   UNL     1       4.081   5.067  18.705  0.00  0.00    +0.000 N 
ENDROOT
BRANCH  10  11
ATOM     11  C   UNL     1       3.064   5.439  19.662  0.00  0.00    +0.000 C 
BRANCH  11  12
ATOM     12  C   UNL     1       2.508   6.831  19.458  0.00  0.00    +0.000 A 
ATOM     13  C   UNL     1       2.588   7.456  18.206  0.00  0.00    +0.000 A 
ATOM     14  C   UNL     1       1.951   8.680  17.986  0.00  0.00    +0.000 A 
ATOM     15  C   UNL     1       1.246   9.291  19.019  0.00  0.00    +0.000 A 
ATOM     16 CL   UNL     1       0.395  10.758  18.725  0.00  0.00    +0.000 Cl
ATOM     17  C   UNL     1       1.207   8.709  20.284  0.00  0.00    +0.000 A 
ATOM     18  C   UNL     1       1.846   7.487  20.507  0.00  0.00    +0.000 A 
ENDBRANCH  11  12
ENDBRANCH  10  11
TORSDOF 2
ENDMDL
MODEL 6
REMARK VINA RESULT:      -6.8      3.372      6.195
REMARK  Name = 
REMARK  2 active torsions:
REMARK  status: ('A' for Active; 'I' for Inactive)
REMARK    1  A    between atoms: N_10  and  C_11
REMARK    2  A    between atoms: C_11  and  C_12
REMARK                            x       y       z     vdW  Elec       q    Type
REMARK                         _______ _______ _______ _____ _____    ______ ____
ROOT
ATOM      1  O   UNL     1       3.077   6.977  18.876  0.00  0.00    +0.000 OA
ATOM      2  C   UNL     1       3.561   5.876  19.099  0.00  0.00    +0.000 A 
ATOM      3  C   UNL     1       2.793   4.792  19.722  0.00  0.00    +0.000 A 
ATOM      4  C   UNL     1       1.483   4.832  20.170  0.00  0.00    +0.000 A 
ATOM      5  C   UNL     1       0.944   3.653  20.686  0.00  0.00    +0.000 A 
ATOM      6  C   UNL     1       1.737   2.506  20.716  0.00  0.00    +0.000 A 
ATOM      7  N   UNL     1       3.018   2.451  20.278  0.00  0.00    +0.000 NA
ATOM      8  C   UNL     1       3.505   3.608  19.794  0.00  0.00    +0.000 A 
ATOM      9  S   UNL     1       5.150   3.791  19.142  0.00  0.00    +0.000 S 
ATOM     10  N   UNL     1       4.840   5.442  18.780  0.00  0.00    +0.000 N 
ENDROOT
BRANCH  10  11
ATOM     11  C   UNL     1       5.740   6.198  17.939  0.00  0.00    +0.000 C 
BRANCH  11  12
ATOM     12  C   UNL     1       5.910   5.625  16.550  0.00  0.00    +0.000 A 
ATOM     13  C   UNL     1       7.185   5.488  15.983  0.00  0.00    +0.000 A 
ATOM     14  C   UNL     1       7.349   4.832  14.761  0.00  0.00    +0.000 A 
ATOM     15  C   UNL     1       6.238   4.324  14.092  0.00  0.00    +0.000 A 
ATOM     16 CL   UNL     1       6.449   3.446  12.627  0.00  0.00    +0.000 Cl
ATOM     17  C   UNL     1       4.959   4.504  14.614  0.00  0.00    +0.000 A 
ATOM     18  C   UNL     1       4.794   5.163  15.836  0.00  0.00    +0.000 A 
ENDBRANCH  11  12
ENDBRANCH  10  11
TORSDOF 2
ENDMDL
MODEL 7
REMARK VINA RESULT:      -6.8      3.243      4.508
REMARK  Name = 
REMARK  2 active torsions:
REMARK  status: ('A' for Active; 'I' for Inactive)
REMARK    1  A    between atoms: N_10  and  C_11
REMARK    2  A    between atoms: C_11  and  C_12
REMARK                            x       y       z     vdW  Elec       q    Type
REMARK                         _______ _______ _______ _____ _____    ______ ____
ROOT
ATOM      1  O   UNL     1       5.106   6.803  15.462  0.00  0.00    +0.000 OA
ATOM      2  C   UNL     1       5.741   6.227  16.335  0.00  0.00    +0.000 A 
ATOM      3  C   UNL     1       6.751   6.910  17.152  0.00  0.00    +0.000 A 
ATOM      4  C   UNL     1       7.163   8.229  17.061  0.00  0.00    +0.000 A 
ATOM      5  C   UNL     1       8.110   8.672  17.984  0.00  0.00    +0.000 A 
ATOM      6  C   UNL     1       8.581   7.780  18.948  0.00  0.00    +0.000 A 
ATOM      7  N   UNL     1       8.185   6.488  19.051  0.00  0.00    +0.000 NA
ATOM      8  C   UNL     1       7.276   6.096  18.139  0.00  0.00    +0.000 A 
ATOM      9  S   UNL     1       6.585   4.458  18.077  0.00  0.00    +0.000 S 
ATOM     10  N   UNL     1       5.603   4.907  16.739  0.00  0.00    +0.000 N 
ENDROOT
BRANCH  10  11
ATOM     11  C   UNL     1       4.521   4.057  16.297  0.00  0.00    +0.000 C 
BRANCH  11  12
ATOM     12  C   UNL     1       3.519   3.724  17.379  0.00  0.00    +0.000 A 
ATOM     13  C   UNL     1       3.432   2.424  17.898  0.00  0.00    +0.000 A 
ATOM     14  C   UNL     1       2.606   2.153  18.991  0.00  0.00    +0.000 A 
ATOM     15  C   UNL     1       1.851   3.176  19.561  0.00  0.00    +0.000 A 
ATOM     16 CL   UNL     1       0.897   2.860  20.957  0.00  0.00    +0.000 Cl
ATOM     17  C   UNL     1       1.884   4.459  19.020  0.00  0.00    +0.000 A 
ATOM     18  C   UNL     1       2.708   4.731  17.924  0.00  0.00    +0.000 A 
ENDBRANCH  11  12
ENDBRANCH  10  11
TORSDOF 2
ENDMDL
MODEL 8
REMARK VINA RESULT:      -6.8      3.577      5.745
REMARK  Name = 
REMARK  2 active torsions:
REMARK  status: ('A' for Active; 'I' for Inactive)
REMARK    1  A    between atoms: N_10  and  C_11
REMARK    2  A    between atoms: C_11  and  C_12
REMARK                            x       y       z     vdW  Elec       q    Type
REMARK                         _______ _______ _______ _____ _____    ______ ____
ROOT
ATOM      1  O   UNL     1       5.503   3.121  19.349  0.00  0.00    +0.000 OA
ATOM      2  C   UNL     1       4.374   3.127  18.879  0.00  0.00    +0.000 A 
ATOM      3  C   UNL     1       3.172   3.065  19.720  0.00  0.00    +0.000 A 
ATOM      4  C   UNL     1       3.110   2.960  21.099  0.00  0.00    +0.000 A 
ATOM      5  C   UNL     1       1.845   2.968  21.688  0.00  0.00    +0.000 A 
ATOM      6  C   UNL     1       0.722   3.091  20.870  0.00  0.00    +0.000 A 
ATOM      7  N   UNL     1       0.768   3.197  19.520  0.00  0.00    +0.000 NA
ATOM      8  C   UNL     1       2.004   3.179  18.988  0.00  0.00    +0.000 A 
ATOM      9  S   UNL     1       2.332   3.323  17.246  0.00  0.00    +0.000 S 
ATOM     10  N   UNL     1       4.023   3.238  17.541  0.00  0.00    +0.000 N 
ENDROOT
BRANCH  10  11
ATOM     11  C   UNL     1       4.973   3.567  16.503  0.00  0.00    +0.000 C 
BRANCH  11  12
ATOM     12  C   UNL     1       5.676   4.890  16.710  0.00  0.00    +0.000 A 
ATOM     13  C   UNL     1       4.959   6.095  16.674  0.00  0.00    +0.000 A 
ATOM     14  C   UNL     1       5.585   7.299  17.003  0.00  0.00    +0.000 A 
ATOM     15  C   UNL     1       6.932   7.308  17.355  0.00  0.00    +0.000 A 
ATOM     16 CL   UNL     1       7.681   8.780  17.839  0.00  0.00    +0.000 Cl
ATOM     17  C   UNL     1       7.671   6.127  17.339  0.00  0.00    +0.000 A 
ATOM     18  C   UNL     1       7.047   4.922  17.007  0.00  0.00    +0.000 A 
ENDBRANCH  11  12
ENDBRANCH  10  11
TORSDOF 2
ENDMDL
MODEL 9
REMARK VINA RESULT:      -6.7      3.727      6.433
REMARK  Name = 
REMARK  2 active torsions:
REMARK  status: ('A' for Active; 'I' for Inactive)
REMARK    1  A    between atoms: N_10  and  C_11
REMARK    2  A    between atoms: C_11  and  C_12
REMARK                            x       y       z     vdW  Elec       q    Type
REMARK                         _______ _______ _______ _____ _____    ______ ____
ROOT
ATOM      1  O   UNL     1       5.727   3.757  19.429  0.00  0.00    +0.000 OA
ATOM      2  C   UNL     1       4.600   4.145  19.155  0.00  0.00    +0.000 A 
ATOM      3  C   UNL     1       3.410   3.667  19.870  0.00  0.00    +0.000 A 
ATOM      4  C   UNL     1       3.353   2.729  20.886  0.00  0.00    +0.000 A 
ATOM      5  C   UNL     1       2.104   2.468  21.452  0.00  0.00    +0.000 A 
ATOM      6  C   UNL     1       0.992   3.164  20.978  0.00  0.00    +0.000 A 
ATOM      7  N   UNL     1       1.033   4.087  19.987  0.00  0.00    +0.000 NA
ATOM      8  C   UNL     1       2.253   4.306  19.462  0.00  0.00    +0.000 A 
ATOM      9  S   UNL     1       2.572   5.481  18.165  0.00  0.00    +0.000 S 
ATOM     10  N   UNL     1       4.247   5.095  18.208  0.00  0.00    +0.000 N 
ENDROOT
BRANCH  10  11
ATOM     11  C   UNL     1       5.215   5.924  17.526  0.00  0.00    +0.000 C 
BRANCH  11  12
ATOM     12  C   UNL     1       5.616   5.406  16.163  0.00  0.00    +0.000 A 
ATOM     13  C   UNL     1       6.906   5.633  15.663  0.00  0.00    +0.000 A 
ATOM     14  C   UNL     1       7.315   5.035  14.468  0.00  0.00    +0.000 A 
ATOM     15  C   UNL     1       6.433   4.222  13.761  0.00  0.00    +0.000 A 
ATOM     16 CL   UNL     1       6.964   3.423  12.333  0.00  0.00    +0.000 Cl
ATOM     17  C   UNL     1       5.130   4.035  14.216  0.00  0.00    +0.000 A 
ATOM     18  C   UNL     1       4.718   4.635  15.409  0.00  0.00    +0.000 A 
ENDBRANCH  11  12
ENDBRANCH  10  11
TORSDOF 2
ENDMDL
