MODEL 1
REMARK VINA RESULT:      -9.0      0.000      0.000
REMARK  Name = 
REMARK  6 active torsions:
REMARK  status: ('A' for Active; 'I' for Inactive)
REMARK    1  A    between atoms: C_1  and  C_2
REMARK    2  A    between atoms: N_11  and  C_12
REMARK    3  A    between atoms: C_12  and  C_13
REMARK    4  A    between atoms: N_15  and  C_16
REMARK    5  A    between atoms: C_20  and  S_21
REMARK    6  A    between atoms: S_21  and  N_24
REMARK                            x       y       z     vdW  Elec       q    Type
REMARK                         _______ _______ _______ _____ _____    ______ ____
ROOT
ATOM      1  C   UNL     1       2.173   8.408  18.609  0.00  0.00    +0.000 C 
ATOM      2  O   UNL     1       1.899   7.898  19.697  0.00  0.00    +0.000 OA
ATOM      3  N   UNL     1       2.975   7.835  17.625  0.00  0.00    +0.000 N 
ATOM      4  H   UNL     1       2.968   8.283  16.714  0.00  0.00    +0.000 HD
ENDROOT
BRANCH   3   5
ATOM      5  C   UNL     1       3.737   6.643  17.756  0.00  0.00    +0.000 A 
ATOM      6  C   UNL     1       5.134   6.630  17.660  0.00  0.00    +0.000 A 
ATOM      7  C   UNL     1       5.865   5.442  17.758  0.00  0.00    +0.000 A 
ATOM      8  C   UNL     1       5.207   4.230  17.926  0.00  0.00    +0.000 A 
ATOM      9  C   UNL     1       3.813   4.218  18.002  0.00  0.00    +0.000 A 
ATOM     10  C   UNL     1       3.075   5.418  17.929  0.00  0.00    +0.000 A 
BRANCH   9  11
ATOM     11  S   UNL     1       2.958   2.659  17.929  0.00  0.00    +0.000 S 
ATOM     12  O   UNL     1       1.869   2.843  16.985  0.00  0.00    +0.000 OA
ATOM     13  O   UNL     1       3.927   1.601  17.744  0.00  0.00    +0.000 OA
BRANCH  11  14
ATOM     14  N   UNL     1       2.271   2.463  19.478  0.00  0.00    +0.000 NA
ATOM     15  C   UNL     1       0.884   2.975  19.664  0.00  0.00    +0.000 C 
ATOM     16  C   UNL     1       1.041   4.230  20.511  0.00  0.00    +0.000 C 
ATOM     17  C   UNL     1       2.166   3.854  21.453  0.00  0.00    +0.000 C 
ATOM     18  C   UNL     1       3.110   3.042  20.578  0.00  0.00    +0.000 C 
ENDBRANCH  11  14
ENDBRANCH   9  11
ENDBRANCH   3   5
BRANCH   1  19
ATOM     19  C   UNL     1       1.603   9.796  18.256  0.00  0.00    +0.000 C 
BRANCH  19  30
ATOM     20  C   UNL     1      -4.548  11.366  16.658  0.00  0.00    +0.000 C 
ATOM     21  C   UNL     1      -3.251  11.043  17.336  0.00  0.00    +0.000 A 
ATOM     22  C   UNL     1      -2.497   9.941  16.945  0.00  0.00    +0.000 A 
ATOM     23  C   UNL     1      -1.273   9.666  17.561  0.00  0.00    +0.000 A 
ATOM     24  C   UNL     1      -0.748  10.475  18.582  0.00  0.00    +0.000 A 
ATOM     25  C   UNL     1      -1.551  11.548  19.017  0.00  0.00    +0.000 A 
ATOM     26  C   UNL     1      -2.786  11.824  18.395  0.00  0.00    +0.000 A 
ATOM     27  C   UNL     1      -1.138  12.401  20.187  0.00  0.00    +0.000 C 
ATOM     28  C   UNL     1       0.364  12.368  20.392  0.00  0.00    +0.000 C 
ATOM     29  C   UNL     1       0.876  10.937  20.372  0.00  0.00    +0.000 C 
ATOM     30  N   UNL     1       0.496  10.189  19.159  0.00  0.00    +0.000 N 
ENDBRANCH  19  30
ENDBRANCH   1  19
TORSDOF 5
ENDMDL
MODEL 2
REMARK VINA RESULT:      -8.6      3.049      8.725
REMARK  Name = 
REMARK  6 active torsions:
REMARK  status: ('A' for Active; 'I' for Inactive)
REMARK    1  A    between atoms: C_1  and  C_2
REMARK    2  A    between atoms: N_11  and  C_12
REMARK    3  A    between atoms: C_12  and  C_13
REMARK    4  A    between atoms: N_15  and  C_16
REMARK    5  A    between atoms: C_20  and  S_21
REMARK    6  A    between atoms: S_21  and  N_24
REMARK                            x       y       z     vdW  Elec       q    Type
REMARK                         _______ _______ _______ _____ _____    ______ ____
ROOT
ATOM      1  C   UNL     1       1.885   5.317  20.663  0.00  0.00    +0.000 C 
ATOM      2  O   UNL     1       0.680   5.131  20.484  0.00  0.00    +0.000 OA
ATOM      3  N   UNL     1       2.564   6.510  20.430  0.00  0.00    +0.000 N 
ATOM      4  H   UNL     1       3.511   6.573  20.790  0.00  0.00    +0.000 HD
ENDROOT
BRANCH   3   5
ATOM      5  C   UNL     1       2.029   7.669  19.807  0.00  0.00    +0.000 A 
ATOM      6  C   UNL     1       2.186   7.927  18.440  0.00  0.00    +0.000 A 
ATOM      7  C   UNL     1       1.681   9.091  17.851  0.00  0.00    +0.000 A 
ATOM      8  C   UNL     1       1.029  10.040  18.627  0.00  0.00    +0.000 A 
ATOM      9  C   UNL     1       0.881   9.812  19.997  0.00  0.00    +0.000 A 
ATOM     10  C   UNL     1       1.367   8.628  20.589  0.00  0.00    +0.000 A 
BRANCH   9  11
ATOM     11  S   UNL     1       0.308  11.139  21.036  0.00  0.00    +0.000 S 
ATOM     12  O   UNL     1      -0.370  10.508  22.155  0.00  0.00    +0.000 OA
ATOM     13  O   UNL     1       1.397  12.064  21.258  0.00  0.00    +0.000 OA
BRANCH  11  14
ATOM     14  N   UNL     1      -0.872  11.946  20.105  0.00  0.00    +0.000 NA
ATOM     15  C   UNL     1      -0.457  13.223  19.461  0.00  0.00    +0.000 C 
ATOM     16  C   UNL     1      -1.160  14.310  20.263  0.00  0.00    +0.000 C 
ATOM     17  C   UNL     1      -2.495  13.672  20.586  0.00  0.00    +0.000 C 
ATOM     18  C   UNL     1      -2.140  12.218  20.858  0.00  0.00    +0.000 C 
ENDBRANCH  11  14
ENDBRANCH   9  11
ENDBRANCH   3   5
BRANCH   1  19
ATOM     19  C   UNL     1       2.760   4.163  21.192  0.00  0.00    +0.000 C 
BRANCH  19  30
ATOM     20  C   UNL     1       6.581   4.984  15.939  0.00  0.00    +0.000 C 
ATOM     21  C   UNL     1       5.686   4.482  17.032  0.00  0.00    +0.000 A 
ATOM     22  C   UNL     1       5.950   4.782  18.364  0.00  0.00    +0.000 A 
ATOM     23  C   UNL     1       5.092   4.337  19.374  0.00  0.00    +0.000 A 
ATOM     24  C   UNL     1       3.939   3.584  19.101  0.00  0.00    +0.000 A 
ATOM     25  C   UNL     1       3.717   3.228  17.756  0.00  0.00    +0.000 A 
ATOM     26  C   UNL     1       4.584   3.677  16.738  0.00  0.00    +0.000 A 
ATOM     27  C   UNL     1       2.579   2.321  17.371  0.00  0.00    +0.000 C 
ATOM     28  C   UNL     1       1.466   2.364  18.399  0.00  0.00    +0.000 C 
ATOM     29  C   UNL     1       2.026   2.204  19.803  0.00  0.00    +0.000 C 
ATOM     30  N   UNL     1       3.083   3.178  20.133  0.00  0.00    +0.000 N 
ENDBRANCH  19  30
ENDBRANCH   1  19
TORSDOF 5
ENDMDL
MODEL 3
REMARK VINA RESULT:      -8.6      3.135      4.636
REMARK  Name = 
REMARK  6 active torsions:
REMARK  status: ('A' for Active; 'I' for Inactive)
REMARK    1  A    between atoms: C_1  and  C_2
REMARK    2  A    between atoms: N_11  and  C_12
REMARK    3  A    between atoms: C_12  and  C_13
REMARK    4  A    between atoms: N_15  and  C_16
REMARK    5  A    between atoms: C_20  and  S_21
REMARK    6  A    between atoms: S_21  and  N_24
REMARK                            x       y       z     vdW  Elec       q    Type
REMARK                         _______ _______ _______ _____ _____    ______ ____
ROOT
ATOM      1  C   UNL     1       0.274  10.721  21.631  0.00  0.00    +0.000 C 
ATOM      2  O   UNL     1       1.227  11.488  21.478  0.00  0.00    +0.000 OA
ATOM      3  N   UNL     1       0.150   9.459  21.055  0.00  0.00    +0.000 N 
ATOM      4  H   UNL     1      -0.596   8.869  21.408  0.00  0.00    +0.000 HD
ENDROOT
BRANCH   3   5
ATOM      5  C   UNL     1       1.015   8.896  20.078  0.00  0.00    +0.000 A 
ATOM      6  C   UNL     1       1.174   9.456  18.805  0.00  0.00    +0.000 A 
ATOM      7  C   UNL     1       2.004   8.869  17.845  0.00  0.00    +0.000 A 
ATOM      8  C   UNL     1       2.675   7.687  18.130  0.00  0.00    +0.000 A 
ATOM      9  C   UNL     1       2.512   7.100  19.387  0.00  0.00    +0.000 A 
ATOM     10  C   UNL     1       1.695   7.703  20.365  0.00  0.00    +0.000 A 
BRANCH   9  11
ATOM     11  S   UNL     1       3.132   5.453  19.658  0.00  0.00    +0.000 S 
ATOM     12  O   UNL     1       4.578   5.549  19.557  0.00  0.00    +0.000 OA
ATOM     13  O   UNL     1       2.508   4.906  20.842  0.00  0.00    +0.000 OA
BRANCH  11  14
ATOM     14  N   UNL     1       2.578   4.552  18.320  0.00  0.00    +0.000 NA
ATOM     15  C   UNL     1       1.251   3.890  18.462  0.00  0.00    +0.000 C 
ATOM     16  C   UNL     1       1.568   2.409  18.612  0.00  0.00    +0.000 C 
ATOM     17  C   UNL     1       2.747   2.227  17.679  0.00  0.00    +0.000 C 
ATOM     18  C   UNL     1       3.551   3.506  17.864  0.00  0.00    +0.000 C 
ENDBRANCH  11  14
ENDBRANCH   9  11
ENDBRANCH   3   5
BRANCH   1  19
ATOM     19  C   UNL     1      -0.905  11.145  22.528  0.00  0.00    +0.000 C 
BRANCH  19  30
ATOM     20  C   UNL     1      -6.961  13.065  24.108  0.00  0.00    +0.000 C 
ATOM     21  C   UNL     1      -5.589  12.882  23.534  0.00  0.00    +0.000 A 
ATOM     22  C   UNL     1      -4.491  12.670  24.363  0.00  0.00    +0.000 A 
ATOM     23  C   UNL     1      -3.220  12.468  23.817  0.00  0.00    +0.000 A 
ATOM     24  C   UNL     1      -2.991  12.463  22.432  0.00  0.00    +0.000 A 
ATOM     25  C   UNL     1      -4.095  12.747  21.605  0.00  0.00    +0.000 A 
ATOM     26  C   UNL     1      -5.377  12.951  22.156  0.00  0.00    +0.000 A 
ATOM     27  C   UNL     1      -3.932  12.888  20.114  0.00  0.00    +0.000 C 
ATOM     28  C   UNL     1      -2.711  12.139  19.619  0.00  0.00    +0.000 C 
ATOM     29  C   UNL     1      -1.498  12.465  20.476  0.00  0.00    +0.000 C 
ATOM     30  N   UNL     1      -1.709  12.228  21.916  0.00  0.00    +0.000 N 
ENDBRANCH  19  30
ENDBRANCH   1  19
TORSDOF 5
ENDMDL
MODEL 4
REMARK VINA RESULT:      -8.5      3.148      8.751
REMARK  Name = 
REMARK  6 active torsions:
REMARK  status: ('A' for Active; 'I' for Inactive)
REMARK    1  A    between atoms: C_1  and  C_2
REMARK    2  A    between atoms: N_11  and  C_12
REMARK    3  A    between atoms: C_12  and  C_13
REMARK    4  A    between atoms: N_15  and  C_16
REMARK    5  A    between atoms: C_20  and  S_21
REMARK    6  A    between atoms: S_21  and  N_24
REMARK                            x       y       z     vdW  Elec       q    Type
REMARK                         _______ _______ _______ _____ _____    ______ ____
ROOT
ATOM      1  C   UNL     1       1.817   5.418  20.643  0.00  0.00    +0.000 C 
ATOM      2  O   UNL     1       0.612   5.248  20.444  0.00  0.00    +0.000 OA
ATOM      3  N   UNL     1       2.527   6.583  20.366  0.00  0.00    +0.000 N 
ATOM      4  H   UNL     1       3.466   6.645  20.745  0.00  0.00    +0.000 HD
ENDROOT
BRANCH   3   5
ATOM      5  C   UNL     1       2.032   7.719  19.671  0.00  0.00    +0.000 A 
ATOM      6  C   UNL     1       2.299   7.945  18.315  0.00  0.00    +0.000 A 
ATOM      7  C   UNL     1       1.832   9.087  17.657  0.00  0.00    +0.000 A 
ATOM      8  C   UNL     1       1.107  10.047  18.352  0.00  0.00    +0.000 A 
ATOM      9  C   UNL     1       0.849   9.850  19.710  0.00  0.00    +0.000 A 
ATOM     10  C   UNL     1       1.297   8.689  20.370  0.00  0.00    +0.000 A 
BRANCH   9  11
ATOM     11  S   UNL     1       0.177  11.196  20.663  0.00  0.00    +0.000 S 
ATOM     12  O   UNL     1      -1.246  11.221  20.371  0.00  0.00    +0.000 OA
ATOM     13  O   UNL     1       0.650  11.087  22.026  0.00  0.00    +0.000 OA
BRANCH  11  14
ATOM     14  N   UNL     1       0.869  12.600  19.987  0.00  0.00    +0.000 NA
ATOM     15  C   UNL     1       1.512  13.552  20.935  0.00  0.00    +0.000 C 
ATOM     16  C   UNL     1       0.560  14.738  21.004  0.00  0.00    +0.000 C 
ATOM     17  C   UNL     1       0.057  14.840  19.579  0.00  0.00    +0.000 C 
ATOM     18  C   UNL     1      -0.088  13.389  19.145  0.00  0.00    +0.000 C 
ENDBRANCH  11  14
ENDBRANCH   9  11
ENDBRANCH   3   5
BRANCH   1  19
ATOM     19  C   UNL     1       2.653   4.275  21.252  0.00  0.00    +0.000 C 
BRANCH  19  30
ATOM     20  C   UNL     1       6.507   4.850  15.991  0.00  0.00    +0.000 C 
ATOM     21  C   UNL     1       5.608   4.399  17.102  0.00  0.00    +0.000 A 
ATOM     22  C   UNL     1       5.860   4.771  18.419  0.00  0.00    +0.000 A 
ATOM     23  C   UNL     1       4.998   4.373  19.445  0.00  0.00    +0.000 A 
ATOM     24  C   UNL     1       3.853   3.597  19.204  0.00  0.00    +0.000 A 
ATOM     25  C   UNL     1       3.645   3.167  17.878  0.00  0.00    +0.000 A 
ATOM     26  C   UNL     1       4.516   3.569  16.844  0.00  0.00    +0.000 A 
ATOM     27  C   UNL     1       2.518   2.230  17.534  0.00  0.00    +0.000 C 
ATOM     28  C   UNL     1       1.397   2.318  18.550  0.00  0.00    +0.000 C 
ATOM     29  C   UNL     1       1.947   2.239  19.965  0.00  0.00    +0.000 C 
ATOM     30  N   UNL     1       2.993   3.238  20.250  0.00  0.00    +0.000 N 
ENDBRANCH  19  30
ENDBRANCH   1  19
TORSDOF 5
ENDMDL
MODEL 5
REMARK VINA RESULT:      -8.5      1.925      3.410
REMARK  Name = 
REMARK  6 active torsions:
REMARK  status: ('A' for Active; 'I' for Inactive)
REMARK    1  A    between atoms: C_1  and  C_2
REMARK    2  A    between atoms: N_11  and  C_12
REMARK    3  A    between atoms: C_12  and  C_13
REMARK    4  A    between atoms: N_15  and  C_16
REMARK    5  A    between atoms: C_20  and  S_21
REMARK    6  A    between atoms: S_21  and  N_24
REMARK                            x       y       z     vdW  Elec       q    Type
REMARK                         _______ _______ _______ _____ _____    ______ ____
ROOT
ATOM      1  C   UNL     1       1.624   9.022  18.617  0.00  0.00    +0.000 C 
ATOM      2  O   UNL     1       1.666   8.550  17.478  0.00  0.00    +0.000 OA
ATOM      3  N   UNL     1       1.959   8.345  19.787  0.00  0.00    +0.000 N 
ATOM      4  H   UNL     1       2.051   8.907  20.627  0.00  0.00    +0.000 HD
ENDROOT
BRANCH   3   5
ATOM      5  C   UNL     1       2.258   6.961  19.896  0.00  0.00    +0.000 A 
ATOM      6  C   UNL     1       1.462   6.076  20.634  0.00  0.00    +0.000 A 
ATOM      7  C   UNL     1       1.790   4.723  20.758  0.00  0.00    +0.000 A 
ATOM      8  C   UNL     1       2.946   4.228  20.166  0.00  0.00    +0.000 A 
ATOM      9  C   UNL     1       3.765   5.098  19.444  0.00  0.00    +0.000 A 
ATOM     10  C   UNL     1       3.423   6.458  19.296  0.00  0.00    +0.000 A 
BRANCH   9  11
ATOM     11  S   UNL     1       5.376   4.540  18.931  0.00  0.00    +0.000 S 
ATOM     12  O   UNL     1       6.328   5.218  19.795  0.00  0.00    +0.000 OA
ATOM     13  O   UNL     1       5.363   3.097  18.833  0.00  0.00    +0.000 OA
BRANCH  11  14
ATOM     14  N   UNL     1       5.574   5.163  17.356  0.00  0.00    +0.000 NA
ATOM     15  C   UNL     1       4.862   4.448  16.260  0.00  0.00    +0.000 C 
ATOM     16  C   UNL     1       5.955   3.713  15.498  0.00  0.00    +0.000 C 
ATOM     17  C   UNL     1       7.109   4.692  15.548  0.00  0.00    +0.000 C 
ATOM     18  C   UNL     1       7.010   5.291  16.943  0.00  0.00    +0.000 C 
ENDBRANCH  11  14
ENDBRANCH   9  11
ENDBRANCH   3   5
BRANCH   1  19
ATOM     19  C   UNL     1       1.173  10.482  18.816  0.00  0.00    +0.000 C 
BRANCH  19  30
ATOM     20  C   UNL     1      -4.977  11.629  16.885  0.00  0.00    +0.000 C 
ATOM     21  C   UNL     1      -3.709  11.333  17.627  0.00  0.00    +0.000 A 
ATOM     22  C   UNL     1      -2.792  10.410  17.134  0.00  0.00    +0.000 A 
ATOM     23  C   UNL     1      -1.597  10.164  17.817  0.00  0.00    +0.000 A 
ATOM     24  C   UNL     1      -1.264  10.827  19.009  0.00  0.00    +0.000 A 
ATOM     25  C   UNL     1      -2.230  11.707  19.536  0.00  0.00    +0.000 A 
ATOM     26  C   UNL     1      -3.435  11.954  18.847  0.00  0.00    +0.000 A 
ATOM     27  C   UNL     1      -2.025  12.373  20.871  0.00  0.00    +0.000 C 
ATOM     28  C   UNL     1      -0.553  12.469  21.221  0.00  0.00    +0.000 C 
ATOM     29  C   UNL     1       0.137  11.131  21.009  0.00  0.00    +0.000 C 
ATOM     30  N   UNL     1      -0.045  10.580  19.654  0.00  0.00    +0.000 N 
ENDBRANCH  19  30
ENDBRANCH   1  19
TORSDOF 5
ENDMDL
MODEL 6
REMARK VINA RESULT:      -8.4      1.544      3.194
REMARK  Name = 
REMARK  6 active torsions:
REMARK  status: ('A' for Active; 'I' for Inactive)
REMARK    1  A    between atoms: C_1  and  C_2
REMARK    2  A    between atoms: N_11  and  C_12
REMARK    3  A    between atoms: C_12  and  C_13
REMARK    4  A    between atoms: N_15  and  C_16
REMARK    5  A    between atoms: C_20  and  S_21
REMARK    6  A    between atoms: S_21  and  N_24
REMARK                            x       y       z     vdW  Elec       q    Type
REMARK                         _______ _______ _______ _____ _____    ______ ____
ROOT
ATOM      1  C   UNL     1       2.043   8.760  18.307  0.00  0.00    +0.000 C 
ATOM      2  O   UNL     1       2.437   8.252  17.256  0.00  0.00    +0.000 OA
ATOM      3  N   UNL     1       1.902   8.098  19.524  0.00  0.00    +0.000 N 
ATOM      4  H   UNL     1       1.741   8.677  20.342  0.00  0.00    +0.000 HD
ENDROOT
BRANCH   3   5
ATOM      5  C   UNL     1       2.039   6.700  19.737  0.00  0.00    +0.000 A 
ATOM      6  C   UNL     1       1.300   6.012  20.708  0.00  0.00    +0.000 A 
ATOM      7  C   UNL     1       1.473   4.642  20.926  0.00  0.00    +0.000 A 
ATOM      8  C   UNL     1       2.416   3.932  20.193  0.00  0.00    +0.000 A 
ATOM      9  C   UNL     1       3.178   4.604  19.235  0.00  0.00    +0.000 A 
ATOM     10  C   UNL     1       2.988   5.980  18.996  0.00  0.00    +0.000 A 
BRANCH   9  11
ATOM     11  S   UNL     1       4.571   3.772  18.502  0.00  0.00    +0.000 S 
ATOM     12  O   UNL     1       5.174   2.988  19.566  0.00  0.00    +0.000 OA
ATOM     13  O   UNL     1       4.147   3.144  17.270  0.00  0.00    +0.000 OA
BRANCH  11  14
ATOM     14  N   UNL     1       5.662   5.019  18.097  0.00  0.00    +0.000 NA
ATOM     15  C   UNL     1       6.615   4.739  16.986  0.00  0.00    +0.000 C 
ATOM     16  C   UNL     1       7.963   4.549  17.667  0.00  0.00    +0.000 C 
ATOM     17  C   UNL     1       7.913   5.566  18.788  0.00  0.00    +0.000 C 
ATOM     18  C   UNL     1       6.469   5.505  19.263  0.00  0.00    +0.000 C 
ENDBRANCH  11  14
ENDBRANCH   9  11
ENDBRANCH   3   5
BRANCH   1  19
ATOM     19  C   UNL     1       1.663  10.254  18.332  0.00  0.00    +0.000 C 
BRANCH  19  30
ATOM     20  C   UNL     1      -4.616  11.323  16.815  0.00  0.00    +0.000 C 
ATOM     21  C   UNL     1      -3.290  11.097  17.476  0.00  0.00    +0.000 A 
ATOM     22  C   UNL     1      -2.447  10.074  17.052  0.00  0.00    +0.000 A 
ATOM     23  C   UNL     1      -1.197   9.891  17.653  0.00  0.00    +0.000 A 
ATOM     24  C   UNL     1      -0.736  10.717  18.690  0.00  0.00    +0.000 A 
ATOM     25  C   UNL     1      -1.625  11.706  19.158  0.00  0.00    +0.000 A 
ATOM     26  C   UNL     1      -2.884  11.889  18.551  0.00  0.00    +0.000 A 
ATOM     27  C   UNL     1      -1.276  12.562  20.346  0.00  0.00    +0.000 C 
ATOM     28  C   UNL     1       0.224  12.654  20.540  0.00  0.00    +0.000 C 
ATOM     29  C   UNL     1       0.858  11.274  20.480  0.00  0.00    +0.000 C 
ATOM     30  N   UNL     1       0.534  10.527  19.251  0.00  0.00    +0.000 N 
ENDBRANCH  19  30
ENDBRANCH   1  19
TORSDOF 5
ENDMDL
MODEL 7
REMARK VINA RESULT:      -8.3      1.121      1.375
REMARK  Name = 
REMARK  6 active torsions:
REMARK  status: ('A' for Active; 'I' for Inactive)
REMARK    1  A    between atoms: C_1  and  C_2
REMARK    2  A    between atoms: N_11  and  C_12
REMARK    3  A    between atoms: C_12  and  C_13
REMARK    4  A    between atoms: N_15  and  C_16
REMARK    5  A    between atoms: C_20  and  S_21
REMARK    6  A    between atoms: S_21  and  N_24
REMARK                            x       y       z     vdW  Elec       q    Type
REMARK                         _______ _______ _______ _____ _____    ______ ____
ROOT
ATOM      1  C   UNL     1       2.189   8.368  17.832  0.00  0.00    +0.000 C 
ATOM      2  O   UNL     1       1.385   7.456  18.038  0.00  0.00    +0.000 OA
ATOM      3  N   UNL     1       3.492   8.210  17.367  0.00  0.00    +0.000 N 
ATOM      4  H   UNL     1       3.976   9.052  17.074  0.00  0.00    +0.000 HD
ENDROOT
BRANCH   3   5
ATOM      5  C   UNL     1       4.173   6.975  17.192  0.00  0.00    +0.000 A 
ATOM      6  C   UNL     1       4.973   6.711  16.074  0.00  0.00    +0.000 A 
ATOM      7  C   UNL     1       5.609   5.478  15.902  0.00  0.00    +0.000 A 
ATOM      8  C   UNL     1       5.435   4.466  16.838  0.00  0.00    +0.000 A 
ATOM      9  C   UNL     1       4.624   4.702  17.950  0.00  0.00    +0.000 A 
ATOM     10  C   UNL     1       4.002   5.953  18.138  0.00  0.00    +0.000 A 
BRANCH   9  11
ATOM     11  S   UNL     1       4.170   3.333  18.993  0.00  0.00    +0.000 S 
ATOM     12  O   UNL     1       3.607   2.326  18.109  0.00  0.00    +0.000 OA
ATOM     13  O   UNL     1       5.282   3.016  19.862  0.00  0.00    +0.000 OA
BRANCH  11  14
ATOM     14  N   UNL     1       2.904   3.928  19.970  0.00  0.00    +0.000 NA
ATOM     15  C   UNL     1       2.742   3.298  21.311  0.00  0.00    +0.000 C 
ATOM     16  C   UNL     1       1.490   2.442  21.191  0.00  0.00    +0.000 C 
ATOM     17  C   UNL     1       0.598   3.283  20.302  0.00  0.00    +0.000 C 
ATOM     18  C   UNL     1       1.565   3.891  19.297  0.00  0.00    +0.000 C 
ENDBRANCH  11  14
ENDBRANCH   9  11
ENDBRANCH   3   5
BRANCH   1  19
ATOM     19  C   UNL     1       1.765   9.827  18.094  0.00  0.00    +0.000 C 
BRANCH  19  30
ATOM     20  C   UNL     1      -4.422  11.605  16.899  0.00  0.00    +0.000 C 
ATOM     21  C   UNL     1      -3.120  11.142  17.480  0.00  0.00    +0.000 A 
ATOM     22  C   UNL     1      -2.328  10.217  16.807  0.00  0.00    +0.000 A 
ATOM     23  C   UNL     1      -1.100   9.815  17.342  0.00  0.00    +0.000 A 
ATOM     24  C   UNL     1      -0.610  10.317  18.558  0.00  0.00    +0.000 A 
ATOM     25  C   UNL     1      -1.451  11.200  19.264  0.00  0.00    +0.000 A 
ATOM     26  C   UNL     1      -2.689  11.604  18.725  0.00  0.00    +0.000 A 
ATOM     27  C   UNL     1      -1.076  11.698  20.635  0.00  0.00    +0.000 C 
ATOM     28  C   UNL     1       0.424  11.652  20.847  0.00  0.00    +0.000 C 
ATOM     29  C   UNL     1       0.984  10.301  20.433  0.00  0.00    +0.000 C 
ATOM     30  N   UNL     1       0.638   9.916  19.052  0.00  0.00    +0.000 N 
ENDBRANCH  19  30
ENDBRANCH   1  19
TORSDOF 5
ENDMDL
MODEL 8
REMARK VINA RESULT:      -8.3      2.562      4.374
REMARK  Name = 
REMARK  6 active torsions:
REMARK  status: ('A' for Active; 'I' for Inactive)
REMARK    1  A    between atoms: C_1  and  C_2
REMARK    2  A    between atoms: N_11  and  C_12
REMARK    3  A    between atoms: C_12  and  C_13
REMARK    4  A    between atoms: N_15  and  C_16
REMARK    5  A    between atoms: C_20  and  S_21
REMARK    6  A    between atoms: S_21  and  N_24
REMARK                            x       y       z     vdW  Elec       q    Type
REMARK                         _______ _______ _______ _____ _____    ______ ____
ROOT
ATOM      1  C   UNL     1       1.873   8.542  18.623  0.00  0.00    +0.000 C 
ATOM      2  O   UNL     1       1.776   8.683  17.402  0.00  0.00    +0.000 OA
ATOM      3  N   UNL     1       2.502   7.480  19.268  0.00  0.00    +0.000 N 
ATOM      4  H   UNL     1       2.664   7.583  20.264  0.00  0.00    +0.000 HD
ENDROOT
BRANCH   3   5
ATOM      5  C   UNL     1       3.006   6.304  18.648  0.00  0.00    +0.000 A 
ATOM      6  C   UNL     1       2.753   5.023  19.152  0.00  0.00    +0.000 A 
ATOM      7  C   UNL     1       3.285   3.880  18.548  0.00  0.00    +0.000 A 
ATOM      8  C   UNL     1       4.109   3.997  17.436  0.00  0.00    +0.000 A 
ATOM      9  C   UNL     1       4.391   5.268  16.930  0.00  0.00    +0.000 A 
ATOM     10  C   UNL     1       3.836   6.420  17.522  0.00  0.00    +0.000 A 
BRANCH   9  11
ATOM     11  S   UNL     1       5.662   5.443  15.696  0.00  0.00    +0.000 S 
ATOM     12  O   UNL     1       5.693   4.183  14.973  0.00  0.00    +0.000 OA
ATOM     13  O   UNL     1       5.466   6.693  14.995  0.00  0.00    +0.000 OA
BRANCH  11  14
ATOM     14  N   UNL     1       7.115   5.568  16.579  0.00  0.00    +0.000 NA
ATOM     15  C   UNL     1       7.303   4.603  17.698  0.00  0.00    +0.000 C 
ATOM     16  C   UNL     1       7.123   5.431  18.963  0.00  0.00    +0.000 C 
ATOM     17  C   UNL     1       7.760   6.752  18.586  0.00  0.00    +0.000 C 
ATOM     18  C   UNL     1       7.360   6.941  17.130  0.00  0.00    +0.000 C 
ENDBRANCH  11  14
ENDBRANCH   9  11
ENDBRANCH   3   5
BRANCH   1  19
ATOM     19  C   UNL     1       1.267   9.604  19.560  0.00  0.00    +0.000 C 
BRANCH  19  30
ATOM     20  C   UNL     1       2.452  15.963  18.546  0.00  0.00    +0.000 C 
ATOM     21  C   UNL     1       1.915  14.564  18.586  0.00  0.00    +0.000 A 
ATOM     22  C   UNL     1       2.753  13.472  18.383  0.00  0.00    +0.000 A 
ATOM     23  C   UNL     1       2.250  12.170  18.454  0.00  0.00    +0.000 A 
ATOM     24  C   UNL     1       0.900  11.902  18.733  0.00  0.00    +0.000 A 
ATOM     25  C   UNL     1       0.047  13.014  18.868  0.00  0.00    +0.000 A 
ATOM     26  C   UNL     1       0.556  14.327  18.796  0.00  0.00    +0.000 A 
ATOM     27  C   UNL     1      -1.438  12.836  19.046  0.00  0.00    +0.000 C 
ATOM     28  C   UNL     1      -1.764  11.479  19.636  0.00  0.00    +0.000 C 
ATOM     29  C   UNL     1      -1.026  10.378  18.891  0.00  0.00    +0.000 C 
ATOM     30  N   UNL     1       0.433  10.584  18.826  0.00  0.00    +0.000 N 
ENDBRANCH  19  30
ENDBRANCH   1  19
TORSDOF 5
ENDMDL
MODEL 9
REMARK VINA RESULT:      -8.2      2.100      3.393
REMARK  Name = 
REMARK  6 active torsions:
REMARK  status: ('A' for Active; 'I' for Inactive)
REMARK    1  A    between atoms: C_1  and  C_2
REMARK    2  A    between atoms: N_11  and  C_12
REMARK    3  A    between atoms: C_12  and  C_13
REMARK    4  A    between atoms: N_15  and  C_16
REMARK    5  A    between atoms: C_20  and  S_21
REMARK    6  A    between atoms: S_21  and  N_24
REMARK                            x       y       z     vdW  Elec       q    Type
REMARK                         _______ _______ _______ _____ _____    ______ ____
ROOT
ATOM      1  C   UNL     1       1.900   8.660  19.365  0.00  0.00    +0.000 C 
ATOM      2  O   UNL     1       1.843   8.180  20.499  0.00  0.00    +0.000 OA
ATOM      3  N   UNL     1       2.407   8.019  18.238  0.00  0.00    +0.000 N 
ATOM      4  H   UNL     1       2.227   8.461  17.343  0.00  0.00    +0.000 HD
ENDROOT
BRANCH   3   5
ATOM      5  C   UNL     1       3.081   6.768  18.219  0.00  0.00    +0.000 A 
ATOM      6  C   UNL     1       2.985   5.848  19.271  0.00  0.00    +0.000 A 
ATOM      7  C   UNL     1       3.682   4.636  19.250  0.00  0.00    +0.000 A 
ATOM      8  C   UNL     1       4.518   4.329  18.183  0.00  0.00    +0.000 A 
ATOM      9  C   UNL     1       4.644   5.243  17.135  0.00  0.00    +0.000 A 
ATOM     10  C   UNL     1       3.922   6.454  17.142  0.00  0.00    +0.000 A 
BRANCH   9  11
ATOM     11  S   UNL     1       5.918   4.989  15.918  0.00  0.00    +0.000 S 
ATOM     12  O   UNL     1       5.975   3.555  15.692  0.00  0.00    +0.000 OA
ATOM     13  O   UNL     1       5.704   5.903  14.817  0.00  0.00    +0.000 OA
BRANCH  11  14
ATOM     14  N   UNL     1       7.365   5.448  16.696  0.00  0.00    +0.000 NA
ATOM     15  C   UNL     1       7.773   4.639  17.879  0.00  0.00    +0.000 C 
ATOM     16  C   UNL     1       7.505   5.539  19.078  0.00  0.00    +0.000 C 
ATOM     17  C   UNL     1       7.879   6.909  18.552  0.00  0.00    +0.000 C 
ATOM     18  C   UNL     1       7.385   6.888  17.113  0.00  0.00    +0.000 C 
ENDBRANCH  11  14
ENDBRANCH   9  11
ENDBRANCH   3   5
BRANCH   1  19
ATOM     19  C   UNL     1       1.378  10.089  19.120  0.00  0.00    +0.000 C 
BRANCH  19  30
ATOM     20  C   UNL     1      -4.505  11.453  16.591  0.00  0.00    +0.000 C 
ATOM     21  C   UNL     1      -3.323  11.147  17.460  0.00  0.00    +0.000 A 
ATOM     22  C   UNL     1      -2.443  10.120  17.131  0.00  0.00    +0.000 A 
ATOM     23  C   UNL     1      -1.325   9.863  17.930  0.00  0.00    +0.000 A 
ATOM     24  C   UNL     1      -1.034  10.615  19.079  0.00  0.00    +0.000 A 
ATOM     25  C   UNL     1      -1.968  11.606  19.441  0.00  0.00    +0.000 A 
ATOM     26  C   UNL     1      -3.096  11.865  18.635  0.00  0.00    +0.000 A 
ATOM     27  C   UNL     1      -1.815  12.385  20.721  0.00  0.00    +0.000 C 
ATOM     28  C   UNL     1      -0.371  12.415  21.180  0.00  0.00    +0.000 C 
ATOM     29  C   UNL     1       0.230  11.019  21.151  0.00  0.00    +0.000 C 
ATOM     30  N   UNL     1       0.111  10.351  19.842  0.00  0.00    +0.000 N 
ENDBRANCH  19  30
ENDBRANCH   1  19
TORSDOF 5
ENDMDL
