MODEL 1
REMARK VINA RESULT:      -8.4      0.000      0.000
REMARK  Name = 
REMARK  8 active torsions:
REMARK  status: ('A' for Active; 'I' for Inactive)
REMARK    1  A    between atoms: C_1  and  O_2
REMARK    2  A    between atoms: O_2  and  C_3
REMARK    3  A    between atoms: C_8  and  C_9
REMARK    4  A    between atoms: C_9  and  O_11
REMARK    5  A    between atoms: O_11  and  C_12
REMARK    6  A    between atoms: C_12  and  C_13
REMARK    7  A    between atoms: C_13  and  C_15
REMARK    8  A    between atoms: C_25  and  C_26
REMARK                            x       y       z     vdW  Elec       q    Type
REMARK                         _______ _______ _______ _____ _____    ______ ____
ROOT
ATOM      1  C   UNL     1       6.783   6.097  17.517  0.00  0.00    +0.000 C 
ATOM      2  O   UNL     1       7.805   6.352  18.145  0.00  0.00    +0.000 OA
ENDROOT
BRANCH   1   8
ATOM      3  C   UNL     1       6.339   3.333  12.171  0.00  0.00    +0.000 A 
ATOM      4  C   UNL     1       7.294   4.318  11.891  0.00  0.00    +0.000 A 
ATOM      5  C   UNL     1       7.743   5.207  12.871  0.00  0.00    +0.000 A 
ATOM      6  C   UNL     1       7.189   5.054  14.138  0.00  0.00    +0.000 A 
ATOM      7  O   UNL     1       7.493   5.808  15.221  0.00  0.00    +0.000 OA
ATOM      8  C   UNL     1       6.711   5.379  16.264  0.00  0.00    +0.000 A 
ATOM      9  C   UNL     1       5.925   4.307  15.847  0.00  0.00    +0.000 A 
ATOM     10  C   UNL     1       4.930   3.533  16.631  0.00  0.00    +0.000 C 
ATOM     11  C   UNL     1       6.237   4.104  14.465  0.00  0.00    +0.000 A 
ATOM     12  C   UNL     1       5.797   3.219  13.460  0.00  0.00    +0.000 A 
BRANCH   3  14
ATOM     13  C   UNL     1       6.034   1.133  11.323  0.00  0.00    +0.000 C 
ATOM     14  O   UNL     1       6.012   2.538  11.104  0.00  0.00    +0.000 OA
ENDBRANCH   3  14
ENDBRANCH   1   8
BRANCH   1  15
ATOM     15  O   UNL     1       5.528   6.424  17.940  0.00  0.00    +0.000 OA
BRANCH  15  16
ATOM     16  C   UNL     1       4.830   7.326  17.079  0.00  0.00    +0.000 C 
BRANCH  16  17
ATOM     17  C   UNL     1       3.402   7.510  17.589  0.00  0.00    +0.000 C 
ATOM     18  O   UNL     1       2.751   8.532  17.365  0.00  0.00    +0.000 OA
BRANCH  17  19
ATOM     19  C   UNL     1       2.773   6.421  18.388  0.00  0.00    +0.000 A 
ATOM     20  C   UNL     1       2.479   6.677  19.738  0.00  0.00    +0.000 A 
ATOM     21  C   UNL     1       1.872   5.701  20.530  0.00  0.00    +0.000 A 
ATOM     22  C   UNL     1       1.561   4.462  19.979  0.00  0.00    +0.000 A 
ATOM     23  C   UNL     1       1.840   4.205  18.633  0.00  0.00    +0.000 A 
ATOM     24  C   UNL     1       2.459   5.174  17.841  0.00  0.00    +0.000 A 
ATOM     25  O   UNL     1       1.539   3.017  18.018  0.00  0.00    +0.000 OA
ATOM     26  C   UNL     1       0.598   2.257  18.786  0.00  0.00    +0.000 C 
ATOM     27  C   UNL     1       0.996   2.231  20.253  0.00  0.00    +0.000 C 
ATOM     28  O   UNL     1       0.970   3.548  20.812  0.00  0.00    +0.000 OA
ENDBRANCH  17  19
ENDBRANCH  16  17
ENDBRANCH  15  16
ENDBRANCH   1  15
TORSDOF 6
ENDMDL
MODEL 2
REMARK VINA RESULT:      -8.3      3.378      5.752
REMARK  Name = 
REMARK  8 active torsions:
REMARK  status: ('A' for Active; 'I' for Inactive)
REMARK    1  A    between atoms: C_1  and  O_2
REMARK    2  A    between atoms: O_2  and  C_3
REMARK    3  A    between atoms: C_8  and  C_9
REMARK    4  A    between atoms: C_9  and  O_11
REMARK    5  A    between atoms: O_11  and  C_12
REMARK    6  A    between atoms: C_12  and  C_13
REMARK    7  A    between atoms: C_13  and  C_15
REMARK    8  A    between atoms: C_25  and  C_26
REMARK                            x       y       z     vdW  Elec       q    Type
REMARK                         _______ _______ _______ _____ _____    ______ ____
ROOT
ATOM      1  C   UNL     1       2.535   3.887  20.387  0.00  0.00    +0.000 C 
ATOM      2  O   UNL     1       2.438   3.006  21.235  0.00  0.00    +0.000 OA
ENDROOT
BRANCH   1   8
ATOM      3  C   UNL     1       6.872   4.685  16.268  0.00  0.00    +0.000 A 
ATOM      4  C   UNL     1       7.474   5.234  17.408  0.00  0.00    +0.000 A 
ATOM      5  C   UNL     1       6.827   5.245  18.647  0.00  0.00    +0.000 A 
ATOM      6  C   UNL     1       5.558   4.679  18.681  0.00  0.00    +0.000 A 
ATOM      7  O   UNL     1       4.771   4.587  19.780  0.00  0.00    +0.000 OA
ATOM      8  C   UNL     1       3.586   4.008  19.401  0.00  0.00    +0.000 A 
ATOM      9  C   UNL     1       3.635   3.691  18.046  0.00  0.00    +0.000 A 
ATOM     10  C   UNL     1       2.584   3.060  17.208  0.00  0.00    +0.000 C 
ATOM     11  C   UNL     1       4.915   4.132  17.584  0.00  0.00    +0.000 A 
ATOM     12  C   UNL     1       5.585   4.133  16.344  0.00  0.00    +0.000 A 
BRANCH   3  14
ATOM     13  C   UNL     1       6.946   4.780  13.894  0.00  0.00    +0.000 C 
ATOM     14  O   UNL     1       7.640   4.747  15.135  0.00  0.00    +0.000 OA
ENDBRANCH   3  14
ENDBRANCH   1   8
BRANCH   1  15
ATOM     15  O   UNL     1       1.619   4.884  20.217  0.00  0.00    +0.000 OA
BRANCH  15  16
ATOM     16  C   UNL     1       1.883   6.066  20.976  0.00  0.00    +0.000 C 
BRANCH  16  17
ATOM     17  C   UNL     1       1.992   7.261  20.031  0.00  0.00    +0.000 C 
ATOM     18  O   UNL     1       2.660   7.223  18.997  0.00  0.00    +0.000 OA
BRANCH  17  19
ATOM     19  C   UNL     1       1.271   8.520  20.371  0.00  0.00    +0.000 A 
ATOM     20  C   UNL     1       1.029   9.443  19.339  0.00  0.00    +0.000 A 
ATOM     21  C   UNL     1       0.340  10.630  19.595  0.00  0.00    +0.000 A 
ATOM     22  C   UNL     1      -0.105  10.904  20.884  0.00  0.00    +0.000 A 
ATOM     23  C   UNL     1       0.122   9.984  21.913  0.00  0.00    +0.000 A 
ATOM     24  C   UNL     1       0.822   8.801  21.664  0.00  0.00    +0.000 A 
ATOM     25  O   UNL     1      -0.308  10.177  23.200  0.00  0.00    +0.000 OA
ATOM     26  C   UNL     1      -1.308  11.202  23.267  0.00  0.00    +0.000 C 
ATOM     27  C   UNL     1      -0.888  12.417  22.455  0.00  0.00    +0.000 C 
ATOM     28  O   UNL     1      -0.770  12.088  21.067  0.00  0.00    +0.000 OA
ENDBRANCH  17  19
ENDBRANCH  16  17
ENDBRANCH  15  16
ENDBRANCH   1  15
TORSDOF 6
ENDMDL
MODEL 3
REMARK VINA RESULT:      -8.3      1.629      2.336
REMARK  Name = 
REMARK  8 active torsions:
REMARK  status: ('A' for Active; 'I' for Inactive)
REMARK    1  A    between atoms: C_1  and  O_2
REMARK    2  A    between atoms: O_2  and  C_3
REMARK    3  A    between atoms: C_8  and  C_9
REMARK    4  A    between atoms: C_9  and  O_11
REMARK    5  A    between atoms: O_11  and  C_12
REMARK    6  A    between atoms: C_12  and  C_13
REMARK    7  A    between atoms: C_13  and  C_15
REMARK    8  A    between atoms: C_25  and  C_26
REMARK                            x       y       z     vdW  Elec       q    Type
REMARK                         _______ _______ _______ _____ _____    ______ ____
ROOT
ATOM      1  C   UNL     1       7.161   6.638  16.769  0.00  0.00    +0.000 C 
ATOM      2  O   UNL     1       6.791   7.796  16.933  0.00  0.00    +0.000 OA
ENDROOT
BRANCH   1   8
ATOM      3  C   UNL     1       5.520   3.243  12.058  0.00  0.00    +0.000 A 
ATOM      4  C   UNL     1       6.809   3.637  11.675  0.00  0.00    +0.000 A 
ATOM      5  C   UNL     1       7.607   4.438  12.496  0.00  0.00    +0.000 A 
ATOM      6  C   UNL     1       7.049   4.816  13.713  0.00  0.00    +0.000 A 
ATOM      7  O   UNL     1       7.659   5.583  14.648  0.00  0.00    +0.000 OA
ATOM      8  C   UNL     1       6.774   5.767  15.682  0.00  0.00    +0.000 A 
ATOM      9  C   UNL     1       5.597   5.073  15.416  0.00  0.00    +0.000 A 
ATOM     10  C   UNL     1       4.368   4.989  16.245  0.00  0.00    +0.000 C 
ATOM     11  C   UNL     1       5.780   4.460  14.135  0.00  0.00    +0.000 A 
ATOM     12  C   UNL     1       4.992   3.654  13.290  0.00  0.00    +0.000 A 
BRANCH   3  14
ATOM     13  C   UNL     1       3.574   2.874  10.745  0.00  0.00    +0.000 C 
ATOM     14  O   UNL     1       4.872   2.454  11.144  0.00  0.00    +0.000 OA
ENDBRANCH   3  14
ENDBRANCH   1   8
BRANCH   1  15
ATOM     15  O   UNL     1       8.048   5.999  17.585  0.00  0.00    +0.000 OA
BRANCH  15  16
ATOM     16  C   UNL     1       7.586   4.747  18.096  0.00  0.00    +0.000 C 
BRANCH  16  17
ATOM     17  C   UNL     1       6.840   4.979  19.408  0.00  0.00    +0.000 C 
ATOM     18  O   UNL     1       7.413   5.351  20.433  0.00  0.00    +0.000 OA
BRANCH  17  19
ATOM     19  C   UNL     1       5.370   4.744  19.456  0.00  0.00    +0.000 A 
ATOM     20  C   UNL     1       4.522   5.863  19.507  0.00  0.00    +0.000 A 
ATOM     21  C   UNL     1       3.135   5.704  19.533  0.00  0.00    +0.000 A 
ATOM     22  C   UNL     1       2.589   4.425  19.516  0.00  0.00    +0.000 A 
ATOM     23  C   UNL     1       3.426   3.307  19.454  0.00  0.00    +0.000 A 
ATOM     24  C   UNL     1       4.814   3.462  19.440  0.00  0.00    +0.000 A 
ATOM     25  O   UNL     1       2.957   2.020  19.409  0.00  0.00    +0.000 OA
ATOM     26  C   UNL     1       1.568   1.984  19.057  0.00  0.00    +0.000 C 
ATOM     27  C   UNL     1       0.783   3.013  19.855  0.00  0.00    +0.000 C 
ATOM     28  O   UNL     1       1.221   4.339  19.548  0.00  0.00    +0.000 OA
ENDBRANCH  17  19
ENDBRANCH  16  17
ENDBRANCH  15  16
ENDBRANCH   1  15
TORSDOF 6
ENDMDL
MODEL 4
REMARK VINA RESULT:      -8.1      3.661      9.194
REMARK  Name = 
REMARK  8 active torsions:
REMARK  status: ('A' for Active; 'I' for Inactive)
REMARK    1  A    between atoms: C_1  and  O_2
REMARK    2  A    between atoms: O_2  and  C_3
REMARK    3  A    between atoms: C_8  and  C_9
REMARK    4  A    between atoms: C_9  and  O_11
REMARK    5  A    between atoms: O_11  and  C_12
REMARK    6  A    between atoms: C_12  and  C_13
REMARK    7  A    between atoms: C_13  and  C_15
REMARK    8  A    between atoms: C_25  and  C_26
REMARK                            x       y       z     vdW  Elec       q    Type
REMARK                         _______ _______ _______ _____ _____    ______ ____
ROOT
ATOM      1  C   UNL     1       2.441   7.518  18.922  0.00  0.00    +0.000 C 
ATOM      2  O   UNL     1       2.628   7.587  17.712  0.00  0.00    +0.000 OA
ENDROOT
BRANCH   1   8
ATOM      3  C   UNL     1      -0.942  11.253  22.242  0.00  0.00    +0.000 A 
ATOM      4  C   UNL     1      -0.714  10.210  23.150  0.00  0.00    +0.000 A 
ATOM      5  C   UNL     1       0.067   9.102  22.815  0.00  0.00    +0.000 A 
ATOM      6  C   UNL     1       0.607   9.096  21.533  0.00  0.00    +0.000 A 
ATOM      7  O   UNL     1       1.393   8.120  21.019  0.00  0.00    +0.000 OA
ATOM      8  C   UNL     1       1.686   8.457  19.721  0.00  0.00    +0.000 A 
ATOM      9  C   UNL     1       1.109   9.687  19.418  0.00  0.00    +0.000 A 
ATOM     10  C   UNL     1       1.156  10.438  18.137  0.00  0.00    +0.000 C 
ATOM     11  C   UNL     1       0.407  10.096  20.596  0.00  0.00    +0.000 A 
ATOM     12  C   UNL     1      -0.387  11.203  20.955  0.00  0.00    +0.000 A 
BRANCH   3  14
ATOM     13  C   UNL     1      -1.074  13.508  22.982  0.00  0.00    +0.000 C 
ATOM     14  O   UNL     1      -1.723  12.268  22.727  0.00  0.00    +0.000 OA
ENDBRANCH   3  14
ENDBRANCH   1   8
BRANCH   1  15
ATOM     15  O   UNL     1       2.893   6.497  19.706  0.00  0.00    +0.000 OA
BRANCH  15  16
ATOM     16  C   UNL     1       2.370   5.212  19.362  0.00  0.00    +0.000 C 
BRANCH  16  17
ATOM     17  C   UNL     1       3.511   4.198  19.310  0.00  0.00    +0.000 C 
ATOM     18  O   UNL     1       3.585   3.250  20.093  0.00  0.00    +0.000 OA
BRANCH  17  19
ATOM     19  C   UNL     1       4.577   4.360  18.280  0.00  0.00    +0.000 A 
ATOM     20  C   UNL     1       5.879   4.656  18.716  0.00  0.00    +0.000 A 
ATOM     21  C   UNL     1       6.921   4.800  17.798  0.00  0.00    +0.000 A 
ATOM     22  C   UNL     1       6.665   4.654  16.439  0.00  0.00    +0.000 A 
ATOM     23  C   UNL     1       5.374   4.348  15.999  0.00  0.00    +0.000 A 
ATOM     24  C   UNL     1       4.327   4.215  16.913  0.00  0.00    +0.000 A 
ATOM     25  O   UNL     1       5.055   4.166  14.678  0.00  0.00    +0.000 OA
ATOM     26  C   UNL     1       6.229   3.955  13.883  0.00  0.00    +0.000 C 
ATOM     27  C   UNL     1       7.307   4.968  14.234  0.00  0.00    +0.000 C 
ATOM     28  O   UNL     1       7.731   4.812  15.591  0.00  0.00    +0.000 OA
ENDBRANCH  17  19
ENDBRANCH  16  17
ENDBRANCH  15  16
ENDBRANCH   1  15
TORSDOF 6
ENDMDL
MODEL 5
REMARK VINA RESULT:      -8.0      4.288      6.437
REMARK  Name = 
REMARK  8 active torsions:
REMARK  status: ('A' for Active; 'I' for Inactive)
REMARK    1  A    between atoms: C_1  and  O_2
REMARK    2  A    between atoms: O_2  and  C_3
REMARK    3  A    between atoms: C_8  and  C_9
REMARK    4  A    between atoms: C_9  and  O_11
REMARK    5  A    between atoms: O_11  and  C_12
REMARK    6  A    between atoms: C_12  and  C_13
REMARK    7  A    between atoms: C_13  and  C_15
REMARK    8  A    between atoms: C_25  and  C_26
REMARK                            x       y       z     vdW  Elec       q    Type
REMARK                         _______ _______ _______ _____ _____    ______ ____
ROOT
ATOM      1  C   UNL     1       1.997   6.909  20.287  0.00  0.00    +0.000 C 
ATOM      2  O   UNL     1       1.444   6.130  21.056  0.00  0.00    +0.000 OA
ENDROOT
BRANCH   1   8
ATOM      3  C   UNL     1       6.426   5.613  16.400  0.00  0.00    +0.000 A 
ATOM      4  C   UNL     1       6.691   4.701  17.430  0.00  0.00    +0.000 A 
ATOM      5  C   UNL     1       5.881   4.619  18.566  0.00  0.00    +0.000 A 
ATOM      6  C   UNL     1       4.798   5.490  18.610  0.00  0.00    +0.000 A 
ATOM      7  O   UNL     1       3.895   5.565  19.617  0.00  0.00    +0.000 OA
ATOM      8  C   UNL     1       3.010   6.569  19.313  0.00  0.00    +0.000 A 
ATOM      9  C   UNL     1       3.333   7.116  18.074  0.00  0.00    +0.000 A 
ATOM     10  C   UNL     1       2.659   8.224  17.350  0.00  0.00    +0.000 C 
ATOM     11  C   UNL     1       4.496   6.414  17.624  0.00  0.00    +0.000 A 
ATOM     12  C   UNL     1       5.328   6.481  16.489  0.00  0.00    +0.000 A 
BRANCH   3  14
ATOM     13  C   UNL     1       6.927   4.779  14.231  0.00  0.00    +0.000 C 
ATOM     14  O   UNL     1       7.311   5.562  15.355  0.00  0.00    +0.000 OA
ENDBRANCH   3  14
ENDBRANCH   1   8
BRANCH   1  15
ATOM     15  O   UNL     1       1.699   8.238  20.206  0.00  0.00    +0.000 OA
BRANCH  15  16
ATOM     16  C   UNL     1       0.810   8.708  21.221  0.00  0.00    +0.000 C 
BRANCH  16  17
ATOM     17  C   UNL     1       0.543  10.197  21.011  0.00  0.00    +0.000 C 
ATOM     18  O   UNL     1       1.201  11.070  21.578  0.00  0.00    +0.000 OA
BRANCH  17  19
ATOM     19  C   UNL     1      -0.554  10.612  20.092  0.00  0.00    +0.000 A 
ATOM     20  C   UNL     1      -1.406  11.651  20.504  0.00  0.00    +0.000 A 
ATOM     21  C   UNL     1      -2.438  12.094  19.676  0.00  0.00    +0.000 A 
ATOM     22  C   UNL     1      -2.629  11.498  18.433  0.00  0.00    +0.000 A 
ATOM     23  C   UNL     1      -1.778  10.472  18.012  0.00  0.00    +0.000 A 
ATOM     24  C   UNL     1      -0.752  10.017  18.843  0.00  0.00    +0.000 A 
ATOM     25  O   UNL     1      -1.892   9.856  16.792  0.00  0.00    +0.000 OA
ATOM     26  C   UNL     1      -2.704  10.624  15.895  0.00  0.00    +0.000 C 
ATOM     27  C   UNL     1      -3.972  11.098  16.587  0.00  0.00    +0.000 C 
ATOM     28  O   UNL     1      -3.663  11.978  17.672  0.00  0.00    +0.000 OA
ENDBRANCH  17  19
ENDBRANCH  16  17
ENDBRANCH  15  16
ENDBRANCH   1  15
TORSDOF 6
ENDMDL
MODEL 6
REMARK VINA RESULT:      -8.0      2.690      4.819
REMARK  Name = 
REMARK  8 active torsions:
REMARK  status: ('A' for Active; 'I' for Inactive)
REMARK    1  A    between atoms: C_1  and  O_2
REMARK    2  A    between atoms: O_2  and  C_3
REMARK    3  A    between atoms: C_8  and  C_9
REMARK    4  A    between atoms: C_9  and  O_11
REMARK    5  A    between atoms: O_11  and  C_12
REMARK    6  A    between atoms: C_12  and  C_13
REMARK    7  A    between atoms: C_13  and  C_15
REMARK    8  A    between atoms: C_25  and  C_26
REMARK                            x       y       z     vdW  Elec       q    Type
REMARK                         _______ _______ _______ _____ _____    ______ ____
ROOT
ATOM      1  C   UNL     1       4.408   3.348  19.645  0.00  0.00    +0.000 C 
ATOM      2  O   UNL     1       4.783   2.406  20.335  0.00  0.00    +0.000 OA
ENDROOT
BRANCH   1   8
ATOM      3  C   UNL     1       7.243   5.137  14.627  0.00  0.00    +0.000 A 
ATOM      4  C   UNL     1       6.231   4.327  14.095  0.00  0.00    +0.000 A 
ATOM      5  C   UNL     1       5.285   3.701  14.911  0.00  0.00    +0.000 A 
ATOM      6  C   UNL     1       5.406   3.931  16.278  0.00  0.00    +0.000 A 
ATOM      7  O   UNL     1       4.591   3.422  17.232  0.00  0.00    +0.000 OA
ATOM      8  C   UNL     1       5.060   3.841  18.452  0.00  0.00    +0.000 A 
ATOM      9  C   UNL     1       6.169   4.663  18.267  0.00  0.00    +0.000 A 
ATOM     10  C   UNL     1       7.001   5.335  19.297  0.00  0.00    +0.000 C 
ATOM     11  C   UNL     1       6.392   4.714  16.855  0.00  0.00    +0.000 A 
ATOM     12  C   UNL     1       7.336   5.334  16.013  0.00  0.00    +0.000 A 
BRANCH   3  14
ATOM     13  C   UNL     1       7.869   5.299  12.340  0.00  0.00    +0.000 C 
ATOM     14  O   UNL     1       8.084   5.682  13.693  0.00  0.00    +0.000 OA
ENDBRANCH   3  14
ENDBRANCH   1   8
BRANCH   1  15
ATOM     15  O   UNL     1       3.269   4.060  19.881  0.00  0.00    +0.000 OA
BRANCH  15  16
ATOM     16  C   UNL     1       3.440   5.478  19.850  0.00  0.00    +0.000 C 
BRANCH  16  17
ATOM     17  C   UNL     1       2.462   6.085  18.846  0.00  0.00    +0.000 C 
ATOM     18  O   UNL     1       2.004   5.440  17.902  0.00  0.00    +0.000 OA
BRANCH  17  19
ATOM     19  C   UNL     1       2.047   7.507  19.009  0.00  0.00    +0.000 A 
ATOM     20  C   UNL     1       2.141   8.356  17.893  0.00  0.00    +0.000 A 
ATOM     21  C   UNL     1       1.749   9.692  17.982  0.00  0.00    +0.000 A 
ATOM     22  C   UNL     1       1.266  10.190  19.188  0.00  0.00    +0.000 A 
ATOM     23  C   UNL     1       1.160   9.348  20.299  0.00  0.00    +0.000 A 
ATOM     24  C   UNL     1       1.563   8.013  20.218  0.00  0.00    +0.000 A 
ATOM     25  O   UNL     1       0.671   9.763  21.511  0.00  0.00    +0.000 OA
ATOM     26  C   UNL     1      -0.043  11.000  21.389  0.00  0.00    +0.000 C 
ATOM     27  C   UNL     1       0.740  11.994  20.546  0.00  0.00    +0.000 C 
ATOM     28  O   UNL     1       0.902  11.511  19.208  0.00  0.00    +0.000 OA
ENDBRANCH  17  19
ENDBRANCH  16  17
ENDBRANCH  15  16
ENDBRANCH   1  15
TORSDOF 6
ENDMDL
MODEL 7
REMARK VINA RESULT:      -7.9      3.110      9.009
REMARK  Name = 
REMARK  8 active torsions:
REMARK  status: ('A' for Active; 'I' for Inactive)
REMARK    1  A    between atoms: C_1  and  O_2
REMARK    2  A    between atoms: O_2  and  C_3
REMARK    3  A    between atoms: C_8  and  C_9
REMARK    4  A    between atoms: C_9  and  O_11
REMARK    5  A    between atoms: O_11  and  C_12
REMARK    6  A    between atoms: C_12  and  C_13
REMARK    7  A    between atoms: C_13  and  C_15
REMARK    8  A    between atoms: C_25  and  C_26
REMARK                            x       y       z     vdW  Elec       q    Type
REMARK                         _______ _______ _______ _____ _____    ______ ____
ROOT
ATOM      1  C   UNL     1       2.690   6.266  18.970  0.00  0.00    +0.000 C 
ATOM      2  O   UNL     1       2.138   5.402  18.298  0.00  0.00    +0.000 OA
ENDROOT
BRANCH   1   8
ATOM      3  C   UNL     1      -0.241  10.903  21.485  0.00  0.00    +0.000 A 
ATOM      4  C   UNL     1      -0.235   9.980  22.539  0.00  0.00    +0.000 A 
ATOM      5  C   UNL     1       0.378   8.730  22.418  0.00  0.00    +0.000 A 
ATOM      6  C   UNL     1       0.984   8.460  21.195  0.00  0.00    +0.000 A 
ATOM      7  O   UNL     1       1.632   7.314  20.879  0.00  0.00    +0.000 OA
ATOM      8  C   UNL     1       2.049   7.413  19.575  0.00  0.00    +0.000 A 
ATOM      9  C   UNL     1       1.694   8.659  19.066  0.00  0.00    +0.000 A 
ATOM     10  C   UNL     1       1.933   9.202  17.704  0.00  0.00    +0.000 C 
ATOM     11  C   UNL     1       0.999   9.333  20.120  0.00  0.00    +0.000 A 
ATOM     12  C   UNL     1       0.372  10.586  20.264  0.00  0.00    +0.000 A 
BRANCH   3  14
ATOM     13  C   UNL     1      -1.898  12.036  22.757  0.00  0.00    +0.000 C 
ATOM     14  O   UNL     1      -0.878  12.083  21.767  0.00  0.00    +0.000 OA
ENDBRANCH   3  14
ENDBRANCH   1   8
BRANCH   1  15
ATOM     15  O   UNL     1       4.016   6.250  19.292  0.00  0.00    +0.000 OA
BRANCH  15  16
ATOM     16  C   UNL     1       4.582   4.943  19.403  0.00  0.00    +0.000 C 
BRANCH  16  17
ATOM     17  C   UNL     1       5.941   4.917  18.707  0.00  0.00    +0.000 C 
ATOM     18  O   UNL     1       6.994   5.110  19.315  0.00  0.00    +0.000 OA
BRANCH  17  19
ATOM     19  C   UNL     1       5.998   4.654  17.242  0.00  0.00    +0.000 A 
ATOM     20  C   UNL     1       4.955   3.913  16.661  0.00  0.00    +0.000 A 
ATOM     21  C   UNL     1       4.946   3.652  15.290  0.00  0.00    +0.000 A 
ATOM     22  C   UNL     1       5.983   4.125  14.492  0.00  0.00    +0.000 A 
ATOM     23  C   UNL     1       7.018   4.872  15.061  0.00  0.00    +0.000 A 
ATOM     24  C   UNL     1       7.038   5.125  16.435  0.00  0.00    +0.000 A 
ATOM     25  O   UNL     1       8.059   5.389  14.333  0.00  0.00    +0.000 OA
ATOM     26  C   UNL     1       7.759   5.399  12.932  0.00  0.00    +0.000 C 
ATOM     27  C   UNL     1       7.164   4.068  12.499  0.00  0.00    +0.000 C 
ATOM     28  O   UNL     1       5.915   3.830  13.155  0.00  0.00    +0.000 OA
ENDBRANCH  17  19
ENDBRANCH  16  17
ENDBRANCH  15  16
ENDBRANCH   1  15
TORSDOF 6
ENDMDL
MODEL 8
REMARK VINA RESULT:      -7.8      2.339      3.696
REMARK  Name = 
REMARK  8 active torsions:
REMARK  status: ('A' for Active; 'I' for Inactive)
REMARK    1  A    between atoms: C_1  and  O_2
REMARK    2  A    between atoms: O_2  and  C_3
REMARK    3  A    between atoms: C_8  and  C_9
REMARK    4  A    between atoms: C_9  and  O_11
REMARK    5  A    between atoms: O_11  and  C_12
REMARK    6  A    between atoms: C_12  and  C_13
REMARK    7  A    between atoms: C_13  and  C_15
REMARK    8  A    between atoms: C_25  and  C_26
REMARK                            x       y       z     vdW  Elec       q    Type
REMARK                         _______ _______ _______ _____ _____    ______ ____
ROOT
ATOM      1  C   UNL     1       6.582   6.108  17.516  0.00  0.00    +0.000 C 
ATOM      2  O   UNL     1       7.577   6.656  17.978  0.00  0.00    +0.000 OA
ENDROOT
BRANCH   1   8
ATOM      3  C   UNL     1       6.179   3.230  12.228  0.00  0.00    +0.000 A 
ATOM      4  C   UNL     1       7.158   4.191  11.942  0.00  0.00    +0.000 A 
ATOM      5  C   UNL     1       7.606   5.094  12.909  0.00  0.00    +0.000 A 
ATOM      6  C   UNL     1       7.027   4.980  14.169  0.00  0.00    +0.000 A 
ATOM      7  O   UNL     1       7.326   5.753  15.240  0.00  0.00    +0.000 OA
ATOM      8  C   UNL     1       6.518   5.363  16.279  0.00  0.00    +0.000 A 
ATOM      9  C   UNL     1       5.720   4.297  15.872  0.00  0.00    +0.000 A 
ATOM     10  C   UNL     1       4.696   3.560  16.655  0.00  0.00    +0.000 C 
ATOM     11  C   UNL     1       6.052   4.056  14.501  0.00  0.00    +0.000 A 
ATOM     12  C   UNL     1       5.613   3.156  13.509  0.00  0.00    +0.000 A 
BRANCH   3  14
ATOM     13  C   UNL     1       6.496   1.149  11.125  0.00  0.00    +0.000 C 
ATOM     14  O   UNL     1       5.855   2.418  11.173  0.00  0.00    +0.000 OA
ENDBRANCH   3  14
ENDBRANCH   1   8
BRANCH   1  15
ATOM     15  O   UNL     1       5.368   6.084  18.138  0.00  0.00    +0.000 OA
BRANCH  15  16
ATOM     16  C   UNL     1       4.410   6.999  17.603  0.00  0.00    +0.000 C 
BRANCH  16  17
ATOM     17  C   UNL     1       3.043   6.723  18.224  0.00  0.00    +0.000 C 
ATOM     18  O   UNL     1       2.564   5.590  18.282  0.00  0.00    +0.000 OA
BRANCH  17  19
ATOM     19  C   UNL     1       2.256   7.862  18.776  0.00  0.00    +0.000 A 
ATOM     20  C   UNL     1       1.928   8.920  17.912  0.00  0.00    +0.000 A 
ATOM     21  C   UNL     1       1.176  10.004  18.369  0.00  0.00    +0.000 A 
ATOM     22  C   UNL     1       0.754  10.039  19.694  0.00  0.00    +0.000 A 
ATOM     23  C   UNL     1       1.067   8.984  20.556  0.00  0.00    +0.000 A 
ATOM     24  C   UNL     1       1.830   7.904  20.106  0.00  0.00    +0.000 A 
ATOM     25  O   UNL     1       0.664   8.941  21.866  0.00  0.00    +0.000 OA
ATOM     26  C   UNL     1      -0.393   9.875  22.117  0.00  0.00    +0.000 C 
ATOM     27  C   UNL     1      -0.073  11.229  21.503  0.00  0.00    +0.000 C 
ATOM     28  O   UNL     1       0.023  11.133  20.079  0.00  0.00    +0.000 OA
ENDBRANCH  17  19
ENDBRANCH  16  17
ENDBRANCH  15  16
ENDBRANCH   1  15
TORSDOF 6
ENDMDL
MODEL 9
REMARK VINA RESULT:      -7.8      4.305      6.289
REMARK  Name = 
REMARK  8 active torsions:
REMARK  status: ('A' for Active; 'I' for Inactive)
REMARK    1  A    between atoms: C_1  and  O_2
REMARK    2  A    between atoms: O_2  and  C_3
REMARK    3  A    between atoms: C_8  and  C_9
REMARK    4  A    between atoms: C_9  and  O_11
REMARK    5  A    between atoms: O_11  and  C_12
REMARK    6  A    between atoms: C_12  and  C_13
REMARK    7  A    between atoms: C_13  and  C_15
REMARK    8  A    between atoms: C_25  and  C_26
REMARK                            x       y       z     vdW  Elec       q    Type
REMARK                         _______ _______ _______ _____ _____    ______ ____
ROOT
ATOM      1  C   UNL     1       1.761   6.971  20.339  0.00  0.00    +0.000 C 
ATOM      2  O   UNL     1       1.056   6.365  21.139  0.00  0.00    +0.000 OA
ENDROOT
BRANCH   1   8
ATOM      3  C   UNL     1       5.364   4.518  16.166  0.00  0.00    +0.000 A 
ATOM      4  C   UNL     1       5.354   5.860  15.763  0.00  0.00    +0.000 A 
ATOM      5  C   UNL     1       4.648   6.835  16.473  0.00  0.00    +0.000 A 
ATOM      6  C   UNL     1       3.962   6.396  17.600  0.00  0.00    +0.000 A 
ATOM      7  O   UNL     1       3.225   7.181  18.422  0.00  0.00    +0.000 OA
ATOM      8  C   UNL     1       2.674   6.376  19.389  0.00  0.00    +0.000 A 
ATOM      9  C   UNL     1       3.101   5.064  19.200  0.00  0.00    +0.000 A 
ATOM     10  C   UNL     1       2.757   3.859  19.997  0.00  0.00    +0.000 C 
ATOM     11  C   UNL     1       3.933   5.083  18.036  0.00  0.00    +0.000 A 
ATOM     12  C   UNL     1       4.650   4.116  17.304  0.00  0.00    +0.000 A 
BRANCH   3  14
ATOM     13  C   UNL     1       6.307   4.111  14.022  0.00  0.00    +0.000 C 
ATOM     14  O   UNL     1       6.109   3.692  15.367  0.00  0.00    +0.000 OA
ENDBRANCH   3  14
ENDBRANCH   1   8
BRANCH   1  15
ATOM     15  O   UNL     1       1.755   8.327  20.193  0.00  0.00    +0.000 OA
BRANCH  15  16
ATOM     16  C   UNL     1       0.931   9.019  21.134  0.00  0.00    +0.000 C 
BRANCH  16  17
ATOM     17  C   UNL     1       0.718  10.456  20.661  0.00  0.00    +0.000 C 
ATOM     18  O   UNL     1       1.482  11.371  20.972  0.00  0.00    +0.000 OA
BRANCH  17  19
ATOM     19  C   UNL     1      -0.455  10.766  19.796  0.00  0.00    +0.000 A 
ATOM     20  C   UNL     1      -1.380  11.719  20.253  0.00  0.00    +0.000 A 
ATOM     21  C   UNL     1      -2.488  12.064  19.477  0.00  0.00    +0.000 A 
ATOM     22  C   UNL     1      -2.680  11.453  18.242  0.00  0.00    +0.000 A 
ATOM     23  C   UNL     1      -1.758  10.512  17.776  0.00  0.00    +0.000 A 
ATOM     24  C   UNL     1      -0.655  10.155  18.555  0.00  0.00    +0.000 A 
ATOM     25  O   UNL     1      -1.871   9.888  16.560  0.00  0.00    +0.000 OA
ATOM     26  C   UNL     1      -2.793  10.577  15.706  0.00  0.00    +0.000 C 
ATOM     27  C   UNL     1      -4.066  10.929  16.459  0.00  0.00    +0.000 C 
ATOM     28  O   UNL     1      -3.790  11.834  17.532  0.00  0.00    +0.000 OA
ENDBRANCH  17  19
ENDBRANCH  16  17
ENDBRANCH  15  16
ENDBRANCH   1  15
TORSDOF 6
ENDMDL
