MODEL 1
REMARK VINA RESULT:      -7.2      0.000      0.000
REMARK  Name = 
REMARK  8 active torsions:
REMARK  status: ('A' for Active; 'I' for Inactive)
REMARK    1  A    between atoms: C_1  and  C_2
REMARK    2  A    between atoms: C_2  and  C_3
REMARK    3  A    between atoms: C_2  and  N_6
REMARK    4  A    between atoms: C_3  and  C_4
REMARK    5  A    between atoms: N_6  and  S_7
REMARK    6  A    between atoms: S_7  and  C_10
REMARK    7  A    between atoms: C_13  and  N_14
REMARK    8  A    between atoms: C_18  and  C_19
REMARK                            x       y       z     vdW  Elec       q    Type
REMARK                         _______ _______ _______ _____ _____    ______ ____
ROOT
ATOM      1  C   UNL     1       5.786   5.264  17.436  0.00  0.00    +0.000 A 
ATOM      2  C   UNL     1       5.703   4.203  18.305  0.00  0.00    +0.000 A 
ATOM      3  N   UNL     1       4.593   3.930  19.037  0.00  0.00    +0.000 NA
ATOM      4  C   UNL     1       3.504   4.748  18.955  0.00  0.00    +0.000 A 
ATOM      5  C   UNL     1       3.575   5.902  18.149  0.00  0.00    +0.000 A 
ATOM      6 CL   UNL     1       2.366   7.141  18.126  0.00  0.00    +0.000 Cl
ATOM      7  C   UNL     1       4.718   6.149  17.376  0.00  0.00    +0.000 A 
ENDROOT
BRANCH   4   8
ATOM      8  N   UNL     1       2.400   4.359  19.674  0.00  0.00    +0.000 N 
ATOM      9  C   UNL     1       2.402   4.454  21.130  0.00  0.00    +0.000 C 
ATOM     10  C   UNL     1       1.560   3.271  21.581  0.00  0.00    +0.000 C 
ATOM     11  C   UNL     1       0.548   3.084  20.462  0.00  0.00    +0.000 C 
ATOM     12  C   UNL     1       1.240   3.604  19.184  0.00  0.00    +0.000 C 
ATOM     13  C   UNL     1       1.598   2.439  18.264  0.00  0.00    +0.000 C 
ENDBRANCH   4   8
BRANCH   1  14
ATOM     14  S   UNL     1       7.248   5.574  16.511  0.00  0.00    +0.000 S 
ATOM     15  O   UNL     1       8.168   4.479  16.715  0.00  0.00    +0.000 OA
ATOM     16  O   UNL     1       7.613   6.946  16.779  0.00  0.00    +0.000 OA
BRANCH  14  17
ATOM     17  N   UNL     1       6.703   5.522  14.905  0.00  0.00    +0.000 NA
ATOM     18  H   UNL     1       6.083   6.308  14.693  0.00  0.00    +0.000 HD
BRANCH  17  20
ATOM     19  C   UNL     1       4.852   3.916  14.415  0.00  0.00    +0.000 C 
ATOM     20  C   UNL     1       6.341   4.217  14.283  0.00  0.00    +0.000 C 
BRANCH  20  21
ATOM     21  C   UNL     1       6.802   4.178  12.808  0.00  0.00    +0.000 C 
BRANCH  21  22
ATOM     22  C   UNL     1       6.161   3.011  12.075  0.00  0.00    +0.000 C 
ATOM     23  N   UNL     1       5.630   2.043  11.466  0.00  0.00    +0.000 NA
ENDBRANCH  21  22
ENDBRANCH  20  21
ENDBRANCH  17  20
ENDBRANCH  14  17
ENDBRANCH   1  14
TORSDOF 6
ENDMDL
MODEL 2
REMARK VINA RESULT:      -7.2      1.158      1.422
REMARK  Name = 
REMARK  8 active torsions:
REMARK  status: ('A' for Active; 'I' for Inactive)
REMARK    1  A    between atoms: C_1  and  C_2
REMARK    2  A    between atoms: C_2  and  C_3
REMARK    3  A    between atoms: C_2  and  N_6
REMARK    4  A    between atoms: C_3  and  C_4
REMARK    5  A    between atoms: N_6  and  S_7
REMARK    6  A    between atoms: S_7  and  C_10
REMARK    7  A    between atoms: C_13  and  N_14
REMARK    8  A    between atoms: C_18  and  C_19
REMARK                            x       y       z     vdW  Elec       q    Type
REMARK                         _______ _______ _______ _____ _____    ______ ____
ROOT
ATOM      1  C   UNL     1       5.714   5.232  17.468  0.00  0.00    +0.000 A 
ATOM      2  C   UNL     1       5.716   4.244  18.425  0.00  0.00    +0.000 A 
ATOM      3  N   UNL     1       4.637   3.961  19.198  0.00  0.00    +0.000 NA
ATOM      4  C   UNL     1       3.494   4.696  19.069  0.00  0.00    +0.000 A 
ATOM      5  C   UNL     1       3.476   5.780  18.169  0.00  0.00    +0.000 A 
ATOM      6 CL   UNL     1       2.186   6.930  18.067  0.00  0.00    +0.000 Cl
ATOM      7  C   UNL     1       4.588   6.036  17.356  0.00  0.00    +0.000 A 
ENDROOT
BRANCH   4   8
ATOM      8  N   UNL     1       2.429   4.297  19.840  0.00  0.00    +0.000 N 
ATOM      9  C   UNL     1       2.542   4.278  21.295  0.00  0.00    +0.000 C 
ATOM     10  C   UNL     1       1.682   3.098  21.720  0.00  0.00    +0.000 C 
ATOM     11  C   UNL     1       0.584   3.039  20.670  0.00  0.00    +0.000 C 
ATOM     12  C   UNL     1       1.203   3.628  19.385  0.00  0.00    +0.000 C 
ATOM     13  C   UNL     1       1.439   2.525  18.357  0.00  0.00    +0.000 C 
ENDBRANCH   4   8
BRANCH   1  14
ATOM     14  S   UNL     1       7.139   5.559  16.493  0.00  0.00    +0.000 S 
ATOM     15  O   UNL     1       8.053   4.447  16.617  0.00  0.00    +0.000 OA
ATOM     16  O   UNL     1       7.534   6.915  16.794  0.00  0.00    +0.000 OA
BRANCH  14  17
ATOM     17  N   UNL     1       6.526   5.572  14.911  0.00  0.00    +0.000 NA
ATOM     18  H   UNL     1       5.756   6.238  14.812  0.00  0.00    +0.000 HD
BRANCH  17  20
ATOM     19  C   UNL     1       4.923   3.911  13.950  0.00  0.00    +0.000 C 
ATOM     20  C   UNL     1       6.385   4.295  14.156  0.00  0.00    +0.000 C 
BRANCH  20  21
ATOM     21  C   UNL     1       7.148   4.377  12.814  0.00  0.00    +0.000 C 
BRANCH  21  22
ATOM     22  C   UNL     1       8.260   5.411  12.890  0.00  0.00    +0.000 C 
ATOM     23  N   UNL     1       9.182   6.269  12.954  0.00  0.00    +0.000 NA
ENDBRANCH  21  22
ENDBRANCH  20  21
ENDBRANCH  17  20
ENDBRANCH  14  17
ENDBRANCH   1  14
TORSDOF 6
ENDMDL
MODEL 3
REMARK VINA RESULT:      -7.1      0.990      1.271
REMARK  Name = 
REMARK  8 active torsions:
REMARK  status: ('A' for Active; 'I' for Inactive)
REMARK    1  A    between atoms: C_1  and  C_2
REMARK    2  A    between atoms: C_2  and  C_3
REMARK    3  A    between atoms: C_2  and  N_6
REMARK    4  A    between atoms: C_3  and  C_4
REMARK    5  A    between atoms: N_6  and  S_7
REMARK    6  A    between atoms: S_7  and  C_10
REMARK    7  A    between atoms: C_13  and  N_14
REMARK    8  A    between atoms: C_18  and  C_19
REMARK                            x       y       z     vdW  Elec       q    Type
REMARK                         _______ _______ _______ _____ _____    ______ ____
ROOT
ATOM      1  C   UNL     1       5.750   5.773  18.057  0.00  0.00    +0.000 A 
ATOM      2  C   UNL     1       5.702   4.705  18.922  0.00  0.00    +0.000 A 
ATOM      3  N   UNL     1       4.545   4.236  19.454  0.00  0.00    +0.000 NA
ATOM      4  C   UNL     1       3.362   4.852  19.166  0.00  0.00    +0.000 A 
ATOM      5  C   UNL     1       3.372   6.008  18.360  0.00  0.00    +0.000 A 
ATOM      6 CL   UNL     1       1.990   7.016  18.100  0.00  0.00    +0.000 Cl
ATOM      7  C   UNL     1       4.572   6.458  17.793  0.00  0.00    +0.000 A 
ENDROOT
BRANCH   4   8
ATOM      8  N   UNL     1       2.234   4.269  19.690  0.00  0.00    +0.000 N 
ATOM      9  C   UNL     1       2.026   4.241  21.134  0.00  0.00    +0.000 C 
ATOM     10  C   UNL     1       1.298   2.929  21.380  0.00  0.00    +0.000 C 
ATOM     11  C   UNL     1       0.482   2.711  20.116  0.00  0.00    +0.000 C 
ATOM     12  C   UNL     1       1.264   3.418  18.988  0.00  0.00    +0.000 C 
ATOM     13  C   UNL     1       1.898   2.389  18.057  0.00  0.00    +0.000 C 
ENDBRANCH   4   8
BRANCH   1  14
ATOM     14  S   UNL     1       7.276   6.342  17.395  0.00  0.00    +0.000 S 
ATOM     15  O   UNL     1       8.288   6.259  18.422  0.00  0.00    +0.000 OA
ATOM     16  O   UNL     1       6.981   7.575  16.703  0.00  0.00    +0.000 OA
BRANCH  14  17
ATOM     17  N   UNL     1       7.630   5.188  16.203  0.00  0.00    +0.000 NA
ATOM     18  H   UNL     1       8.636   5.012  16.138  0.00  0.00    +0.000 HD
BRANCH  17  20
ATOM     19  C   UNL     1       7.812   5.369  13.717  0.00  0.00    +0.000 C 
ATOM     20  C   UNL     1       6.883   5.194  14.914  0.00  0.00    +0.000 C 
BRANCH  20  21
ATOM     21  C   UNL     1       6.021   3.917  14.786  0.00  0.00    +0.000 C 
BRANCH  21  22
ATOM     22  C   UNL     1       5.795   3.566  13.324  0.00  0.00    +0.000 C 
ATOM     23  N   UNL     1       5.607   3.274  12.112  0.00  0.00    +0.000 NA
ENDBRANCH  21  22
ENDBRANCH  20  21
ENDBRANCH  17  20
ENDBRANCH  14  17
ENDBRANCH   1  14
TORSDOF 6
ENDMDL
MODEL 4
REMARK VINA RESULT:      -7.0      1.838      2.225
REMARK  Name = 
REMARK  8 active torsions:
REMARK  status: ('A' for Active; 'I' for Inactive)
REMARK    1  A    between atoms: C_1  and  C_2
REMARK    2  A    between atoms: C_2  and  C_3
REMARK    3  A    between atoms: C_2  and  N_6
REMARK    4  A    between atoms: C_3  and  C_4
REMARK    5  A    between atoms: N_6  and  S_7
REMARK    6  A    between atoms: S_7  and  C_10
REMARK    7  A    between atoms: C_13  and  N_14
REMARK    8  A    between atoms: C_18  and  C_19
REMARK                            x       y       z     vdW  Elec       q    Type
REMARK                         _______ _______ _______ _____ _____    ______ ____
ROOT
ATOM      1  C   UNL     1       5.624   4.448  16.690  0.00  0.00    +0.000 A 
ATOM      2  C   UNL     1       5.927   4.989  17.918  0.00  0.00    +0.000 A 
ATOM      3  N   UNL     1       5.217   4.715  19.042  0.00  0.00    +0.000 NA
ATOM      4  C   UNL     1       4.126   3.899  18.977  0.00  0.00    +0.000 A 
ATOM      5  C   UNL     1       3.720   3.397  17.724  0.00  0.00    +0.000 A 
ATOM      6 CL   UNL     1       2.238   2.543  17.459  0.00  0.00    +0.000 Cl
ATOM      7  C   UNL     1       4.485   3.663  16.581  0.00  0.00    +0.000 A 
ENDROOT
BRANCH   4   8
ATOM      8  N   UNL     1       3.508   3.619  20.173  0.00  0.00    +0.000 N 
ATOM      9  C   UNL     1       3.583   2.276  20.740  0.00  0.00    +0.000 C 
ATOM     10  C   UNL     1       2.246   2.094  21.442  0.00  0.00    +0.000 C 
ATOM     11  C   UNL     1       1.869   3.495  21.897  0.00  0.00    +0.000 C 
ATOM     12  C   UNL     1       2.536   4.455  20.889  0.00  0.00    +0.000 C 
ATOM     13  C   UNL     1       1.483   5.096  19.990  0.00  0.00    +0.000 C 
ENDBRANCH   4   8
BRANCH   1  14
ATOM     14  S   UNL     1       6.576   4.835  15.264  0.00  0.00    +0.000 S 
ATOM     15  O   UNL     1       7.977   4.681  15.584  0.00  0.00    +0.000 OA
ATOM     16  O   UNL     1       6.038   6.069  14.741  0.00  0.00    +0.000 OA
BRANCH  14  17
ATOM     17  N   UNL     1       6.141   3.613  14.171  0.00  0.00    +0.000 NA
ATOM     18  H   UNL     1       6.618   2.733  14.382  0.00  0.00    +0.000 HD
BRANCH  17  20
ATOM     19  C   UNL     1       7.307   4.014  11.996  0.00  0.00    +0.000 C 
ATOM     20  C   UNL     1       5.970   3.932  12.726  0.00  0.00    +0.000 C 
BRANCH  20  21
ATOM     21  C   UNL     1       5.018   2.912  12.059  0.00  0.00    +0.000 C 
BRANCH  21  22
ATOM     22  C   UNL     1       5.806   1.784  11.412  0.00  0.00    +0.000 C 
ATOM     23  N   UNL     1       6.460   0.849  10.876  0.00  0.00    +0.000 NA
ENDBRANCH  21  22
ENDBRANCH  20  21
ENDBRANCH  17  20
ENDBRANCH  14  17
ENDBRANCH   1  14
TORSDOF 6
ENDMDL
MODEL 5
REMARK VINA RESULT:      -6.9      1.251      1.501
REMARK  Name = 
REMARK  8 active torsions:
REMARK  status: ('A' for Active; 'I' for Inactive)
REMARK    1  A    between atoms: C_1  and  C_2
REMARK    2  A    between atoms: C_2  and  C_3
REMARK    3  A    between atoms: C_2  and  N_6
REMARK    4  A    between atoms: C_3  and  C_4
REMARK    5  A    between atoms: N_6  and  S_7
REMARK    6  A    between atoms: S_7  and  C_10
REMARK    7  A    between atoms: C_13  and  N_14
REMARK    8  A    between atoms: C_18  and  C_19
REMARK                            x       y       z     vdW  Elec       q    Type
REMARK                         _______ _______ _______ _____ _____    ______ ____
ROOT
ATOM      1  C   UNL     1       5.211   4.704  16.508  0.00  0.00    +0.000 A 
ATOM      2  C   UNL     1       5.145   3.545  17.244  0.00  0.00    +0.000 A 
ATOM      3  N   UNL     1       4.268   3.366  18.264  0.00  0.00    +0.000 NA
ATOM      4  C   UNL     1       3.426   4.377  18.626  0.00  0.00    +0.000 A 
ATOM      5  C   UNL     1       3.523   5.617  17.963  0.00  0.00    +0.000 A 
ATOM      6 CL   UNL     1       2.686   7.047  18.462  0.00  0.00    +0.000 Cl
ATOM      7  C   UNL     1       4.411   5.772  16.890  0.00  0.00    +0.000 A 
ENDROOT
BRANCH   4   8
ATOM      8  N   UNL     1       2.525   4.087  19.621  0.00  0.00    +0.000 N 
ATOM      9  C   UNL     1       2.946   4.098  21.019  0.00  0.00    +0.000 C 
ATOM     10  C   UNL     1       2.113   3.005  21.668  0.00  0.00    +0.000 C 
ATOM     11  C   UNL     1       0.814   3.006  20.878  0.00  0.00    +0.000 C 
ATOM     12  C   UNL     1       1.184   3.508  19.467  0.00  0.00    +0.000 C 
ATOM     13  C   UNL     1       1.112   2.362  18.461  0.00  0.00    +0.000 C 
ENDBRANCH   4   8
BRANCH   1  14
ATOM     14  S   UNL     1       6.366   4.885  15.195  0.00  0.00    +0.000 S 
ATOM     15  O   UNL     1       7.693   4.624  15.702  0.00  0.00    +0.000 OA
ATOM     16  O   UNL     1       6.027   6.120  14.526  0.00  0.00    +0.000 OA
BRANCH  14  17
ATOM     17  N   UNL     1       5.942   3.628  14.137  0.00  0.00    +0.000 NA
ATOM     18  H   UNL     1       6.347   2.736  14.433  0.00  0.00    +0.000 HD
BRANCH  17  20
ATOM     19  C   UNL     1       7.297   3.883  12.052  0.00  0.00    +0.000 C 
ATOM     20  C   UNL     1       5.902   3.871  12.668  0.00  0.00    +0.000 C 
BRANCH  20  21
ATOM     21  C   UNL     1       4.982   2.839  11.977  0.00  0.00    +0.000 C 
BRANCH  21  22
ATOM     22  C   UNL     1       5.799   1.702  11.384  0.00  0.00    +0.000 C 
ATOM     23  N   UNL     1       6.477   0.759  10.892  0.00  0.00    +0.000 NA
ENDBRANCH  21  22
ENDBRANCH  20  21
ENDBRANCH  17  20
ENDBRANCH  14  17
ENDBRANCH   1  14
TORSDOF 6
ENDMDL
MODEL 6
REMARK VINA RESULT:      -6.8      1.766      2.234
REMARK  Name = 
REMARK  8 active torsions:
REMARK  status: ('A' for Active; 'I' for Inactive)
REMARK    1  A    between atoms: C_1  and  C_2
REMARK    2  A    between atoms: C_2  and  C_3
REMARK    3  A    between atoms: C_2  and  N_6
REMARK    4  A    between atoms: C_3  and  C_4
REMARK    5  A    between atoms: N_6  and  S_7
REMARK    6  A    between atoms: S_7  and  C_10
REMARK    7  A    between atoms: C_13  and  N_14
REMARK    8  A    between atoms: C_18  and  C_19
REMARK                            x       y       z     vdW  Elec       q    Type
REMARK                         _______ _______ _______ _____ _____    ______ ____
ROOT
ATOM      1  C   UNL     1       5.612   4.456  16.607  0.00  0.00    +0.000 A 
ATOM      2  C   UNL     1       6.107   4.428  17.889  0.00  0.00    +0.000 A 
ATOM      3  N   UNL     1       5.339   4.151  18.972  0.00  0.00    +0.000 NA
ATOM      4  C   UNL     1       4.002   3.922  18.820  0.00  0.00    +0.000 A 
ATOM      5  C   UNL     1       3.431   4.034  17.536  0.00  0.00    +0.000 A 
ATOM      6 CL   UNL     1       1.728   3.996  17.230  0.00  0.00    +0.000 Cl
ATOM      7  C   UNL     1       4.246   4.288  16.425  0.00  0.00    +0.000 A 
ENDROOT
BRANCH   4   8
ATOM      8  N   UNL     1       3.313   3.581  19.959  0.00  0.00    +0.000 N 
ATOM      9  C   UNL     1       2.844   2.212  20.149  0.00  0.00    +0.000 C 
ATOM     10  C   UNL     1       1.538   2.369  20.913  0.00  0.00    +0.000 C 
ATOM     11  C   UNL     1       1.743   3.621  21.750  0.00  0.00    +0.000 C 
ATOM     12  C   UNL     1       2.746   4.490  20.963  0.00  0.00    +0.000 C 
ATOM     13  C   UNL     1       2.041   5.708  20.371  0.00  0.00    +0.000 C 
ENDBRANCH   4   8
BRANCH   1  14
ATOM     14  S   UNL     1       6.651   4.820  15.236  0.00  0.00    +0.000 S 
ATOM     15  O   UNL     1       8.029   4.746  15.664  0.00  0.00    +0.000 OA
ATOM     16  O   UNL     1       6.101   6.002  14.614  0.00  0.00    +0.000 OA
BRANCH  14  17
ATOM     17  N   UNL     1       6.352   3.530  14.176  0.00  0.00    +0.000 NA
ATOM     18  H   UNL     1       7.036   2.778  14.297  0.00  0.00    +0.000 HD
BRANCH  17  20
ATOM     19  C   UNL     1       7.000   3.438  11.764  0.00  0.00    +0.000 C 
ATOM     20  C   UNL     1       5.919   3.800  12.776  0.00  0.00    +0.000 C 
BRANCH  20  21
ATOM     21  C   UNL     1       4.588   3.072  12.475  0.00  0.00    +0.000 C 
BRANCH  21  22
ATOM     22  C   UNL     1       3.987   3.568  11.170  0.00  0.00    +0.000 C 
ATOM     23  N   UNL     1       3.489   3.979  10.087  0.00  0.00    +0.000 NA
ENDBRANCH  21  22
ENDBRANCH  20  21
ENDBRANCH  17  20
ENDBRANCH  14  17
ENDBRANCH   1  14
TORSDOF 6
ENDMDL
MODEL 7
REMARK VINA RESULT:      -6.7      1.167      1.433
REMARK  Name = 
REMARK  8 active torsions:
REMARK  status: ('A' for Active; 'I' for Inactive)
REMARK    1  A    between atoms: C_1  and  C_2
REMARK    2  A    between atoms: C_2  and  C_3
REMARK    3  A    between atoms: C_2  and  N_6
REMARK    4  A    between atoms: C_3  and  C_4
REMARK    5  A    between atoms: N_6  and  S_7
REMARK    6  A    between atoms: S_7  and  C_10
REMARK    7  A    between atoms: C_13  and  N_14
REMARK    8  A    between atoms: C_18  and  C_19
REMARK                            x       y       z     vdW  Elec       q    Type
REMARK                         _______ _______ _______ _____ _____    ______ ____
ROOT
ATOM      1  C   UNL     1       4.933   5.407  16.927  0.00  0.00    +0.000 A 
ATOM      2  C   UNL     1       4.931   4.135  17.448  0.00  0.00    +0.000 A 
ATOM      3  N   UNL     1       4.093   3.744  18.441  0.00  0.00    +0.000 NA
ATOM      4  C   UNL     1       3.224   4.640  18.993  0.00  0.00    +0.000 A 
ATOM      5  C   UNL     1       3.255   5.980  18.557  0.00  0.00    +0.000 A 
ATOM      6 CL   UNL     1       2.379   7.264  19.319  0.00  0.00    +0.000 Cl
ATOM      7  C   UNL     1       4.104   6.357  17.509  0.00  0.00    +0.000 A 
ENDROOT
BRANCH   4   8
ATOM      8  N   UNL     1       2.364   4.142  19.942  0.00  0.00    +0.000 N 
ATOM      9  C   UNL     1       2.782   4.053  21.337  0.00  0.00    +0.000 C 
ATOM     10  C   UNL     1       2.083   2.807  21.857  0.00  0.00    +0.000 C 
ATOM     11  C   UNL     1       0.792   2.742  21.058  0.00  0.00    +0.000 C 
ATOM     12  C   UNL     1       1.099   3.431  19.712  0.00  0.00    +0.000 C 
ATOM     13  C   UNL     1       1.161   2.398  18.589  0.00  0.00    +0.000 C 
ENDBRANCH   4   8
BRANCH   1  14
ATOM     14  S   UNL     1       6.040   5.864  15.641  0.00  0.00    +0.000 S 
ATOM     15  O   UNL     1       7.334   6.146  16.219  0.00  0.00    +0.000 OA
ATOM     16  O   UNL     1       5.337   6.825  14.823  0.00  0.00    +0.000 OA
BRANCH  14  17
ATOM     17  N   UNL     1       6.166   4.444  14.722  0.00  0.00    +0.000 NA
ATOM     18  H   UNL     1       6.688   3.718  15.220  0.00  0.00    +0.000 HD
BRANCH  17  20
ATOM     19  C   UNL     1       7.788   5.072  12.926  0.00  0.00    +0.000 C 
ATOM     20  C   UNL     1       6.402   4.525  13.253  0.00  0.00    +0.000 C 
BRANCH  20  21
ATOM     21  C   UNL     1       6.163   3.147  12.593  0.00  0.00    +0.000 C 
BRANCH  21  22
ATOM     22  C   UNL     1       4.896   3.165  11.754  0.00  0.00    +0.000 C 
ATOM     23  N   UNL     1       3.844   3.180  11.058  0.00  0.00    +0.000 NA
ENDBRANCH  21  22
ENDBRANCH  20  21
ENDBRANCH  17  20
ENDBRANCH  14  17
ENDBRANCH   1  14
TORSDOF 6
ENDMDL
MODEL 8
REMARK VINA RESULT:      -6.7      2.451      3.937
REMARK  Name = 
REMARK  8 active torsions:
REMARK  status: ('A' for Active; 'I' for Inactive)
REMARK    1  A    between atoms: C_1  and  C_2
REMARK    2  A    between atoms: C_2  and  C_3
REMARK    3  A    between atoms: C_2  and  N_6
REMARK    4  A    between atoms: C_3  and  C_4
REMARK    5  A    between atoms: N_6  and  S_7
REMARK    6  A    between atoms: S_7  and  C_10
REMARK    7  A    between atoms: C_13  and  N_14
REMARK    8  A    between atoms: C_18  and  C_19
REMARK                            x       y       z     vdW  Elec       q    Type
REMARK                         _______ _______ _______ _____ _____    ______ ____
ROOT
ATOM      1  C   UNL     1       5.144   5.003  16.875  0.00  0.00    +0.000 A 
ATOM      2  C   UNL     1       5.268   3.909  17.698  0.00  0.00    +0.000 A 
ATOM      3  N   UNL     1       4.384   3.625  18.689  0.00  0.00    +0.000 NA
ATOM      4  C   UNL     1       3.335   4.464  18.928  0.00  0.00    +0.000 A 
ATOM      5  C   UNL     1       3.220   5.648  18.173  0.00  0.00    +0.000 A 
ATOM      6 CL   UNL     1       2.082   6.906  18.517  0.00  0.00    +0.000 Cl
ATOM      7  C   UNL     1       4.123   5.908  17.133  0.00  0.00    +0.000 A 
ENDROOT
BRANCH   4   8
ATOM      8  N   UNL     1       2.451   4.064  19.902  0.00  0.00    +0.000 N 
ATOM      9  C   UNL     1       2.892   3.946  21.288  0.00  0.00    +0.000 C 
ATOM     10  C   UNL     1       2.083   2.781  21.837  0.00  0.00    +0.000 C 
ATOM     11  C   UNL     1       0.773   2.840  21.068  0.00  0.00    +0.000 C 
ATOM     12  C   UNL     1       1.117   3.482  19.708  0.00  0.00    +0.000 C 
ATOM     13  C   UNL     1       1.047   2.439  18.596  0.00  0.00    +0.000 C 
ENDBRANCH   4   8
BRANCH   1  14
ATOM     14  S   UNL     1       6.316   5.327  15.606  0.00  0.00    +0.000 S 
ATOM     15  O   UNL     1       5.748   6.279  14.680  0.00  0.00    +0.000 OA
ATOM     16  O   UNL     1       6.814   4.040  15.178  0.00  0.00    +0.000 OA
BRANCH  14  17
ATOM     17  N   UNL     1       7.584   6.085  16.440  0.00  0.00    +0.000 NA
ATOM     18  H   UNL     1       8.398   5.472  16.524  0.00  0.00    +0.000 HD
BRANCH  17  20
ATOM     19  C   UNL     1       8.081   6.515  18.852  0.00  0.00    +0.000 C 
ATOM     20  C   UNL     1       7.290   6.945  17.621  0.00  0.00    +0.000 C 
BRANCH  20  21
ATOM     21  C   UNL     1       7.534   8.433  17.277  0.00  0.00    +0.000 C 
BRANCH  21  22
ATOM     22  C   UNL     1       8.419   9.088  18.324  0.00  0.00    +0.000 C 
ATOM     23  N   UNL     1       9.154   9.632  19.193  0.00  0.00    +0.000 NA
ENDBRANCH  21  22
ENDBRANCH  20  21
ENDBRANCH  17  20
ENDBRANCH  14  17
ENDBRANCH   1  14
TORSDOF 6
ENDMDL
MODEL 9
REMARK VINA RESULT:      -6.6      4.430      6.688
REMARK  Name = 
REMARK  8 active torsions:
REMARK  status: ('A' for Active; 'I' for Inactive)
REMARK    1  A    between atoms: C_1  and  C_2
REMARK    2  A    between atoms: C_2  and  C_3
REMARK    3  A    between atoms: C_2  and  N_6
REMARK    4  A    between atoms: C_3  and  C_4
REMARK    5  A    between atoms: N_6  and  S_7
REMARK    6  A    between atoms: S_7  and  C_10
REMARK    7  A    between atoms: C_13  and  N_14
REMARK    8  A    between atoms: C_18  and  C_19
REMARK                            x       y       z     vdW  Elec       q    Type
REMARK                         _______ _______ _______ _____ _____    ______ ____
ROOT
ATOM      1  C   UNL     1       2.926   6.980  18.809  0.00  0.00    +0.000 A 
ATOM      2  C   UNL     1       2.829   7.945  17.835  0.00  0.00    +0.000 A 
ATOM      3  N   UNL     1       2.107   9.084  17.991  0.00  0.00    +0.000 NA
ATOM      4  C   UNL     1       1.404   9.294  19.142  0.00  0.00    +0.000 A 
ATOM      5  C   UNL     1       1.397   8.290  20.131  0.00  0.00    +0.000 A 
ATOM      6 CL   UNL     1       0.377   8.319  21.529  0.00  0.00    +0.000 Cl
ATOM      7  C   UNL     1       2.175   7.136  19.966  0.00  0.00    +0.000 A 
ENDROOT
BRANCH   4   8
ATOM      8  N   UNL     1       0.759  10.502  19.244  0.00  0.00    +0.000 N 
ATOM      9  C   UNL     1       1.015  11.376  20.386  0.00  0.00    +0.000 C 
ATOM     10  C   UNL     1      -0.319  12.061  20.636  0.00  0.00    +0.000 C 
ATOM     11  C   UNL     1      -0.955  12.157  19.259  0.00  0.00    +0.000 C 
ATOM     12  C   UNL     1      -0.386  10.970  18.453  0.00  0.00    +0.000 C 
ATOM     13  C   UNL     1      -1.466   9.913  18.234  0.00  0.00    +0.000 C 
ENDBRANCH   4   8
BRANCH   1  14
ATOM     14  S   UNL     1       3.875   5.522  18.557  0.00  0.00    +0.000 S 
ATOM     15  O   UNL     1       5.141   5.668  19.239  0.00  0.00    +0.000 OA
ATOM     16  O   UNL     1       3.792   5.224  17.146  0.00  0.00    +0.000 OA
BRANCH  14  17
ATOM     17  N   UNL     1       2.970   4.333  19.359  0.00  0.00    +0.000 NA
ATOM     18  H   UNL     1       3.565   3.736  19.940  0.00  0.00    +0.000 HD
BRANCH  17  20
ATOM     19  C   UNL     1       2.325   2.442  17.857  0.00  0.00    +0.000 C 
ATOM     20  C   UNL     1       1.848   3.650  18.657  0.00  0.00    +0.000 C 
BRANCH  20  21
ATOM     21  C   UNL     1       0.738   3.267  19.662  0.00  0.00    +0.000 C 
BRANCH  21  22
ATOM     22  C   UNL     1       1.332   2.958  21.027  0.00  0.00    +0.000 C 
ATOM     23  N   UNL     1       1.825   2.702  22.159  0.00  0.00    +0.000 NA
ENDBRANCH  21  22
ENDBRANCH  20  21
ENDBRANCH  17  20
ENDBRANCH  14  17
ENDBRANCH   1  14
TORSDOF 6
ENDMDL
