MODEL 1
REMARK VINA RESULT:      -7.4      0.000      0.000
REMARK  Name = 
REMARK  8 active torsions:
REMARK  status: ('A' for Active; 'I' for Inactive)
REMARK    1  A    between atoms: C_1  and  O_2
REMARK    2  A    between atoms: O_2  and  C_3
REMARK    3  A    between atoms: C_6  and  C_7
REMARK    4  A    between atoms: C_9  and  C_10
REMARK    5  A    between atoms: C_12  and  N_13
REMARK    6  A    between atoms: N_13  and  C_14
REMARK    7  A    between atoms: C_14  and  C_15
REMARK    8  A    between atoms: C_15  and  C_16
REMARK                            x       y       z     vdW  Elec       q    Type
REMARK                         _______ _______ _______ _____ _____    ______ ____
ROOT
ATOM      1  C   UNL     1       3.814   6.564  17.807  0.00  0.00    +0.000 A 
ATOM      2  N   UNL     1       4.683   6.830  16.848  0.00  0.00    +0.000 NA
ATOM      3  C   UNL     1       5.346   5.639  16.673  0.00  0.00    +0.000 A 
ATOM      4  C   UNL     1       4.830   4.663  17.499  0.00  0.00    +0.000 A 
ATOM      5  O   UNL     1       3.859   5.266  18.262  0.00  0.00    +0.000 OA
ENDROOT
BRANCH   1   9
ATOM      6  C   UNL     1       1.031   9.337  19.552  0.00  0.00    +0.000 A 
ATOM      7  C   UNL     1       1.515   9.522  18.258  0.00  0.00    +0.000 A 
ATOM      8  C   UNL     1       2.397   8.593  17.689  0.00  0.00    +0.000 A 
ATOM      9  C   UNL     1       2.829   7.471  18.410  0.00  0.00    +0.000 A 
ATOM     10  C   UNL     1       2.317   7.280  19.701  0.00  0.00    +0.000 A 
ATOM     11  C   UNL     1       1.433   8.214  20.273  0.00  0.00    +0.000 A 
BRANCH   6  13
ATOM     12  C   UNL     1       0.716  11.238  20.925  0.00  0.00    +0.000 C 
ATOM     13  O   UNL     1       0.169  10.299  20.003  0.00  0.00    +0.000 OA
ENDBRANCH   6  13
ENDBRANCH   1   9
BRANCH   3  14
ATOM     14  C   UNL     1       6.387   5.482  15.721  0.00  0.00    +0.000 C 
ATOM     15  N   UNL     1       7.261   5.391  14.945  0.00  0.00    +0.000 NA
ENDBRANCH   3  14
BRANCH   4  16
ATOM     16  N   UNL     1       5.102   3.355  17.693  0.00  0.00    +0.000 N 
ATOM     17  H   UNL     1       5.985   3.054  18.109  0.00  0.00    +0.000 HD
BRANCH  16  18
ATOM     18  C   UNL     1       4.198   2.309  17.226  0.00  0.00    +0.000 C 
BRANCH  18  19
ATOM     19  C   UNL     1       3.631   1.482  18.393  0.00  0.00    +0.000 C 
BRANCH  19  20
ATOM     20  C   UNL     1       2.725   2.271  19.316  0.00  0.00    +0.000 A 
ATOM     21  C   UNL     1       1.483   2.756  18.882  0.00  0.00    +0.000 A 
ATOM     22  C   UNL     1       0.669   3.509  19.733  0.00  0.00    +0.000 A 
ATOM     23  C   UNL     1       1.086   3.791  21.031  0.00  0.00    +0.000 A 
ATOM     24  C   UNL     1       2.319   3.318  21.477  0.00  0.00    +0.000 A 
ATOM     25  C   UNL     1       3.133   2.562  20.628  0.00  0.00    +0.000 A 
ENDBRANCH  19  20
ENDBRANCH  18  19
ENDBRANCH  16  18
ENDBRANCH   4  16
TORSDOF 7
ENDMDL
MODEL 2
REMARK VINA RESULT:      -7.4      0.440      1.075
REMARK  Name = 
REMARK  8 active torsions:
REMARK  status: ('A' for Active; 'I' for Inactive)
REMARK    1  A    between atoms: C_1  and  O_2
REMARK    2  A    between atoms: O_2  and  C_3
REMARK    3  A    between atoms: C_6  and  C_7
REMARK    4  A    between atoms: C_9  and  C_10
REMARK    5  A    between atoms: C_12  and  N_13
REMARK    6  A    between atoms: N_13  and  C_14
REMARK    7  A    between atoms: C_14  and  C_15
REMARK    8  A    between atoms: C_15  and  C_16
REMARK                            x       y       z     vdW  Elec       q    Type
REMARK                         _______ _______ _______ _____ _____    ______ ____
ROOT
ATOM      1  C   UNL     1       3.817   6.610  17.865  0.00  0.00    +0.000 A 
ATOM      2  N   UNL     1       4.750   6.900  16.976  0.00  0.00    +0.000 NA
ATOM      3  C   UNL     1       5.396   5.702  16.783  0.00  0.00    +0.000 A 
ATOM      4  C   UNL     1       4.807   4.700  17.527  0.00  0.00    +0.000 A 
ATOM      5  O   UNL     1       3.803   5.290  18.257  0.00  0.00    +0.000 OA
ENDROOT
BRANCH   1   9
ATOM      6  C   UNL     1       0.985   9.367  19.554  0.00  0.00    +0.000 A 
ATOM      7  C   UNL     1       1.456   9.528  18.253  0.00  0.00    +0.000 A 
ATOM      8  C   UNL     1       2.355   8.604  17.703  0.00  0.00    +0.000 A 
ATOM      9  C   UNL     1       2.816   7.511  18.451  0.00  0.00    +0.000 A 
ATOM     10  C   UNL     1       2.316   7.343  19.750  0.00  0.00    +0.000 A 
ATOM     11  C   UNL     1       1.416   8.273  20.303  0.00  0.00    +0.000 A 
BRANCH   6  13
ATOM     12  C   UNL     1      -0.117  11.410  19.092  0.00  0.00    +0.000 C 
ATOM     13  O   UNL     1       0.105  10.322  19.986  0.00  0.00    +0.000 OA
ENDBRANCH   6  13
ENDBRANCH   1   9
BRANCH   3  14
ATOM     14  C   UNL     1       6.491   5.565  15.891  0.00  0.00    +0.000 C 
ATOM     15  N   UNL     1       7.368   5.453  15.121  0.00  0.00    +0.000 NA
ENDBRANCH   3  14
BRANCH   4  16
ATOM     16  N   UNL     1       5.038   3.378  17.672  0.00  0.00    +0.000 N 
ATOM     17  H   UNL     1       5.904   3.034  18.087  0.00  0.00    +0.000 HD
BRANCH  16  18
ATOM     18  C   UNL     1       4.110   2.379  17.149  0.00  0.00    +0.000 C 
BRANCH  18  19
ATOM     19  C   UNL     1       3.561   1.473  18.265  0.00  0.00    +0.000 C 
BRANCH  19  20
ATOM     20  C   UNL     1       2.742   2.213  19.303  0.00  0.00    +0.000 A 
ATOM     21  C   UNL     1       3.246   2.466  20.588  0.00  0.00    +0.000 A 
ATOM     22  C   UNL     1       2.470   3.122  21.547  0.00  0.00    +0.000 A 
ATOM     23  C   UNL     1       1.177   3.533  21.238  0.00  0.00    +0.000 A 
ATOM     24  C   UNL     1       0.660   3.289  19.967  0.00  0.00    +0.000 A 
ATOM     25  C   UNL     1       1.437   2.635  19.005  0.00  0.00    +0.000 A 
ENDBRANCH  19  20
ENDBRANCH  18  19
ENDBRANCH  16  18
ENDBRANCH   4  16
TORSDOF 7
ENDMDL
MODEL 3
REMARK VINA RESULT:      -7.2      2.014      5.140
REMARK  Name = 
REMARK  8 active torsions:
REMARK  status: ('A' for Active; 'I' for Inactive)
REMARK    1  A    between atoms: C_1  and  O_2
REMARK    2  A    between atoms: O_2  and  C_3
REMARK    3  A    between atoms: C_6  and  C_7
REMARK    4  A    between atoms: C_9  and  C_10
REMARK    5  A    between atoms: C_12  and  N_13
REMARK    6  A    between atoms: N_13  and  C_14
REMARK    7  A    between atoms: C_14  and  C_15
REMARK    8  A    between atoms: C_15  and  C_16
REMARK                            x       y       z     vdW  Elec       q    Type
REMARK                         _______ _______ _______ _____ _____    ______ ____
ROOT
ATOM      1  C   UNL     1       3.211   5.854  18.807  0.00  0.00    +0.000 A 
ATOM      2  N   UNL     1       2.713   4.631  18.859  0.00  0.00    +0.000 NA
ATOM      3  C   UNL     1       3.800   3.829  18.610  0.00  0.00    +0.000 A 
ATOM      4  C   UNL     1       4.945   4.583  18.458  0.00  0.00    +0.000 A 
ATOM      5  O   UNL     1       4.563   5.900  18.552  0.00  0.00    +0.000 OA
ENDROOT
BRANCH   1   9
ATOM      6  C   UNL     1       1.017   9.499  19.423  0.00  0.00    +0.000 A 
ATOM      7  C   UNL     1       1.237   8.606  20.470  0.00  0.00    +0.000 A 
ATOM      8  C   UNL     1       1.981   7.436  20.264  0.00  0.00    +0.000 A 
ATOM      9  C   UNL     1       2.504   7.126  19.000  0.00  0.00    +0.000 A 
ATOM     10  C   UNL     1       2.300   8.043  17.960  0.00  0.00    +0.000 A 
ATOM     11  C   UNL     1       1.550   9.216  18.167  0.00  0.00    +0.000 A 
BRANCH   6  13
ATOM     12  C   UNL     1       1.006  11.842  19.753  0.00  0.00    +0.000 C 
ATOM     13  O   UNL     1       0.286  10.611  19.739  0.00  0.00    +0.000 OA
ENDBRANCH   6  13
ENDBRANCH   1   9
BRANCH   3  14
ATOM     14  C   UNL     1       3.705   2.413  18.568  0.00  0.00    +0.000 C 
ATOM     15  N   UNL     1       3.584   1.248  18.540  0.00  0.00    +0.000 NA
ENDBRANCH   3  14
BRANCH   4  16
ATOM     16  N   UNL     1       6.241   4.288  18.229  0.00  0.00    +0.000 N 
ATOM     17  H   UNL     1       6.884   4.092  18.997  0.00  0.00    +0.000 HD
BRANCH  16  18
ATOM     18  C   UNL     1       6.810   4.337  16.885  0.00  0.00    +0.000 C 
BRANCH  18  19
ATOM     19  C   UNL     1       5.717   4.298  15.803  0.00  0.00    +0.000 C 
BRANCH  19  20
ATOM     20  C   UNL     1       6.258   4.320  14.388  0.00  0.00    +0.000 A 
ATOM     21  C   UNL     1       5.725   3.494  13.388  0.00  0.00    +0.000 A 
ATOM     22  C   UNL     1       6.253   3.501  12.094  0.00  0.00    +0.000 A 
ATOM     23  C   UNL     1       7.324   4.333  11.780  0.00  0.00    +0.000 A 
ATOM     24  C   UNL     1       7.867   5.159  12.763  0.00  0.00    +0.000 A 
ATOM     25  C   UNL     1       7.337   5.155  14.058  0.00  0.00    +0.000 A 
ENDBRANCH  19  20
ENDBRANCH  18  19
ENDBRANCH  16  18
ENDBRANCH   4  16
TORSDOF 7
ENDMDL
MODEL 4
REMARK VINA RESULT:      -7.2      1.935      4.401
REMARK  Name = 
REMARK  8 active torsions:
REMARK  status: ('A' for Active; 'I' for Inactive)
REMARK    1  A    between atoms: C_1  and  O_2
REMARK    2  A    between atoms: O_2  and  C_3
REMARK    3  A    between atoms: C_6  and  C_7
REMARK    4  A    between atoms: C_9  and  C_10
REMARK    5  A    between atoms: C_12  and  N_13
REMARK    6  A    between atoms: N_13  and  C_14
REMARK    7  A    between atoms: C_14  and  C_15
REMARK    8  A    between atoms: C_15  and  C_16
REMARK                            x       y       z     vdW  Elec       q    Type
REMARK                         _______ _______ _______ _____ _____    ______ ____
ROOT
ATOM      1  C   UNL     1       2.912   6.094  18.867  0.00  0.00    +0.000 A 
ATOM      2  N   UNL     1       3.305   5.258  19.812  0.00  0.00    +0.000 NA
ATOM      3  C   UNL     1       3.808   4.190  19.109  0.00  0.00    +0.000 A 
ATOM      4  C   UNL     1       3.752   4.424  17.751  0.00  0.00    +0.000 A 
ATOM      5  O   UNL     1       3.140   5.643  17.587  0.00  0.00    +0.000 OA
ENDROOT
BRANCH   1   9
ATOM      6  C   UNL     1       0.965   9.890  19.394  0.00  0.00    +0.000 A 
ATOM      7  C   UNL     1       1.091   8.994  20.453  0.00  0.00    +0.000 A 
ATOM      8  C   UNL     1       1.756   7.773  20.276  0.00  0.00    +0.000 A 
ATOM      9  C   UNL     1       2.292   7.415  19.031  0.00  0.00    +0.000 A 
ATOM     10  C   UNL     1       2.183   8.334  17.978  0.00  0.00    +0.000 A 
ATOM     11  C   UNL     1       1.512   9.559  18.155  0.00  0.00    +0.000 A 
BRANCH   6  13
ATOM     12  C   UNL     1       0.509  11.574  20.992  0.00  0.00    +0.000 C 
ATOM     13  O   UNL     1       0.306  11.055  19.680  0.00  0.00    +0.000 OA
ENDBRANCH   6  13
ENDBRANCH   1   9
BRANCH   3  14
ATOM     14  C   UNL     1       4.342   3.042  19.751  0.00  0.00    +0.000 C 
ATOM     15  N   UNL     1       4.817   2.097  20.255  0.00  0.00    +0.000 NA
ENDBRANCH   3  14
BRANCH   4  16
ATOM     16  N   UNL     1       4.128   3.723  16.660  0.00  0.00    +0.000 N 
ATOM     17  H   UNL     1       3.468   3.126  16.161  0.00  0.00    +0.000 HD
BRANCH  16  18
ATOM     18  C   UNL     1       5.515   3.704  16.206  0.00  0.00    +0.000 C 
BRANCH  18  19
ATOM     19  C   UNL     1       5.993   5.103  15.776  0.00  0.00    +0.000 C 
BRANCH  19  20
ATOM     20  C   UNL     1       6.766   5.839  16.850  0.00  0.00    +0.000 A 
ATOM     21  C   UNL     1       7.041   7.211  16.744  0.00  0.00    +0.000 A 
ATOM     22  C   UNL     1       7.782   7.873  17.726  0.00  0.00    +0.000 A 
ATOM     23  C   UNL     1       8.262   7.174  18.830  0.00  0.00    +0.000 A 
ATOM     24  C   UNL     1       8.000   5.811  18.950  0.00  0.00    +0.000 A 
ATOM     25  C   UNL     1       7.256   5.147  17.969  0.00  0.00    +0.000 A 
ENDBRANCH  19  20
ENDBRANCH  18  19
ENDBRANCH  16  18
ENDBRANCH   4  16
TORSDOF 7
ENDMDL
MODEL 5
REMARK VINA RESULT:      -7.2      0.754      1.239
REMARK  Name = 
REMARK  8 active torsions:
REMARK  status: ('A' for Active; 'I' for Inactive)
REMARK    1  A    between atoms: C_1  and  O_2
REMARK    2  A    between atoms: O_2  and  C_3
REMARK    3  A    between atoms: C_6  and  C_7
REMARK    4  A    between atoms: C_9  and  C_10
REMARK    5  A    between atoms: C_12  and  N_13
REMARK    6  A    between atoms: N_13  and  C_14
REMARK    7  A    between atoms: C_14  and  C_15
REMARK    8  A    between atoms: C_15  and  C_16
REMARK                            x       y       z     vdW  Elec       q    Type
REMARK                         _______ _______ _______ _____ _____    ______ ____
ROOT
ATOM      1  C   UNL     1       3.589   6.819  17.839  0.00  0.00    +0.000 A 
ATOM      2  N   UNL     1       4.742   7.112  17.265  0.00  0.00    +0.000 NA
ATOM      3  C   UNL     1       5.204   5.894  16.828  0.00  0.00    +0.000 A 
ATOM      4  C   UNL     1       4.297   4.894  17.107  0.00  0.00    +0.000 A 
ATOM      5  O   UNL     1       3.262   5.483  17.794  0.00  0.00    +0.000 OA
ENDROOT
BRANCH   1   9
ATOM      6  C   UNL     1       0.725   9.384  19.762  0.00  0.00    +0.000 A 
ATOM      7  C   UNL     1       1.271   8.289  20.429  0.00  0.00    +0.000 A 
ATOM      8  C   UNL     1       2.228   7.479  19.802  0.00  0.00    +0.000 A 
ATOM      9  C   UNL     1       2.643   7.736  18.487  0.00  0.00    +0.000 A 
ATOM     10  C   UNL     1       2.108   8.855  17.834  0.00  0.00    +0.000 A 
ATOM     11  C   UNL     1       1.144   9.667  18.463  0.00  0.00    +0.000 A 
BRANCH   6  13
ATOM     12  C   UNL     1      -0.115   9.989  21.890  0.00  0.00    +0.000 C 
ATOM     13  O   UNL     1      -0.192  10.110  20.472  0.00  0.00    +0.000 OA
ENDBRANCH   6  13
ENDBRANCH   1   9
BRANCH   3  14
ATOM     14  C   UNL     1       6.441   5.751  16.147  0.00  0.00    +0.000 C 
ATOM     15  N   UNL     1       7.448   5.596  15.568  0.00  0.00    +0.000 NA
ENDBRANCH   3  14
BRANCH   4  16
ATOM     16  N   UNL     1       4.261   3.565  16.874  0.00  0.00    +0.000 N 
ATOM     17  H   UNL     1       5.118   3.025  16.751  0.00  0.00    +0.000 HD
BRANCH  16  18
ATOM     18  C   UNL     1       2.998   2.857  16.684  0.00  0.00    +0.000 C 
BRANCH  18  19
ATOM     19  C   UNL     1       2.745   1.833  17.805  0.00  0.00    +0.000 C 
BRANCH  19  20
ATOM     20  C   UNL     1       2.329   2.459  19.120  0.00  0.00    +0.000 A 
ATOM     21  C   UNL     1       1.175   3.248  19.222  0.00  0.00    +0.000 A 
ATOM     22  C   UNL     1       0.818   3.846  20.434  0.00  0.00    +0.000 A 
ATOM     23  C   UNL     1       1.611   3.665  21.563  0.00  0.00    +0.000 A 
ATOM     24  C   UNL     1       2.763   2.885  21.478  0.00  0.00    +0.000 A 
ATOM     25  C   UNL     1       3.120   2.284  20.267  0.00  0.00    +0.000 A 
ENDBRANCH  19  20
ENDBRANCH  18  19
ENDBRANCH  16  18
ENDBRANCH   4  16
TORSDOF 7
ENDMDL
MODEL 6
REMARK VINA RESULT:      -7.1      1.981      4.387
REMARK  Name = 
REMARK  8 active torsions:
REMARK  status: ('A' for Active; 'I' for Inactive)
REMARK    1  A    between atoms: C_1  and  O_2
REMARK    2  A    between atoms: O_2  and  C_3
REMARK    3  A    between atoms: C_6  and  C_7
REMARK    4  A    between atoms: C_9  and  C_10
REMARK    5  A    between atoms: C_12  and  N_13
REMARK    6  A    between atoms: N_13  and  C_14
REMARK    7  A    between atoms: C_14  and  C_15
REMARK    8  A    between atoms: C_15  and  C_16
REMARK                            x       y       z     vdW  Elec       q    Type
REMARK                         _______ _______ _______ _____ _____    ______ ____
ROOT
ATOM      1  C   UNL     1       2.861   6.025  18.943  0.00  0.00    +0.000 A 
ATOM      2  N   UNL     1       3.291   5.203  19.884  0.00  0.00    +0.000 NA
ATOM      3  C   UNL     1       3.825   4.153  19.176  0.00  0.00    +0.000 A 
ATOM      4  C   UNL     1       3.751   4.386  17.819  0.00  0.00    +0.000 A 
ATOM      5  O   UNL     1       3.095   5.583  17.661  0.00  0.00    +0.000 OA
ENDROOT
BRANCH   1   9
ATOM      6  C   UNL     1       1.044   9.895  19.385  0.00  0.00    +0.000 A 
ATOM      7  C   UNL     1       1.518   9.461  18.149  0.00  0.00    +0.000 A 
ATOM      8  C   UNL     1       2.080   8.184  18.012  0.00  0.00    +0.000 A 
ATOM      9  C   UNL     1       2.197   7.323  19.112  0.00  0.00    +0.000 A 
ATOM     10  C   UNL     1       1.693   7.759  20.346  0.00  0.00    +0.000 A 
ATOM     11  C   UNL     1       1.132   9.043  20.485  0.00  0.00    +0.000 A 
BRANCH   6  13
ATOM     12  C   UNL     1       1.094  12.065  20.329  0.00  0.00    +0.000 C 
ATOM     13  O   UNL     1       0.508  11.154  19.403  0.00  0.00    +0.000 OA
ENDBRANCH   6  13
ENDBRANCH   1   9
BRANCH   3  14
ATOM     14  C   UNL     1       4.405   3.025  19.813  0.00  0.00    +0.000 C 
ATOM     15  N   UNL     1       4.843   2.078  20.347  0.00  0.00    +0.000 NA
ENDBRANCH   3  14
BRANCH   4  16
ATOM     16  N   UNL     1       4.143   3.700  16.725  0.00  0.00    +0.000 N 
ATOM     17  H   UNL     1       3.526   3.022  16.275  0.00  0.00    +0.000 HD
BRANCH  16  18
ATOM     18  C   UNL     1       5.499   3.816  16.196  0.00  0.00    +0.000 C 
BRANCH  18  19
ATOM     19  C   UNL     1       5.859   5.276  15.868  0.00  0.00    +0.000 C 
BRANCH  19  20
ATOM     20  C   UNL     1       6.736   5.936  16.911  0.00  0.00    +0.000 A 
ATOM     21  C   UNL     1       7.183   5.236  18.041  0.00  0.00    +0.000 A 
ATOM     22  C   UNL     1       7.966   5.865  19.012  0.00  0.00    +0.000 A 
ATOM     23  C   UNL     1       8.312   7.206  18.871  0.00  0.00    +0.000 A 
ATOM     24  C   UNL     1       7.874   7.917  17.755  0.00  0.00    +0.000 A 
ATOM     25  C   UNL     1       7.093   7.288  16.781  0.00  0.00    +0.000 A 
ENDBRANCH  19  20
ENDBRANCH  18  19
ENDBRANCH  16  18
ENDBRANCH   4  16
TORSDOF 7
ENDMDL
MODEL 7
REMARK VINA RESULT:      -7.1      1.997      4.336
REMARK  Name = 
REMARK  8 active torsions:
REMARK  status: ('A' for Active; 'I' for Inactive)
REMARK    1  A    between atoms: C_1  and  O_2
REMARK    2  A    between atoms: O_2  and  C_3
REMARK    3  A    between atoms: C_6  and  C_7
REMARK    4  A    between atoms: C_9  and  C_10
REMARK    5  A    between atoms: C_12  and  N_13
REMARK    6  A    between atoms: N_13  and  C_14
REMARK    7  A    between atoms: C_14  and  C_15
REMARK    8  A    between atoms: C_15  and  C_16
REMARK                            x       y       z     vdW  Elec       q    Type
REMARK                         _______ _______ _______ _____ _____    ______ ____
ROOT
ATOM      1  C   UNL     1       2.805   6.012  19.081  0.00  0.00    +0.000 A 
ATOM      2  N   UNL     1       3.259   5.155  19.978  0.00  0.00    +0.000 NA
ATOM      3  C   UNL     1       3.773   4.133  19.218  0.00  0.00    +0.000 A 
ATOM      4  C   UNL     1       3.662   4.415  17.872  0.00  0.00    +0.000 A 
ATOM      5  O   UNL     1       3.004   5.619  17.777  0.00  0.00    +0.000 OA
ENDROOT
BRANCH   1   9
ATOM      6  C   UNL     1       1.011   9.864  19.727  0.00  0.00    +0.000 A 
ATOM      7  C   UNL     1       1.527   9.511  18.482  0.00  0.00    +0.000 A 
ATOM      8  C   UNL     1       2.081   8.241  18.276  0.00  0.00    +0.000 A 
ATOM      9  C   UNL     1       2.148   7.303  19.316  0.00  0.00    +0.000 A 
ATOM     10  C   UNL     1       1.602   7.658  20.558  0.00  0.00    +0.000 A 
ATOM     11  C   UNL     1       1.049   8.936  20.766  0.00  0.00    +0.000 A 
BRANCH   6  13
ATOM     12  C   UNL     1      -0.787  11.225  20.444  0.00  0.00    +0.000 C 
ATOM     13  O   UNL     1       0.487  11.125  19.813  0.00  0.00    +0.000 OA
ENDBRANCH   6  13
ENDBRANCH   1   9
BRANCH   3  14
ATOM     14  C   UNL     1       4.367   2.981  19.796  0.00  0.00    +0.000 C 
ATOM     15  N   UNL     1       4.822   2.007  20.263  0.00  0.00    +0.000 NA
ENDBRANCH   3  14
BRANCH   4  16
ATOM     16  N   UNL     1       4.023   3.771  16.743  0.00  0.00    +0.000 N 
ATOM     17  H   UNL     1       3.383   3.132  16.270  0.00  0.00    +0.000 HD
BRANCH  16  18
ATOM     18  C   UNL     1       5.375   3.875  16.204  0.00  0.00    +0.000 C 
BRANCH  18  19
ATOM     19  C   UNL     1       5.752   5.333  15.888  0.00  0.00    +0.000 C 
BRANCH  19  20
ATOM     20  C   UNL     1       6.630   5.977  16.941  0.00  0.00    +0.000 A 
ATOM     21  C   UNL     1       6.969   7.337  16.878  0.00  0.00    +0.000 A 
ATOM     22  C   UNL     1       7.805   7.914  17.838  0.00  0.00    +0.000 A 
ATOM     23  C   UNL     1       8.317   7.139  18.875  0.00  0.00    +0.000 A 
ATOM     24  C   UNL     1       7.991   5.786  18.951  0.00  0.00    +0.000 A 
ATOM     25  C   UNL     1       7.152   5.208  17.993  0.00  0.00    +0.000 A 
ENDBRANCH  19  20
ENDBRANCH  18  19
ENDBRANCH  16  18
ENDBRANCH   4  16
TORSDOF 7
ENDMDL
MODEL 8
REMARK VINA RESULT:      -7.0      2.062      5.114
REMARK  Name = 
REMARK  8 active torsions:
REMARK  status: ('A' for Active; 'I' for Inactive)
REMARK    1  A    between atoms: C_1  and  O_2
REMARK    2  A    between atoms: O_2  and  C_3
REMARK    3  A    between atoms: C_6  and  C_7
REMARK    4  A    between atoms: C_9  and  C_10
REMARK    5  A    between atoms: C_12  and  N_13
REMARK    6  A    between atoms: N_13  and  C_14
REMARK    7  A    between atoms: C_14  and  C_15
REMARK    8  A    between atoms: C_15  and  C_16
REMARK                            x       y       z     vdW  Elec       q    Type
REMARK                         _______ _______ _______ _____ _____    ______ ____
ROOT
ATOM      1  C   UNL     1       3.098   5.825  18.939  0.00  0.00    +0.000 A 
ATOM      2  N   UNL     1       2.621   4.597  19.039  0.00  0.00    +0.000 NA
ATOM      3  C   UNL     1       3.702   3.805  18.734  0.00  0.00    +0.000 A 
ATOM      4  C   UNL     1       4.825   4.572  18.501  0.00  0.00    +0.000 A 
ATOM      5  O   UNL     1       4.431   5.885  18.600  0.00  0.00    +0.000 OA
ENDROOT
BRANCH   1   9
ATOM      6  C   UNL     1       1.143   9.607  19.533  0.00  0.00    +0.000 A 
ATOM      7  C   UNL     1       1.662   9.253  18.290  0.00  0.00    +0.000 A 
ATOM      8  C   UNL     1       2.269   8.004  18.101  0.00  0.00    +0.000 A 
ATOM      9  C   UNL     1       2.387   7.090  19.158  0.00  0.00    +0.000 A 
ATOM     10  C   UNL     1       1.838   7.444  20.399  0.00  0.00    +0.000 A 
ATOM     11  C   UNL     1       1.231   8.700  20.589  0.00  0.00    +0.000 A 
BRANCH   6  13
ATOM     12  C   UNL     1       1.139  11.844  18.763  0.00  0.00    +0.000 C 
ATOM     13  O   UNL     1       0.565  10.845  19.602  0.00  0.00    +0.000 OA
ENDBRANCH   6  13
ENDBRANCH   1   9
BRANCH   3  14
ATOM     14  C   UNL     1       3.625   2.388  18.717  0.00  0.00    +0.000 C 
ATOM     15  N   UNL     1       3.596   1.216  18.731  0.00  0.00    +0.000 NA
ENDBRANCH   3  14
BRANCH   4  16
ATOM     16  N   UNL     1       6.109   4.291  18.196  0.00  0.00    +0.000 N 
ATOM     17  H   UNL     1       6.747   3.905  18.893  0.00  0.00    +0.000 HD
BRANCH  16  18
ATOM     18  C   UNL     1       6.674   4.622  16.891  0.00  0.00    +0.000 C 
BRANCH  18  19
ATOM     19  C   UNL     1       5.655   4.407  15.759  0.00  0.00    +0.000 C 
BRANCH  19  20
ATOM     20  C   UNL     1       6.274   4.392  14.376  0.00  0.00    +0.000 A 
ATOM     21  C   UNL     1       5.775   3.565  13.360  0.00  0.00    +0.000 A 
ATOM     22  C   UNL     1       6.373   3.537  12.097  0.00  0.00    +0.000 A 
ATOM     23  C   UNL     1       7.483   4.335  11.832  0.00  0.00    +0.000 A 
ATOM     24  C   UNL     1       7.993   5.162  12.832  0.00  0.00    +0.000 A 
ATOM     25  C   UNL     1       7.393   5.192  14.095  0.00  0.00    +0.000 A 
ENDBRANCH  19  20
ENDBRANCH  18  19
ENDBRANCH  16  18
ENDBRANCH   4  16
TORSDOF 7
ENDMDL
MODEL 9
REMARK VINA RESULT:      -7.0      2.602      7.206
REMARK  Name = 
REMARK  8 active torsions:
REMARK  status: ('A' for Active; 'I' for Inactive)
REMARK    1  A    between atoms: C_1  and  O_2
REMARK    2  A    between atoms: O_2  and  C_3
REMARK    3  A    between atoms: C_6  and  C_7
REMARK    4  A    between atoms: C_9  and  C_10
REMARK    5  A    between atoms: C_12  and  N_13
REMARK    6  A    between atoms: N_13  and  C_14
REMARK    7  A    between atoms: C_14  and  C_15
REMARK    8  A    between atoms: C_15  and  C_16
REMARK                            x       y       z     vdW  Elec       q    Type
REMARK                         _______ _______ _______ _____ _____    ______ ____
ROOT
ATOM      1  C   UNL     1       4.031   4.841  18.981  0.00  0.00    +0.000 A 
ATOM      2  N   UNL     1       3.671   3.746  19.627  0.00  0.00    +0.000 NA
ATOM      3  C   UNL     1       2.712   4.190  20.506  0.00  0.00    +0.000 A 
ATOM      4  C   UNL     1       2.477   5.539  20.339  0.00  0.00    +0.000 A 
ATOM      5  O   UNL     1       3.355   5.974  19.374  0.00  0.00    +0.000 OA
ENDROOT
BRANCH   1   9
ATOM      6  C   UNL     1       6.872   5.131  15.769  0.00  0.00    +0.000 A 
ATOM      7  C   UNL     1       5.540   5.496  15.585  0.00  0.00    +0.000 A 
ATOM      8  C   UNL     1       4.630   5.426  16.650  0.00  0.00    +0.000 A 
ATOM      9  C   UNL     1       5.031   4.973  17.915  0.00  0.00    +0.000 A 
ATOM     10  C   UNL     1       6.379   4.633  18.096  0.00  0.00    +0.000 A 
ATOM     11  C   UNL     1       7.291   4.700  17.026  0.00  0.00    +0.000 A 
BRANCH   6  13
ATOM     12  C   UNL     1       7.112   4.782  13.441  0.00  0.00    +0.000 C 
ATOM     13  O   UNL     1       7.673   5.247  14.666  0.00  0.00    +0.000 OA
ENDBRANCH   6  13
ENDBRANCH   1   9
BRANCH   3  14
ATOM     14  C   UNL     1       2.051   3.321  21.413  0.00  0.00    +0.000 C 
ATOM     15  N   UNL     1       1.485   2.585  22.128  0.00  0.00    +0.000 NA
ENDBRANCH   3  14
BRANCH   4  16
ATOM     16  N   UNL     1       1.641   6.427  20.917  0.00  0.00    +0.000 N 
ATOM     17  H   UNL     1       0.930   6.127  21.585  0.00  0.00    +0.000 HD
BRANCH  16  18
ATOM     18  C   UNL     1       1.645   7.837  20.539  0.00  0.00    +0.000 C 
BRANCH  18  19
ATOM     19  C   UNL     1       0.834   8.693  21.528  0.00  0.00    +0.000 C 
BRANCH  19  20
ATOM     20  C   UNL     1       0.040   9.801  20.866  0.00  0.00    +0.000 A 
ATOM     21  C   UNL     1      -0.099   9.869  19.472  0.00  0.00    +0.000 A 
ATOM     22  C   UNL     1      -0.808  10.913  18.871  0.00  0.00    +0.000 A 
ATOM     23  C   UNL     1      -1.387  11.907  19.655  0.00  0.00    +0.000 A 
ATOM     24  C   UNL     1      -1.257  11.855  21.042  0.00  0.00    +0.000 A 
ATOM     25  C   UNL     1      -0.550  10.809  21.644  0.00  0.00    +0.000 A 
ENDBRANCH  19  20
ENDBRANCH  18  19
ENDBRANCH  16  18
ENDBRANCH   4  16
TORSDOF 7
ENDMDL
