MODEL 1
REMARK VINA RESULT:      -6.9      0.000      0.000
REMARK  Name = 
REMARK  9 active torsions:
REMARK  status: ('A' for Active; 'I' for Inactive)
REMARK    1  A    between atoms: C_1  and  O_2
REMARK    2  A    between atoms: O_2  and  C_3
REMARK    3  A    between atoms: C_6  and  C_7
REMARK    4  A    between atoms: C_7  and  N_8
REMARK    5  A    between atoms: N_11  and  C_12
REMARK    6  A    between atoms: C_17  and  O_18
REMARK    7  A    between atoms: O_18  and  C_19
REMARK    8  A    between atoms: C_22  and  O_23
REMARK    9  A    between atoms: O_23  and  C_24
REMARK                            x       y       z     vdW  Elec       q    Type
REMARK                         _______ _______ _______ _____ _____    ______ ____
ROOT
ATOM      1  N   UNL     1       2.372   5.772  19.254  0.00  0.00    +0.000 NA
ATOM      2  C   UNL     1       1.690   6.263  20.465  0.00  0.00    +0.000 C 
ATOM      3  C   UNL     1       1.772   7.769  20.831  0.00  0.00    +0.000 C 
ATOM      4  N   UNL     1       1.590   8.681  19.679  0.00  0.00    +0.000 N 
ATOM      5  C   UNL     1       2.342   8.307  18.481  0.00  0.00    +0.000 C 
ATOM      6  C   UNL     1       2.226   6.780  18.161  0.00  0.00    +0.000 C 
ENDROOT
BRANCH   4   7
ATOM      7  C   UNL     1       0.548   9.626  19.648  0.00  0.00    +0.000 A 
ATOM      8  C   UNL     1       0.003   9.956  18.387  0.00  0.00    +0.000 A 
ATOM      9  C   UNL     1      -1.071  10.835  18.206  0.00  0.00    +0.000 A 
ATOM     10  C   UNL     1      -1.636  11.448  19.310  0.00  0.00    +0.000 A 
ATOM     11  C   UNL     1      -1.105  11.185  20.571  0.00  0.00    +0.000 A 
ATOM     12  C   UNL     1      -0.019  10.300  20.763  0.00  0.00    +0.000 A 
BRANCH  12  13
ATOM     13  O   UNL     1       0.459  10.408  22.044  0.00  0.00    +0.000 OA
ATOM     14  C   UNL     1      -0.323   9.981  23.145  0.00  0.00    +0.000 C 
ENDBRANCH  12  13
ENDBRANCH   4   7
BRANCH   1  15
ATOM     15  C   UNL     1       3.792   5.442  19.438  0.00  0.00    +0.000 C 
BRANCH  15  19
ATOM     16  C   UNL     1       6.541   5.179  16.078  0.00  0.00    +0.000 A 
ATOM     17  C   UNL     1       6.555   6.323  16.895  0.00  0.00    +0.000 A 
ATOM     18  C   UNL     1       5.670   6.455  17.971  0.00  0.00    +0.000 A 
ATOM     19  C   UNL     1       4.752   5.427  18.243  0.00  0.00    +0.000 A 
ATOM     20  C   UNL     1       4.793   4.251  17.460  0.00  0.00    +0.000 A 
ATOM     21  C   UNL     1       5.659   4.125  16.362  0.00  0.00    +0.000 A 
BRANCH  16  23
ATOM     22  C   UNL     1       7.144   4.712  13.800  0.00  0.00    +0.000 C 
ATOM     23  O   UNL     1       7.480   5.236  15.076  0.00  0.00    +0.000 OA
ENDBRANCH  16  23
BRANCH  20  24
ATOM     24  O   UNL     1       3.958   3.325  17.988  0.00  0.00    +0.000 OA
ATOM     25  C   UNL     1       2.845   2.672  17.444  0.00  0.00    +0.000 C 
ENDBRANCH  20  24
ENDBRANCH  15  19
ENDBRANCH   1  15
TORSDOF 6
ENDMDL
MODEL 2
REMARK VINA RESULT:      -6.7      1.784      2.868
REMARK  Name = 
REMARK  9 active torsions:
REMARK  status: ('A' for Active; 'I' for Inactive)
REMARK    1  A    between atoms: C_1  and  O_2
REMARK    2  A    between atoms: O_2  and  C_3
REMARK    3  A    between atoms: C_6  and  C_7
REMARK    4  A    between atoms: C_7  and  N_8
REMARK    5  A    between atoms: N_11  and  C_12
REMARK    6  A    between atoms: C_17  and  O_18
REMARK    7  A    between atoms: O_18  and  C_19
REMARK    8  A    between atoms: C_22  and  O_23
REMARK    9  A    between atoms: O_23  and  C_24
REMARK                            x       y       z     vdW  Elec       q    Type
REMARK                         _______ _______ _______ _____ _____    ______ ____
ROOT
ATOM      1  N   UNL     1       2.803   4.197  18.344  0.00  0.00    +0.000 NA
ATOM      2  C   UNL     1       2.244   4.343  19.700  0.00  0.00    +0.000 C 
ATOM      3  C   UNL     1       2.568   5.616  20.528  0.00  0.00    +0.000 C 
ATOM      4  N   UNL     1       2.490   6.875  19.753  0.00  0.00    +0.000 N 
ATOM      5  C   UNL     1       3.137   6.824  18.441  0.00  0.00    +0.000 C 
ATOM      6  C   UNL     1       2.778   5.522  17.654  0.00  0.00    +0.000 C 
ENDROOT
BRANCH   4   7
ATOM      7  C   UNL     1       1.606   7.906  20.115  0.00  0.00    +0.000 A 
ATOM      8  C   UNL     1       0.767   7.686  21.231  0.00  0.00    +0.000 A 
ATOM      9  C   UNL     1      -0.123   8.639  21.740  0.00  0.00    +0.000 A 
ATOM     10  C   UNL     1      -0.221   9.871  21.119  0.00  0.00    +0.000 A 
ATOM     11  C   UNL     1       0.557  10.120  19.991  0.00  0.00    +0.000 A 
ATOM     12  C   UNL     1       1.456   9.163  19.468  0.00  0.00    +0.000 A 
BRANCH  12  13
ATOM     13  O   UNL     1       1.905   9.559  18.234  0.00  0.00    +0.000 OA
ATOM     14  C   UNL     1       2.068  10.933  17.933  0.00  0.00    +0.000 C 
ENDBRANCH  12  13
ENDBRANCH   4   7
BRANCH   1  15
ATOM     15  C   UNL     1       4.161   3.637  18.295  0.00  0.00    +0.000 C 
BRANCH  15  19
ATOM     16  C   UNL     1       6.983   4.948  15.258  0.00  0.00    +0.000 A 
ATOM     17  C   UNL     1       5.754   4.392  14.864  0.00  0.00    +0.000 A 
ATOM     18  C   UNL     1       4.829   3.937  15.811  0.00  0.00    +0.000 A 
ATOM     19  C   UNL     1       5.132   4.038  17.179  0.00  0.00    +0.000 A 
ATOM     20  C   UNL     1       6.339   4.663  17.566  0.00  0.00    +0.000 A 
ATOM     21  C   UNL     1       7.283   5.095  16.620  0.00  0.00    +0.000 A 
BRANCH  16  23
ATOM     22  C   UNL     1       7.400   4.868  12.893  0.00  0.00    +0.000 C 
ATOM     23  O   UNL     1       7.754   5.333  14.186  0.00  0.00    +0.000 OA
ENDBRANCH  16  23
BRANCH  20  24
ATOM     24  O   UNL     1       6.360   4.817  18.911  0.00  0.00    +0.000 OA
ATOM     25  C   UNL     1       7.237   5.525  19.744  0.00  0.00    +0.000 C 
ENDBRANCH  20  24
ENDBRANCH  15  19
ENDBRANCH   1  15
TORSDOF 6
ENDMDL
MODEL 3
REMARK VINA RESULT:      -6.5      1.354      1.974
REMARK  Name = 
REMARK  9 active torsions:
REMARK  status: ('A' for Active; 'I' for Inactive)
REMARK    1  A    between atoms: C_1  and  O_2
REMARK    2  A    between atoms: O_2  and  C_3
REMARK    3  A    between atoms: C_6  and  C_7
REMARK    4  A    between atoms: C_7  and  N_8
REMARK    5  A    between atoms: N_11  and  C_12
REMARK    6  A    between atoms: C_17  and  O_18
REMARK    7  A    between atoms: O_18  and  C_19
REMARK    8  A    between atoms: C_22  and  O_23
REMARK    9  A    between atoms: O_23  and  C_24
REMARK                            x       y       z     vdW  Elec       q    Type
REMARK                         _______ _______ _______ _____ _____    ______ ____
ROOT
ATOM      1  N   UNL     1       2.711   4.782  18.639  0.00  0.00    +0.000 NA
ATOM      2  C   UNL     1       2.085   5.150  19.921  0.00  0.00    +0.000 C 
ATOM      3  C   UNL     1       2.319   6.569  20.507  0.00  0.00    +0.000 C 
ATOM      4  N   UNL     1       2.226   7.657  19.507  0.00  0.00    +0.000 N 
ATOM      5  C   UNL     1       2.934   7.395  18.253  0.00  0.00    +0.000 C 
ATOM      6  C   UNL     1       2.664   5.953  17.711  0.00  0.00    +0.000 C 
ENDROOT
BRANCH   4   7
ATOM      7  C   UNL     1       1.285   8.694  19.636  0.00  0.00    +0.000 A 
ATOM      8  C   UNL     1       0.925   9.399  18.466  0.00  0.00    +0.000 A 
ATOM      9  C   UNL     1      -0.036  10.416  18.430  0.00  0.00    +0.000 A 
ATOM     10  C   UNL     1      -0.671  10.787  19.602  0.00  0.00    +0.000 A 
ATOM     11  C   UNL     1      -0.319  10.147  20.788  0.00  0.00    +0.000 A 
ATOM     12  C   UNL     1       0.652   9.121  20.835  0.00  0.00    +0.000 A 
BRANCH  12  13
ATOM     13  O   UNL     1       0.982   8.839  22.135  0.00  0.00    +0.000 OA
ATOM     14  C   UNL     1       0.252   9.411  23.206  0.00  0.00    +0.000 C 
ENDBRANCH  12  13
ENDBRANCH   4   7
BRANCH   1  15
ATOM     15  C   UNL     1       4.090   4.289  18.746  0.00  0.00    +0.000 C 
BRANCH  15  19
ATOM     16  C   UNL     1       6.947   4.846  15.515  0.00  0.00    +0.000 A 
ATOM     17  C   UNL     1       5.633   4.449  15.214  0.00  0.00    +0.000 A 
ATOM     18  C   UNL     1       4.691   4.236  16.228  0.00  0.00    +0.000 A 
ATOM     19  C   UNL     1       5.063   4.425  17.569  0.00  0.00    +0.000 A 
ATOM     20  C   UNL     1       6.365   4.893  17.857  0.00  0.00    +0.000 A 
ATOM     21  C   UNL     1       7.322   5.080  16.847  0.00  0.00    +0.000 A 
BRANCH  16  23
ATOM     22  C   UNL     1       7.140   4.733  13.123  0.00  0.00    +0.000 C 
ATOM     23  O   UNL     1       7.722   5.002  14.390  0.00  0.00    +0.000 OA
ENDBRANCH  16  23
BRANCH  20  24
ATOM     24  O   UNL     1       6.465   5.174  19.178  0.00  0.00    +0.000 OA
ATOM     25  C   UNL     1       7.553   5.604  19.948  0.00  0.00    +0.000 C 
ENDBRANCH  20  24
ENDBRANCH  15  19
ENDBRANCH   1  15
TORSDOF 6
ENDMDL
MODEL 4
REMARK VINA RESULT:      -6.5      2.594      4.204
REMARK  Name = 
REMARK  9 active torsions:
REMARK  status: ('A' for Active; 'I' for Inactive)
REMARK    1  A    between atoms: C_1  and  O_2
REMARK    2  A    between atoms: O_2  and  C_3
REMARK    3  A    between atoms: C_6  and  C_7
REMARK    4  A    between atoms: C_7  and  N_8
REMARK    5  A    between atoms: N_11  and  C_12
REMARK    6  A    between atoms: C_17  and  O_18
REMARK    7  A    between atoms: O_18  and  C_19
REMARK    8  A    between atoms: C_22  and  O_23
REMARK    9  A    between atoms: O_23  and  C_24
REMARK                            x       y       z     vdW  Elec       q    Type
REMARK                         _______ _______ _______ _____ _____    ______ ____
ROOT
ATOM      1  N   UNL     1       1.560   9.139  21.106  0.00  0.00    +0.000 NA
ATOM      2  C   UNL     1       0.844  10.156  20.316  0.00  0.00    +0.000 C 
ATOM      3  C   UNL     1      -0.622  10.514  20.679  0.00  0.00    +0.000 C 
ATOM      4  N   UNL     1      -0.865  10.663  22.132  0.00  0.00    +0.000 N 
ATOM      5  C   UNL     1      -0.275   9.609  22.959  0.00  0.00    +0.000 C 
ATOM      6  C   UNL     1       1.200   9.289  22.548  0.00  0.00    +0.000 C 
ENDROOT
BRANCH   4   7
ATOM      7  C   UNL     1      -1.340  11.868  22.677  0.00  0.00    +0.000 A 
ATOM      8  C   UNL     1      -2.642  11.869  23.225  0.00  0.00    +0.000 A 
ATOM      9  C   UNL     1      -3.226  12.977  23.850  0.00  0.00    +0.000 A 
ATOM     10  C   UNL     1      -2.515  14.161  23.930  0.00  0.00    +0.000 A 
ATOM     11  C   UNL     1      -1.243  14.220  23.367  0.00  0.00    +0.000 A 
ATOM     12  C   UNL     1      -0.645  13.107  22.732  0.00  0.00    +0.000 A 
BRANCH  12  13
ATOM     13  O   UNL     1       0.485  13.496  22.059  0.00  0.00    +0.000 OA
ATOM     14  C   UNL     1       0.782  14.868  21.878  0.00  0.00    +0.000 C 
ENDBRANCH  12  13
ENDBRANCH   4   7
BRANCH   1  15
ATOM     15  C   UNL     1       1.331   7.752  20.678  0.00  0.00    +0.000 C 
BRANCH  15  19
ATOM     16  C   UNL     1       3.799   5.859  17.640  0.00  0.00    +0.000 A 
ATOM     17  C   UNL     1       3.513   7.232  17.541  0.00  0.00    +0.000 A 
ATOM     18  C   UNL     1       2.704   7.872  18.486  0.00  0.00    +0.000 A 
ATOM     19  C   UNL     1       2.167   7.133  19.554  0.00  0.00    +0.000 A 
ATOM     20  C   UNL     1       2.518   5.770  19.683  0.00  0.00    +0.000 A 
ATOM     21  C   UNL     1       3.306   5.115  18.723  0.00  0.00    +0.000 A 
BRANCH  16  23
ATOM     22  C   UNL     1       4.919   4.031  16.555  0.00  0.00    +0.000 C 
ATOM     23  O   UNL     1       4.607   5.414  16.620  0.00  0.00    +0.000 OA
ENDBRANCH  16  23
BRANCH  20  24
ATOM     24  O   UNL     1       2.046   5.290  20.858  0.00  0.00    +0.000 OA
ATOM     25  C   UNL     1       2.097   4.005  21.415  0.00  0.00    +0.000 C 
ENDBRANCH  20  24
ENDBRANCH  15  19
ENDBRANCH   1  15
TORSDOF 6
ENDMDL
MODEL 5
REMARK VINA RESULT:      -6.4      1.272      1.302
REMARK  Name = 
REMARK  9 active torsions:
REMARK  status: ('A' for Active; 'I' for Inactive)
REMARK    1  A    between atoms: C_1  and  O_2
REMARK    2  A    between atoms: O_2  and  C_3
REMARK    3  A    between atoms: C_6  and  C_7
REMARK    4  A    between atoms: C_7  and  N_8
REMARK    5  A    between atoms: N_11  and  C_12
REMARK    6  A    between atoms: C_17  and  O_18
REMARK    7  A    between atoms: O_18  and  C_19
REMARK    8  A    between atoms: C_22  and  O_23
REMARK    9  A    between atoms: O_23  and  C_24
REMARK                            x       y       z     vdW  Elec       q    Type
REMARK                         _______ _______ _______ _____ _____    ______ ____
ROOT
ATOM      1  N   UNL     1       2.239   6.306  19.145  0.00  0.00    +0.000 NA
ATOM      2  C   UNL     1       1.632   7.026  20.278  0.00  0.00    +0.000 C 
ATOM      3  C   UNL     1       1.726   8.575  20.339  0.00  0.00    +0.000 C 
ATOM      4  N   UNL     1       1.465   9.247  19.046  0.00  0.00    +0.000 N 
ATOM      5  C   UNL     1       2.143   8.642  17.898  0.00  0.00    +0.000 C 
ATOM      6  C   UNL     1       2.018   7.084  17.889  0.00  0.00    +0.000 C 
ENDROOT
BRANCH   4   7
ATOM      7  C   UNL     1       0.417  10.173  18.898  0.00  0.00    +0.000 A 
ATOM      8  C   UNL     1      -0.637   9.832  18.020  0.00  0.00    +0.000 A 
ATOM      9  C   UNL     1      -1.770  10.628  17.815  0.00  0.00    +0.000 A 
ATOM     10  C   UNL     1      -1.879  11.834  18.482  0.00  0.00    +0.000 A 
ATOM     11  C   UNL     1      -0.845  12.231  19.327  0.00  0.00    +0.000 A 
ATOM     12  C   UNL     1       0.304  11.436  19.539  0.00  0.00    +0.000 A 
BRANCH  12  13
ATOM     13  O   UNL     1       1.261  12.155  20.208  0.00  0.00    +0.000 OA
ATOM     14  C   UNL     1       0.893  13.183  21.110  0.00  0.00    +0.000 C 
ENDBRANCH  12  13
ENDBRANCH   4   7
BRANCH   1  15
ATOM     15  C   UNL     1       3.670   6.009  19.299  0.00  0.00    +0.000 C 
BRANCH  15  19
ATOM     16  C   UNL     1       6.103   4.679  15.950  0.00  0.00    +0.000 A 
ATOM     17  C   UNL     1       6.240   5.996  16.423  0.00  0.00    +0.000 A 
ATOM     18  C   UNL     1       5.458   6.468  17.483  0.00  0.00    +0.000 A 
ATOM     19  C   UNL     1       4.521   5.614  18.088  0.00  0.00    +0.000 A 
ATOM     20  C   UNL     1       4.442   4.271  17.653  0.00  0.00    +0.000 A 
ATOM     21  C   UNL     1       5.203   3.800  16.571  0.00  0.00    +0.000 A 
BRANCH  16  23
ATOM     22  C   UNL     1       6.398   3.966  13.675  0.00  0.00    +0.000 C 
ATOM     23  O   UNL     1       6.954   4.404  14.905  0.00  0.00    +0.000 OA
ENDBRANCH  16  23
BRANCH  20  24
ATOM     24  O   UNL     1       3.615   3.577  18.470  0.00  0.00    +0.000 OA
ATOM     25  C   UNL     1       3.629   2.234  18.869  0.00  0.00    +0.000 C 
ENDBRANCH  20  24
ENDBRANCH  15  19
ENDBRANCH   1  15
TORSDOF 6
ENDMDL
MODEL 6
REMARK VINA RESULT:      -6.3      1.323      2.130
REMARK  Name = 
REMARK  9 active torsions:
REMARK  status: ('A' for Active; 'I' for Inactive)
REMARK    1  A    between atoms: C_1  and  O_2
REMARK    2  A    between atoms: O_2  and  C_3
REMARK    3  A    between atoms: C_6  and  C_7
REMARK    4  A    between atoms: C_7  and  N_8
REMARK    5  A    between atoms: N_11  and  C_12
REMARK    6  A    between atoms: C_17  and  O_18
REMARK    7  A    between atoms: O_18  and  C_19
REMARK    8  A    between atoms: C_22  and  O_23
REMARK    9  A    between atoms: O_23  and  C_24
REMARK                            x       y       z     vdW  Elec       q    Type
REMARK                         _______ _______ _______ _____ _____    ______ ____
ROOT
ATOM      1  N   UNL     1       2.689   6.153  18.316  0.00  0.00    +0.000 NA
ATOM      2  C   UNL     1       2.026   6.342  19.619  0.00  0.00    +0.000 C 
ATOM      3  C   UNL     1       2.037   7.744  20.286  0.00  0.00    +0.000 C 
ATOM      4  N   UNL     1       1.762   8.859  19.352  0.00  0.00    +0.000 N 
ATOM      5  C   UNL     1       2.489   8.785  18.084  0.00  0.00    +0.000 C 
ATOM      6  C   UNL     1       2.446   7.353  17.459  0.00  0.00    +0.000 C 
ENDROOT
BRANCH   4   7
ATOM      7  C   UNL     1       0.669   9.723  19.543  0.00  0.00    +0.000 A 
ATOM      8  C   UNL     1      -0.050  10.130  18.396  0.00  0.00    +0.000 A 
ATOM      9  C   UNL     1      -1.190  10.942  18.436  0.00  0.00    +0.000 A 
ATOM     10  C   UNL     1      -1.648  11.404  19.656  0.00  0.00    +0.000 A 
ATOM     11  C   UNL     1      -0.947  11.062  20.811  0.00  0.00    +0.000 A 
ATOM     12  C   UNL     1       0.206  10.246  20.781  0.00  0.00    +0.000 A 
BRANCH  12  13
ATOM     13  O   UNL     1       0.834  10.267  22.000  0.00  0.00    +0.000 OA
ATOM     14  C   UNL     1       0.317   9.526  23.091  0.00  0.00    +0.000 C 
ENDBRANCH  12  13
ENDBRANCH   4   7
BRANCH   1  15
ATOM     15  C   UNL     1       4.130   5.881  18.392  0.00  0.00    +0.000 C 
BRANCH  15  19
ATOM     16  C   UNL     1       6.293   4.387  14.928  0.00  0.00    +0.000 A 
ATOM     17  C   UNL     1       5.164   3.689  15.392  0.00  0.00    +0.000 A 
ATOM     18  C   UNL     1       4.456   4.125  16.517  0.00  0.00    +0.000 A 
ATOM     19  C   UNL     1       4.877   5.281  17.196  0.00  0.00    +0.000 A 
ATOM     20  C   UNL     1       5.969   6.014  16.680  0.00  0.00    +0.000 A 
ATOM     21  C   UNL     1       6.701   5.566  15.569  0.00  0.00    +0.000 A 
BRANCH  16  23
ATOM     22  C   UNL     1       6.008   3.486  12.719  0.00  0.00    +0.000 C 
ATOM     23  O   UNL     1       6.852   3.804  13.815  0.00  0.00    +0.000 OA
ENDBRANCH  16  23
BRANCH  20  24
ATOM     24  O   UNL     1       6.103   7.173  17.368  0.00  0.00    +0.000 OA
ATOM     25  C   UNL     1       7.236   7.939  17.672  0.00  0.00    +0.000 C 
ENDBRANCH  20  24
ENDBRANCH  15  19
ENDBRANCH   1  15
TORSDOF 6
ENDMDL
MODEL 7
REMARK VINA RESULT:      -6.3      1.740      2.581
REMARK  Name = 
REMARK  9 active torsions:
REMARK  status: ('A' for Active; 'I' for Inactive)
REMARK    1  A    between atoms: C_1  and  O_2
REMARK    2  A    between atoms: O_2  and  C_3
REMARK    3  A    between atoms: C_6  and  C_7
REMARK    4  A    between atoms: C_7  and  N_8
REMARK    5  A    between atoms: N_11  and  C_12
REMARK    6  A    between atoms: C_17  and  O_18
REMARK    7  A    between atoms: O_18  and  C_19
REMARK    8  A    between atoms: C_22  and  O_23
REMARK    9  A    between atoms: O_23  and  C_24
REMARK                            x       y       z     vdW  Elec       q    Type
REMARK                         _______ _______ _______ _____ _____    ______ ____
ROOT
ATOM      1  N   UNL     1       2.286   8.312  19.048  0.00  0.00    +0.000 NA
ATOM      2  C   UNL     1       1.815   9.385  18.154  0.00  0.00    +0.000 C 
ATOM      3  C   UNL     1       0.343   9.870  18.252  0.00  0.00    +0.000 C 
ATOM      4  N   UNL     1      -0.145  10.043  19.640  0.00  0.00    +0.000 N 
ATOM      5  C   UNL     1       0.194   8.945  20.546  0.00  0.00    +0.000 C 
ATOM      6  C   UNL     1       1.685   8.497  20.403  0.00  0.00    +0.000 C 
ENDROOT
BRANCH   4   7
ATOM      7  C   UNL     1      -0.606  11.287  20.106  0.00  0.00    +0.000 A 
ATOM      8  C   UNL     1      -1.906  11.687  19.724  0.00  0.00    +0.000 A 
ATOM      9  C   UNL     1      -2.518  12.869  20.155  0.00  0.00    +0.000 A 
ATOM     10  C   UNL     1      -1.821  13.727  20.987  0.00  0.00    +0.000 A 
ATOM     11  C   UNL     1      -0.520  13.394  21.357  0.00  0.00    +0.000 A 
ATOM     12  C   UNL     1       0.107  12.203  20.925  0.00  0.00    +0.000 A 
BRANCH  12  13
ATOM     13  O   UNL     1       1.445  12.237  21.223  0.00  0.00    +0.000 OA
ATOM     14  C   UNL     1       2.296  13.194  20.617  0.00  0.00    +0.000 C 
ENDBRANCH  12  13
ENDBRANCH   4   7
BRANCH   1  15
ATOM     15  C   UNL     1       2.020   6.950  18.568  0.00  0.00    +0.000 C 
BRANCH  15  19
ATOM     16  C   UNL     1       5.067   4.523  16.634  0.00  0.00    +0.000 A 
ATOM     17  C   UNL     1       5.233   5.918  16.700  0.00  0.00    +0.000 A 
ATOM     18  C   UNL     1       4.264   6.735  17.293  0.00  0.00    +0.000 A 
ATOM     19  C   UNL     1       3.105   6.154  17.835  0.00  0.00    +0.000 A 
ATOM     20  C   UNL     1       2.981   4.746  17.827  0.00  0.00    +0.000 A 
ATOM     21  C   UNL     1       3.936   3.923  17.208  0.00  0.00    +0.000 A 
BRANCH  16  23
ATOM     22  C   UNL     1       6.345   4.144  14.635  0.00  0.00    +0.000 C 
ATOM     23  O   UNL     1       6.122   3.896  16.015  0.00  0.00    +0.000 OA
ENDBRANCH  16  23
BRANCH  20  24
ATOM     24  O   UNL     1       1.891   4.382  18.543  0.00  0.00    +0.000 OA
ATOM     25  C   UNL     1       1.228   3.152  18.653  0.00  0.00    +0.000 C 
ENDBRANCH  20  24
ENDBRANCH  15  19
ENDBRANCH   1  15
TORSDOF 6
ENDMDL
MODEL 8
REMARK VINA RESULT:      -6.3      1.698      2.365
REMARK  Name = 
REMARK  9 active torsions:
REMARK  status: ('A' for Active; 'I' for Inactive)
REMARK    1  A    between atoms: C_1  and  O_2
REMARK    2  A    between atoms: O_2  and  C_3
REMARK    3  A    between atoms: C_6  and  C_7
REMARK    4  A    between atoms: C_7  and  N_8
REMARK    5  A    between atoms: N_11  and  C_12
REMARK    6  A    between atoms: C_17  and  O_18
REMARK    7  A    between atoms: O_18  and  C_19
REMARK    8  A    between atoms: C_22  and  O_23
REMARK    9  A    between atoms: O_23  and  C_24
REMARK                            x       y       z     vdW  Elec       q    Type
REMARK                         _______ _______ _______ _____ _____    ______ ____
ROOT
ATOM      1  N   UNL     1       2.182   7.084  18.703  0.00  0.00    +0.000 NA
ATOM      2  C   UNL     1       1.611   7.419  20.020  0.00  0.00    +0.000 C 
ATOM      3  C   UNL     1       1.551   8.903  20.472  0.00  0.00    +0.000 C 
ATOM      4  N   UNL     1       1.105   9.839  19.415  0.00  0.00    +0.000 N 
ATOM      5  C   UNL     1       1.733   9.628  18.110  0.00  0.00    +0.000 C 
ATOM      6  C   UNL     1       1.768   8.117  17.707  0.00  0.00    +0.000 C 
ENDROOT
BRANCH   4   7
ATOM      7  C   UNL     1      -0.040  10.637  19.577  0.00  0.00    +0.000 A 
ATOM      8  C   UNL     1      -0.136  11.412  20.755  0.00  0.00    +0.000 A 
ATOM      9  C   UNL     1      -1.188  12.294  21.028  0.00  0.00    +0.000 A 
ATOM     10  C   UNL     1      -2.221  12.416  20.116  0.00  0.00    +0.000 A 
ATOM     11  C   UNL     1      -2.191  11.641  18.958  0.00  0.00    +0.000 A 
ATOM     12  C   UNL     1      -1.134  10.747  18.675  0.00  0.00    +0.000 A 
BRANCH  12  13
ATOM     13  O   UNL     1      -1.464   9.941  17.616  0.00  0.00    +0.000 OA
ATOM     14  C   UNL     1      -2.363  10.393  16.619  0.00  0.00    +0.000 C 
ENDBRANCH  12  13
ENDBRANCH   4   7
BRANCH   1  15
ATOM     15  C   UNL     1       3.644   6.936  18.686  0.00  0.00    +0.000 C 
BRANCH  15  19
ATOM     16  C   UNL     1       5.664   4.293  15.885  0.00  0.00    +0.000 A 
ATOM     17  C   UNL     1       5.569   5.665  15.594  0.00  0.00    +0.000 A 
ATOM     18  C   UNL     1       4.906   6.544  16.459  0.00  0.00    +0.000 A 
ATOM     19  C   UNL     1       4.327   6.049  17.640  0.00  0.00    +0.000 A 
ATOM     20  C   UNL     1       4.490   4.681  17.957  0.00  0.00    +0.000 A 
ATOM     21  C   UNL     1       5.129   3.790  17.080  0.00  0.00    +0.000 A 
BRANCH  16  23
ATOM     22  C   UNL     1       6.176   3.972  13.560  0.00  0.00    +0.000 C 
ATOM     23  O   UNL     1       6.349   3.596  14.917  0.00  0.00    +0.000 OA
ENDBRANCH  16  23
BRANCH  20  24
ATOM     24  O   UNL     1       4.017   4.445  19.204  0.00  0.00    +0.000 OA
ATOM     25  C   UNL     1       3.503   3.281  19.790  0.00  0.00    +0.000 C 
ENDBRANCH  20  24
ENDBRANCH  15  19
ENDBRANCH   1  15
TORSDOF 6
ENDMDL
MODEL 9
REMARK VINA RESULT:      -6.3      1.856      2.931
REMARK  Name = 
REMARK  9 active torsions:
REMARK  status: ('A' for Active; 'I' for Inactive)
REMARK    1  A    between atoms: C_1  and  O_2
REMARK    2  A    between atoms: O_2  and  C_3
REMARK    3  A    between atoms: C_6  and  C_7
REMARK    4  A    between atoms: C_7  and  N_8
REMARK    5  A    between atoms: N_11  and  C_12
REMARK    6  A    between atoms: C_17  and  O_18
REMARK    7  A    between atoms: O_18  and  C_19
REMARK    8  A    between atoms: C_22  and  O_23
REMARK    9  A    between atoms: O_23  and  C_24
REMARK                            x       y       z     vdW  Elec       q    Type
REMARK                         _______ _______ _______ _____ _____    ______ ____
ROOT
ATOM      1  N   UNL     1       2.293   8.196  19.083  0.00  0.00    +0.000 NA
ATOM      2  C   UNL     1       1.865   9.277  18.177  0.00  0.00    +0.000 C 
ATOM      3  C   UNL     1       0.405   9.802  18.250  0.00  0.00    +0.000 C 
ATOM      4  N   UNL     1      -0.099   9.995  19.628  0.00  0.00    +0.000 N 
ATOM      5  C   UNL     1       0.195   8.892  20.545  0.00  0.00    +0.000 C 
ATOM      6  C   UNL     1       1.676   8.403  20.427  0.00  0.00    +0.000 C 
ENDROOT
BRANCH   4   7
ATOM      7  C   UNL     1      -0.533  11.253  20.082  0.00  0.00    +0.000 A 
ATOM      8  C   UNL     1       0.237  11.888  21.083  0.00  0.00    +0.000 A 
ATOM      9  C   UNL     1      -0.041  13.162  21.591  0.00  0.00    +0.000 A 
ATOM     10  C   UNL     1      -1.140  13.854  21.117  0.00  0.00    +0.000 A 
ATOM     11  C   UNL     1      -1.952  13.252  20.159  0.00  0.00    +0.000 A 
ATOM     12  C   UNL     1      -1.682  11.964  19.642  0.00  0.00    +0.000 A 
BRANCH  12  13
ATOM     13  O   UNL     1      -2.751  11.513  18.911  0.00  0.00    +0.000 OA
ATOM     14  C   UNL     1      -2.704  11.498  17.496  0.00  0.00    +0.000 C 
ENDBRANCH  12  13
ENDBRANCH   4   7
BRANCH   1  15
ATOM     15  C   UNL     1       1.997   6.838  18.604  0.00  0.00    +0.000 C 
BRANCH  15  19
ATOM     16  C   UNL     1       4.937   4.367  16.566  0.00  0.00    +0.000 A 
ATOM     17  C   UNL     1       5.224   5.721  16.813  0.00  0.00    +0.000 A 
ATOM     18  C   UNL     1       4.294   6.554  17.444  0.00  0.00    +0.000 A 
ATOM     19  C   UNL     1       3.053   6.031  17.843  0.00  0.00    +0.000 A 
ATOM     20  C   UNL     1       2.803   4.653  17.655  0.00  0.00    +0.000 A 
ATOM     21  C   UNL     1       3.720   3.818  16.996  0.00  0.00    +0.000 A 
BRANCH  16  23
ATOM     22  C   UNL     1       6.200   3.976  14.560  0.00  0.00    +0.000 C 
ATOM     23  O   UNL     1       5.972   3.715  15.937  0.00  0.00    +0.000 OA
ENDBRANCH  16  23
BRANCH  20  24
ATOM     24  O   UNL     1       1.637   4.317  18.257  0.00  0.00    +0.000 OA
ATOM     25  C   UNL     1       1.287   3.201  19.029  0.00  0.00    +0.000 C 
ENDBRANCH  20  24
ENDBRANCH  15  19
ENDBRANCH   1  15
TORSDOF 6
ENDMDL
