MODEL 1
REMARK VINA RESULT:      -8.1      0.000      0.000
REMARK  Name = 
REMARK  7 active torsions:
REMARK  status: ('A' for Active; 'I' for Inactive)
REMARK    1  A    between atoms: C_1  and  O_2
REMARK    2  A    between atoms: O_2  and  C_3
REMARK    3  A    between atoms: C_8  and  C_9
REMARK    4  A    between atoms: C_9  and  N_10
REMARK    5  A    between atoms: C_11  and  C_13
REMARK    6  A    between atoms: C_16  and  C_17
REMARK    7  A    between atoms: C_18  and  N_19
REMARK                            x       y       z     vdW  Elec       q    Type
REMARK                         _______ _______ _______ _____ _____    ______ ____
ROOT
ATOM      1  C   UNL     1       2.070   6.748  20.176  0.00  0.00    +0.000 A 
ATOM      2  C   UNL     1       1.219   5.671  20.434  0.00  0.00    +0.000 A 
ATOM      3  C   UNL     1       1.607   4.369  20.121  0.00  0.00    +0.000 A 
ATOM      4  C   UNL     1       2.862   4.098  19.551  0.00  0.00    +0.000 A 
ATOM      5  C   UNL     1       3.203   2.644  19.342  0.00  0.00    +0.000 C 
ATOM      6  C   UNL     1       3.737   5.186  19.288  0.00  0.00    +0.000 A 
ATOM      7  C   UNL     1       3.338   6.503  19.625  0.00  0.00    +0.000 A 
ENDROOT
BRANCH   6   8
ATOM      8  N   UNL     1       5.028   4.974  18.706  0.00  0.00    +0.000 N 
ATOM      9  C   UNL     1       6.248   5.030  19.355  0.00  0.00    +0.000 A 
ATOM     10  N   UNL     1       7.281   4.927  18.551  0.00  0.00    +0.000 NA
ATOM     11  C   UNL     1       6.728   4.725  17.319  0.00  0.00    +0.000 A 
ATOM     12  C   UNL     1       7.345   4.571  16.072  0.00  0.00    +0.000 A 
ATOM     13  C   UNL     1       6.513   4.368  14.971  0.00  0.00    +0.000 A 
ATOM     14  C   UNL     1       5.137   4.324  15.163  0.00  0.00    +0.000 A 
ATOM     15  N   UNL     1       4.492   4.481  16.346  0.00  0.00    +0.000 NA
ATOM     16  C   UNL     1       5.335   4.680  17.384  0.00  0.00    +0.000 A 
ENDBRANCH   6   8
BRANCH   1  18
ATOM     17  N   UNL     1       1.406   9.016  19.503  0.00  0.00    +0.000 N 
ATOM     18  C   UNL     1       1.555   8.110  20.528  0.00  0.00    +0.000 C 
ATOM     19  O   UNL     1       1.240   8.351  21.692  0.00  0.00    +0.000 OA
ATOM     20  H   UNL     1       1.563   8.737  18.546  0.00  0.00    +0.000 HD
BRANCH  17  21
ATOM     21  C   UNL     1       0.798  10.326  19.714  0.00  0.00    +0.000 C 
BRANCH  21  27
ATOM     22  C   UNL     1      -1.504  11.398  19.341  0.00  0.00    +0.000 A 
ATOM     23  C   UNL     1      -2.642  11.574  18.540  0.00  0.00    +0.000 A 
ATOM     24  C   UNL     1      -2.838  10.793  17.402  0.00  0.00    +0.000 A 
ATOM     25  C   UNL     1      -1.875   9.861  17.033  0.00  0.00    +0.000 A 
ATOM     26  C   UNL     1      -0.699   9.741  17.779  0.00  0.00    +0.000 A 
ATOM     27  C   UNL     1      -0.489  10.510  18.937  0.00  0.00    +0.000 A 
BRANCH  22  29
ATOM     28  C   UNL     1      -2.545  12.542  21.123  0.00  0.00    +0.000 C 
ATOM     29  O   UNL     1      -1.334  12.063  20.529  0.00  0.00    +0.000 OA
ENDBRANCH  22  29
ENDBRANCH  21  27
ENDBRANCH  17  21
ENDBRANCH   1  18
TORSDOF 5
ENDMDL
MODEL 2
REMARK VINA RESULT:      -8.0      1.897      3.006
REMARK  Name = 
REMARK  7 active torsions:
REMARK  status: ('A' for Active; 'I' for Inactive)
REMARK    1  A    between atoms: C_1  and  O_2
REMARK    2  A    between atoms: O_2  and  C_3
REMARK    3  A    between atoms: C_8  and  C_9
REMARK    4  A    between atoms: C_9  and  N_10
REMARK    5  A    between atoms: C_11  and  C_13
REMARK    6  A    between atoms: C_16  and  C_17
REMARK    7  A    between atoms: C_18  and  N_19
REMARK                            x       y       z     vdW  Elec       q    Type
REMARK                         _______ _______ _______ _____ _____    ______ ____
ROOT
ATOM      1  C   UNL     1       1.584   8.626  19.066  0.00  0.00    +0.000 A 
ATOM      2  C   UNL     1       1.281   8.290  20.387  0.00  0.00    +0.000 A 
ATOM      3  C   UNL     1       1.608   7.033  20.892  0.00  0.00    +0.000 A 
ATOM      4  C   UNL     1       2.258   6.073  20.099  0.00  0.00    +0.000 A 
ATOM      5  C   UNL     1       2.640   4.785  20.784  0.00  0.00    +0.000 C 
ATOM      6  C   UNL     1       2.574   6.405  18.754  0.00  0.00    +0.000 A 
ATOM      7  C   UNL     1       2.251   7.692  18.256  0.00  0.00    +0.000 A 
ENDROOT
BRANCH   6   8
ATOM      8  N   UNL     1       3.234   5.469  17.895  0.00  0.00    +0.000 N 
ATOM      9  C   UNL     1       2.731   4.263  17.444  0.00  0.00    +0.000 A 
ATOM     10  N   UNL     1       3.602   3.542  16.776  0.00  0.00    +0.000 NA
ATOM     11  C   UNL     1       4.715   4.331  16.718  0.00  0.00    +0.000 A 
ATOM     12  C   UNL     1       5.969   4.076  16.150  0.00  0.00    +0.000 A 
ATOM     13  C   UNL     1       6.925   5.086  16.237  0.00  0.00    +0.000 A 
ATOM     14  C   UNL     1       6.591   6.279  16.868  0.00  0.00    +0.000 A 
ATOM     15  N   UNL     1       5.399   6.570  17.445  0.00  0.00    +0.000 NA
ATOM     16  C   UNL     1       4.504   5.561  17.341  0.00  0.00    +0.000 A 
ENDBRANCH   6   8
BRANCH   1  18
ATOM     17  N   UNL     1      -0.141  10.354  18.789  0.00  0.00    +0.000 N 
ATOM     18  C   UNL     1       1.174   9.993  18.609  0.00  0.00    +0.000 C 
ATOM     19  O   UNL     1       2.024  10.750  18.146  0.00  0.00    +0.000 OA
ATOM     20  H   UNL     1      -0.777   9.745  19.283  0.00  0.00    +0.000 HD
BRANCH  17  21
ATOM     21  C   UNL     1      -0.618  11.701  18.494  0.00  0.00    +0.000 C 
BRANCH  21  27
ATOM     22  C   UNL     1      -2.934  11.422  17.425  0.00  0.00    +0.000 A 
ATOM     23  C   UNL     1      -4.332  11.482  17.530  0.00  0.00    +0.000 A 
ATOM     24  C   UNL     1      -4.936  12.032  18.660  0.00  0.00    +0.000 A 
ATOM     25  C   UNL     1      -4.147  12.483  19.711  0.00  0.00    +0.000 A 
ATOM     26  C   UNL     1      -2.758  12.348  19.648  0.00  0.00    +0.000 A 
ATOM     27  C   UNL     1      -2.129  11.809  18.512  0.00  0.00    +0.000 A 
BRANCH  22  29
ATOM     28  C   UNL     1      -2.946   9.908  15.615  0.00  0.00    +0.000 C 
ATOM     29  O   UNL     1      -2.303  10.999  16.282  0.00  0.00    +0.000 OA
ENDBRANCH  22  29
ENDBRANCH  21  27
ENDBRANCH  17  21
ENDBRANCH   1  18
TORSDOF 5
ENDMDL
MODEL 3
REMARK VINA RESULT:      -8.0      3.219      8.991
REMARK  Name = 
REMARK  7 active torsions:
REMARK  status: ('A' for Active; 'I' for Inactive)
REMARK    1  A    between atoms: C_1  and  O_2
REMARK    2  A    between atoms: O_2  and  C_3
REMARK    3  A    between atoms: C_8  and  C_9
REMARK    4  A    between atoms: C_9  and  N_10
REMARK    5  A    between atoms: C_11  and  C_13
REMARK    6  A    between atoms: C_16  and  C_17
REMARK    7  A    between atoms: C_18  and  N_19
REMARK                            x       y       z     vdW  Elec       q    Type
REMARK                         _______ _______ _______ _____ _____    ______ ____
ROOT
ATOM      1  C   UNL     1       1.057   8.991  20.410  0.00  0.00    +0.000 A 
ATOM      2  C   UNL     1       0.473   8.451  21.559  0.00  0.00    +0.000 A 
ATOM      3  C   UNL     1      -0.306   9.244  22.399  0.00  0.00    +0.000 A 
ATOM      4  C   UNL     1      -0.538  10.600  22.115  0.00  0.00    +0.000 A 
ATOM      5  C   UNL     1      -1.470  11.330  23.050  0.00  0.00    +0.000 C 
ATOM      6  C   UNL     1       0.048  11.160  20.948  0.00  0.00    +0.000 A 
ATOM      7  C   UNL     1       0.825  10.339  20.093  0.00  0.00    +0.000 A 
ENDROOT
BRANCH   6   8
ATOM      8  N   UNL     1      -0.149  12.536  20.606  0.00  0.00    +0.000 N 
ATOM      9  C   UNL     1      -1.226  13.073  19.926  0.00  0.00    +0.000 A 
ATOM     10  N   UNL     1      -1.085  14.345  19.631  0.00  0.00    +0.000 NA
ATOM     11  C   UNL     1       0.108  14.691  20.199  0.00  0.00    +0.000 A 
ATOM     12  C   UNL     1       0.786  15.915  20.190  0.00  0.00    +0.000 A 
ATOM     13  C   UNL     1       2.000  15.975  20.873  0.00  0.00    +0.000 A 
ATOM     14  C   UNL     1       2.468  14.838  21.521  0.00  0.00    +0.000 A 
ATOM     15  N   UNL     1       1.856  13.628  21.549  0.00  0.00    +0.000 NA
ATOM     16  C   UNL     1       0.686  13.613  20.871  0.00  0.00    +0.000 A 
ENDBRANCH   6   8
BRANCH   1  18
ATOM     17  N   UNL     1       2.530   7.033  20.232  0.00  0.00    +0.000 N 
ATOM     18  C   UNL     1       1.893   8.064  19.581  0.00  0.00    +0.000 C 
ATOM     19  O   UNL     1       1.937   8.223  18.363  0.00  0.00    +0.000 OA
ATOM     20  H   UNL     1       2.369   6.869  21.215  0.00  0.00    +0.000 HD
BRANCH  17  21
ATOM     21  C   UNL     1       3.268   6.003  19.507  0.00  0.00    +0.000 C 
BRANCH  21  27
ATOM     22  C   UNL     1       2.559   3.970  18.108  0.00  0.00    +0.000 A 
ATOM     23  C   UNL     1       1.828   2.779  17.988  0.00  0.00    +0.000 A 
ATOM     24  C   UNL     1       0.905   2.410  18.965  0.00  0.00    +0.000 A 
ATOM     25  C   UNL     1       0.740   3.207  20.092  0.00  0.00    +0.000 A 
ATOM     26  C   UNL     1       1.527   4.350  20.258  0.00  0.00    +0.000 A 
ATOM     27  C   UNL     1       2.453   4.746  19.278  0.00  0.00    +0.000 A 
BRANCH  22  29
ATOM     28  C   UNL     1       4.577   3.654  16.928  0.00  0.00    +0.000 C 
ATOM     29  O   UNL     1       3.387   4.426  17.113  0.00  0.00    +0.000 OA
ENDBRANCH  22  29
ENDBRANCH  21  27
ENDBRANCH  17  21
ENDBRANCH   1  18
TORSDOF 5
ENDMDL
MODEL 4
REMARK VINA RESULT:      -7.9      1.931      2.699
REMARK  Name = 
REMARK  7 active torsions:
REMARK  status: ('A' for Active; 'I' for Inactive)
REMARK    1  A    between atoms: C_1  and  O_2
REMARK    2  A    between atoms: O_2  and  C_3
REMARK    3  A    between atoms: C_8  and  C_9
REMARK    4  A    between atoms: C_9  and  N_10
REMARK    5  A    between atoms: C_11  and  C_13
REMARK    6  A    between atoms: C_16  and  C_17
REMARK    7  A    between atoms: C_18  and  N_19
REMARK                            x       y       z     vdW  Elec       q    Type
REMARK                         _______ _______ _______ _____ _____    ______ ____
ROOT
ATOM      1  C   UNL     1       2.605   7.746  18.443  0.00  0.00    +0.000 A 
ATOM      2  C   UNL     1       2.245   6.851  19.453  0.00  0.00    +0.000 A 
ATOM      3  C   UNL     1       2.982   5.688  19.668  0.00  0.00    +0.000 A 
ATOM      4  C   UNL     1       4.111   5.385  18.888  0.00  0.00    +0.000 A 
ATOM      5  C   UNL     1       4.878   4.145  19.274  0.00  0.00    +0.000 C 
ATOM      6  C   UNL     1       4.488   6.289  17.859  0.00  0.00    +0.000 A 
ATOM      7  C   UNL     1       3.740   7.476  17.661  0.00  0.00    +0.000 A 
ENDROOT
BRANCH   6   8
ATOM      8  N   UNL     1       5.627   6.034  17.029  0.00  0.00    +0.000 N 
ATOM      9  C   UNL     1       6.891   6.574  17.170  0.00  0.00    +0.000 A 
ATOM     10  N   UNL     1       7.709   6.271  16.189  0.00  0.00    +0.000 NA
ATOM     11  C   UNL     1       6.982   5.434  15.392  0.00  0.00    +0.000 A 
ATOM     12  C   UNL     1       7.329   4.813  14.187  0.00  0.00    +0.000 A 
ATOM     13  C   UNL     1       6.371   3.993  13.594  0.00  0.00    +0.000 A 
ATOM     14  C   UNL     1       5.140   3.831  14.219  0.00  0.00    +0.000 A 
ATOM     15  N   UNL     1       4.751   4.419  15.378  0.00  0.00    +0.000 NA
ATOM     16  C   UNL     1       5.708   5.208  15.915  0.00  0.00    +0.000 A 
ENDBRANCH   6   8
BRANCH   1  18
ATOM     17  N   UNL     1       0.658   9.084  19.119  0.00  0.00    +0.000 N 
ATOM     18  C   UNL     1       1.739   8.957  18.277  0.00  0.00    +0.000 C 
ATOM     19  O   UNL     1       2.048   9.806  17.444  0.00  0.00    +0.000 OA
ATOM     20  H   UNL     1       0.511   8.422  19.867  0.00  0.00    +0.000 HD
BRANCH  17  21
ATOM     21  C   UNL     1      -0.177  10.281  19.126  0.00  0.00    +0.000 C 
BRANCH  21  27
ATOM     22  C   UNL     1      -1.340  11.862  20.779  0.00  0.00    +0.000 A 
ATOM     23  C   UNL     1      -1.784  12.140  22.081  0.00  0.00    +0.000 A 
ATOM     24  C   UNL     1      -1.425  11.315  23.145  0.00  0.00    +0.000 A 
ATOM     25  C   UNL     1      -0.656  10.181  22.908  0.00  0.00    +0.000 A 
ATOM     26  C   UNL     1      -0.283   9.853  21.602  0.00  0.00    +0.000 A 
ATOM     27  C   UNL     1      -0.624  10.679  20.518  0.00  0.00    +0.000 A 
BRANCH  22  29
ATOM     28  C   UNL     1      -0.893  13.969  19.816  0.00  0.00    +0.000 C 
ATOM     29  O   UNL     1      -1.573  12.713  19.728  0.00  0.00    +0.000 OA
ENDBRANCH  22  29
ENDBRANCH  21  27
ENDBRANCH  17  21
ENDBRANCH   1  18
TORSDOF 5
ENDMDL
MODEL 5
REMARK VINA RESULT:      -7.9      2.609      9.258
REMARK  Name = 
REMARK  7 active torsions:
REMARK  status: ('A' for Active; 'I' for Inactive)
REMARK    1  A    between atoms: C_1  and  O_2
REMARK    2  A    between atoms: O_2  and  C_3
REMARK    3  A    between atoms: C_8  and  C_9
REMARK    4  A    between atoms: C_9  and  N_10
REMARK    5  A    between atoms: C_11  and  C_13
REMARK    6  A    between atoms: C_16  and  C_17
REMARK    7  A    between atoms: C_18  and  N_19
REMARK                            x       y       z     vdW  Elec       q    Type
REMARK                         _______ _______ _______ _____ _____    ______ ____
ROOT
ATOM      1  C   UNL     1       0.651   9.869  19.974  0.00  0.00    +0.000 A 
ATOM      2  C   UNL     1       1.420  11.024  20.136  0.00  0.00    +0.000 A 
ATOM      3  C   UNL     1       1.026  12.227  19.554  0.00  0.00    +0.000 A 
ATOM      4  C   UNL     1      -0.156  12.321  18.800  0.00  0.00    +0.000 A 
ATOM      5  C   UNL     1      -0.522  13.695  18.297  0.00  0.00    +0.000 C 
ATOM      6  C   UNL     1      -0.948  11.154  18.630  0.00  0.00    +0.000 A 
ATOM      7  C   UNL     1      -0.545   9.940  19.240  0.00  0.00    +0.000 A 
ENDROOT
BRANCH   6   8
ATOM      8  N   UNL     1      -2.161  11.185  17.871  0.00  0.00    +0.000 N 
ATOM      9  C   UNL     1      -2.327  10.778  16.560  0.00  0.00    +0.000 A 
ATOM     10  N   UNL     1      -3.516  11.043  16.070  0.00  0.00    +0.000 NA
ATOM     11  C   UNL     1      -4.198  11.588  17.120  0.00  0.00    +0.000 A 
ATOM     12  C   UNL     1      -5.505  12.084  17.183  0.00  0.00    +0.000 A 
ATOM     13  C   UNL     1      -5.940  12.580  18.411  0.00  0.00    +0.000 A 
ATOM     14  C   UNL     1      -5.071  12.554  19.496  0.00  0.00    +0.000 A 
ATOM     15  N   UNL     1      -3.794  12.098  19.483  0.00  0.00    +0.000 NA
ATOM     16  C   UNL     1      -3.413  11.631  18.273  0.00  0.00    +0.000 A 
ENDBRANCH   6   8
BRANCH   1  18
ATOM     17  N   UNL     1       1.855   7.733  19.825  0.00  0.00    +0.000 N 
ATOM     18  C   UNL     1       1.168   8.620  20.620  0.00  0.00    +0.000 C 
ATOM     19  O   UNL     1       1.008   8.460  21.828  0.00  0.00    +0.000 OA
ATOM     20  H   UNL     1       2.067   7.962  18.865  0.00  0.00    +0.000 HD
BRANCH  17  21
ATOM     21  C   UNL     1       2.506   6.549  20.376  0.00  0.00    +0.000 C 
BRANCH  21  27
ATOM     22  C   UNL     1       2.337   4.922  18.397  0.00  0.00    +0.000 A 
ATOM     23  C   UNL     1       1.928   3.684  17.879  0.00  0.00    +0.000 A 
ATOM     24  C   UNL     1       1.122   2.830  18.631  0.00  0.00    +0.000 A 
ATOM     25  C   UNL     1       0.757   3.189  19.923  0.00  0.00    +0.000 A 
ATOM     26  C   UNL     1       1.232   4.382  20.476  0.00  0.00    +0.000 A 
ATOM     27  C   UNL     1       2.034   5.262  19.729  0.00  0.00    +0.000 A 
BRANCH  22  29
ATOM     28  C   UNL     1       4.301   5.384  17.174  0.00  0.00    +0.000 C 
ATOM     29  O   UNL     1       3.029   5.839  17.646  0.00  0.00    +0.000 OA
ENDBRANCH  22  29
ENDBRANCH  21  27
ENDBRANCH  17  21
ENDBRANCH   1  18
TORSDOF 5
ENDMDL
MODEL 6
REMARK VINA RESULT:      -7.9      3.159      9.156
REMARK  Name = 
REMARK  7 active torsions:
REMARK  status: ('A' for Active; 'I' for Inactive)
REMARK    1  A    between atoms: C_1  and  O_2
REMARK    2  A    between atoms: O_2  and  C_3
REMARK    3  A    between atoms: C_8  and  C_9
REMARK    4  A    between atoms: C_9  and  N_10
REMARK    5  A    between atoms: C_11  and  C_13
REMARK    6  A    between atoms: C_16  and  C_17
REMARK    7  A    between atoms: C_18  and  N_19
REMARK                            x       y       z     vdW  Elec       q    Type
REMARK                         _______ _______ _______ _____ _____    ______ ____
ROOT
ATOM      1  C   UNL     1       1.422   8.898  19.675  0.00  0.00    +0.000 A 
ATOM      2  C   UNL     1       1.268   8.142  20.840  0.00  0.00    +0.000 A 
ATOM      3  C   UNL     1       0.588   8.662  21.939  0.00  0.00    +0.000 A 
ATOM      4  C   UNL     1       0.028   9.950  21.909  0.00  0.00    +0.000 A 
ATOM      5  C   UNL     1      -0.760  10.366  23.125  0.00  0.00    +0.000 C 
ATOM      6  C   UNL     1       0.176  10.727  20.729  0.00  0.00    +0.000 A 
ATOM      7  C   UNL     1       0.855  10.181  19.611  0.00  0.00    +0.000 A 
ENDROOT
BRANCH   6   8
ATOM      8  N   UNL     1      -0.370  12.048  20.638  0.00  0.00    +0.000 N 
ATOM      9  C   UNL     1      -1.632  12.393  20.192  0.00  0.00    +0.000 A 
ATOM     10  N   UNL     1      -1.822  13.687  20.088  0.00  0.00    +0.000 NA
ATOM     11  C   UNL     1      -0.659  14.235  20.549  0.00  0.00    +0.000 A 
ATOM     12  C   UNL     1      -0.276  15.577  20.651  0.00  0.00    +0.000 A 
ATOM     13  C   UNL     1       0.988  15.841  21.176  0.00  0.00    +0.000 A 
ATOM     14  C   UNL     1       1.790  14.776  21.572  0.00  0.00    +0.000 A 
ATOM     15  N   UNL     1       1.471  13.461  21.483  0.00  0.00    +0.000 NA
ATOM     16  C   UNL     1       0.240  13.252  20.964  0.00  0.00    +0.000 A 
ENDBRANCH   6   8
BRANCH   1  18
ATOM     17  N   UNL     1       2.800   7.056  18.812  0.00  0.00    +0.000 N 
ATOM     18  C   UNL     1       2.186   8.260  18.555  0.00  0.00    +0.000 C 
ATOM     19  O   UNL     1       2.193   8.799  17.450  0.00  0.00    +0.000 OA
ATOM     20  H   UNL     1       2.667   6.591  19.698  0.00  0.00    +0.000 HD
BRANCH  17  21
ATOM     21  C   UNL     1       3.464   6.290  17.761  0.00  0.00    +0.000 C 
BRANCH  21  27
ATOM     22  C   UNL     1       4.101   3.811  17.574  0.00  0.00    +0.000 A 
ATOM     23  C   UNL     1       3.753   2.458  17.708  0.00  0.00    +0.000 A 
ATOM     24  C   UNL     1       2.435   2.085  17.965  0.00  0.00    +0.000 A 
ATOM     25  C   UNL     1       1.463   3.064  18.135  0.00  0.00    +0.000 A 
ATOM     26  C   UNL     1       1.820   4.415  18.087  0.00  0.00    +0.000 A 
ATOM     27  C   UNL     1       3.141   4.811  17.816  0.00  0.00    +0.000 A 
BRANCH  22  29
ATOM     28  C   UNL     1       5.642   4.079  15.808  0.00  0.00    +0.000 C 
ATOM     29  O   UNL     1       5.360   4.211  17.204  0.00  0.00    +0.000 OA
ENDBRANCH  22  29
ENDBRANCH  21  27
ENDBRANCH  17  21
ENDBRANCH   1  18
TORSDOF 5
ENDMDL
MODEL 7
REMARK VINA RESULT:      -7.9      2.911      9.277
REMARK  Name = 
REMARK  7 active torsions:
REMARK  status: ('A' for Active; 'I' for Inactive)
REMARK    1  A    between atoms: C_1  and  O_2
REMARK    2  A    between atoms: O_2  and  C_3
REMARK    3  A    between atoms: C_8  and  C_9
REMARK    4  A    between atoms: C_9  and  N_10
REMARK    5  A    between atoms: C_11  and  C_13
REMARK    6  A    between atoms: C_16  and  C_17
REMARK    7  A    between atoms: C_18  and  N_19
REMARK                            x       y       z     vdW  Elec       q    Type
REMARK                         _______ _______ _______ _____ _____    ______ ____
ROOT
ATOM      1  C   UNL     1       1.351   8.915  19.665  0.00  0.00    +0.000 A 
ATOM      2  C   UNL     1       1.299   8.171  20.845  0.00  0.00    +0.000 A 
ATOM      3  C   UNL     1       0.603   8.648  21.955  0.00  0.00    +0.000 A 
ATOM      4  C   UNL     1      -0.073   9.879  21.919  0.00  0.00    +0.000 A 
ATOM      5  C   UNL     1      -0.864  10.244  23.150  0.00  0.00    +0.000 C 
ATOM      6  C   UNL     1      -0.030  10.643  20.722  0.00  0.00    +0.000 A 
ATOM      7  C   UNL     1       0.667  10.140  19.595  0.00  0.00    +0.000 A 
ENDROOT
BRANCH   6   8
ATOM      8  N   UNL     1      -0.697  11.906  20.624  0.00  0.00    +0.000 N 
ATOM      9  C   UNL     1      -1.950  12.141  20.089  0.00  0.00    +0.000 A 
ATOM     10  N   UNL     1      -2.261  13.413  20.006  0.00  0.00    +0.000 NA
ATOM     11  C   UNL     1      -1.198  14.056  20.573  0.00  0.00    +0.000 A 
ATOM     12  C   UNL     1      -0.960  15.425  20.742  0.00  0.00    +0.000 A 
ATOM     13  C   UNL     1       0.227  15.792  21.374  0.00  0.00    +0.000 A 
ATOM     14  C   UNL     1       1.099  14.799  21.803  0.00  0.00    +0.000 A 
ATOM     15  N   UNL     1       0.922  13.463  21.652  0.00  0.00    +0.000 NA
ATOM     16  C   UNL     1      -0.238  13.152  21.031  0.00  0.00    +0.000 A 
ENDBRANCH   6   8
BRANCH   1  18
ATOM     17  N   UNL     1       2.686   7.080  18.723  0.00  0.00    +0.000 N 
ATOM     18  C   UNL     1       2.141   8.329  18.534  0.00  0.00    +0.000 C 
ATOM     19  O   UNL     1       2.228   8.951  17.477  0.00  0.00    +0.000 OA
ATOM     20  H   UNL     1       2.488   6.556  19.562  0.00  0.00    +0.000 HD
BRANCH  17  21
ATOM     21  C   UNL     1       3.366   6.366  17.647  0.00  0.00    +0.000 C 
BRANCH  21  27
ATOM     22  C   UNL     1       5.384   5.355  18.872  0.00  0.00    +0.000 A 
ATOM     23  C   UNL     1       6.773   5.208  19.000  0.00  0.00    +0.000 A 
ATOM     24  C   UNL     1       7.643   5.992  18.243  0.00  0.00    +0.000 A 
ATOM     25  C   UNL     1       7.130   6.896  17.321  0.00  0.00    +0.000 A 
ATOM     26  C   UNL     1       5.748   6.986  17.128  0.00  0.00    +0.000 A 
ATOM     27  C   UNL     1       4.855   6.214  17.890  0.00  0.00    +0.000 A 
BRANCH  22  29
ATOM     28  C   UNL     1       4.393   3.286  19.422  0.00  0.00    +0.000 C 
ATOM     29  O   UNL     1       4.498   4.689  19.681  0.00  0.00    +0.000 OA
ENDBRANCH  22  29
ENDBRANCH  21  27
ENDBRANCH  17  21
ENDBRANCH   1  18
TORSDOF 5
ENDMDL
MODEL 8
REMARK VINA RESULT:      -7.9      1.612      1.825
REMARK  Name = 
REMARK  7 active torsions:
REMARK  status: ('A' for Active; 'I' for Inactive)
REMARK    1  A    between atoms: C_1  and  O_2
REMARK    2  A    between atoms: O_2  and  C_3
REMARK    3  A    between atoms: C_8  and  C_9
REMARK    4  A    between atoms: C_9  and  N_10
REMARK    5  A    between atoms: C_11  and  C_13
REMARK    6  A    between atoms: C_16  and  C_17
REMARK    7  A    between atoms: C_18  and  N_19
REMARK                            x       y       z     vdW  Elec       q    Type
REMARK                         _______ _______ _______ _____ _____    ______ ____
ROOT
ATOM      1  C   UNL     1       2.544   7.855  18.363  0.00  0.00    +0.000 A 
ATOM      2  C   UNL     1       1.992   6.906  19.226  0.00  0.00    +0.000 A 
ATOM      3  C   UNL     1       2.578   5.650  19.370  0.00  0.00    +0.000 A 
ATOM      4  C   UNL     1       3.743   5.303  18.665  0.00  0.00    +0.000 A 
ATOM      5  C   UNL     1       4.333   3.950  18.973  0.00  0.00    +0.000 C 
ATOM      6  C   UNL     1       4.316   6.261  17.787  0.00  0.00    +0.000 A 
ATOM      7  C   UNL     1       3.720   7.540  17.661  0.00  0.00    +0.000 A 
ENDROOT
BRANCH   6   8
ATOM      8  N   UNL     1       5.501   5.966  17.039  0.00  0.00    +0.000 N 
ATOM      9  C   UNL     1       6.781   6.414  17.306  0.00  0.00    +0.000 A 
ATOM     10  N   UNL     1       7.656   6.098  16.380  0.00  0.00    +0.000 NA
ATOM     11  C   UNL     1       6.946   5.346  15.489  0.00  0.00    +0.000 A 
ATOM     12  C   UNL     1       7.351   4.755  14.287  0.00  0.00    +0.000 A 
ATOM     13  C   UNL     1       6.395   4.027  13.580  0.00  0.00    +0.000 A 
ATOM     14  C   UNL     1       5.109   3.921  14.098  0.00  0.00    +0.000 A 
ATOM     15  N   UNL     1       4.664   4.484  15.248  0.00  0.00    +0.000 NA
ATOM     16  C   UNL     1       5.621   5.184  15.897  0.00  0.00    +0.000 A 
ENDBRANCH   6   8
BRANCH   1  18
ATOM     17  N   UNL     1       0.872   9.444  19.209  0.00  0.00    +0.000 N 
ATOM     18  C   UNL     1       1.831   9.168  18.261  0.00  0.00    +0.000 C 
ATOM     19  O   UNL     1       2.158   9.962  17.381  0.00  0.00    +0.000 OA
ATOM     20  H   UNL     1       0.721   8.815  19.983  0.00  0.00    +0.000 HD
BRANCH  17  21
ATOM     21  C   UNL     1       0.206  10.741  19.276  0.00  0.00    +0.000 C 
BRANCH  21  27
ATOM     22  C   UNL     1      -2.253  11.459  19.113  0.00  0.00    +0.000 A 
ATOM     23  C   UNL     1      -3.467  11.472  18.409  0.00  0.00    +0.000 A 
ATOM     24  C   UNL     1      -3.636  10.685  17.271  0.00  0.00    +0.000 A 
ATOM     25  C   UNL     1      -2.579   9.914  16.804  0.00  0.00    +0.000 A 
ATOM     26  C   UNL     1      -1.341   9.963  17.451  0.00  0.00    +0.000 A 
ATOM     27  C   UNL     1      -1.154  10.740  18.607  0.00  0.00    +0.000 A 
BRANCH  22  29
ATOM     28  C   UNL     1      -2.122  13.554  20.192  0.00  0.00    +0.000 C 
ATOM     29  O   UNL     1      -2.087  12.127  20.300  0.00  0.00    +0.000 OA
ENDBRANCH  22  29
ENDBRANCH  21  27
ENDBRANCH  17  21
ENDBRANCH   1  18
TORSDOF 5
ENDMDL
MODEL 9
REMARK VINA RESULT:      -7.8      0.890      1.730
REMARK  Name = 
REMARK  7 active torsions:
REMARK  status: ('A' for Active; 'I' for Inactive)
REMARK    1  A    between atoms: C_1  and  O_2
REMARK    2  A    between atoms: O_2  and  C_3
REMARK    3  A    between atoms: C_8  and  C_9
REMARK    4  A    between atoms: C_9  and  N_10
REMARK    5  A    between atoms: C_11  and  C_13
REMARK    6  A    between atoms: C_16  and  C_17
REMARK    7  A    between atoms: C_18  and  N_19
REMARK                            x       y       z     vdW  Elec       q    Type
REMARK                         _______ _______ _______ _____ _____    ______ ____
ROOT
ATOM      1  C   UNL     1       1.774   7.049  20.246  0.00  0.00    +0.000 A 
ATOM      2  C   UNL     1       1.132   6.032  20.955  0.00  0.00    +0.000 A 
ATOM      3  C   UNL     1       1.499   4.700  20.774  0.00  0.00    +0.000 A 
ATOM      4  C   UNL     1       2.527   4.339  19.887  0.00  0.00    +0.000 A 
ATOM      5  C   UNL     1       2.893   2.877  19.845  0.00  0.00    +0.000 C 
ATOM      6  C   UNL     1       3.189   5.366  19.162  0.00  0.00    +0.000 A 
ATOM      7  C   UNL     1       2.818   6.718  19.366  0.00  0.00    +0.000 A 
ENDROOT
BRANCH   6   8
ATOM      8  N   UNL     1       4.243   5.062  18.241  0.00  0.00    +0.000 N 
ATOM      9  C   UNL     1       4.103   4.589  16.950  0.00  0.00    +0.000 A 
ATOM     10  N   UNL     1       5.239   4.269  16.377  0.00  0.00    +0.000 NA
ATOM     11  C   UNL     1       6.187   4.607  17.299  0.00  0.00    +0.000 A 
ATOM     12  C   UNL     1       7.580   4.470  17.250  0.00  0.00    +0.000 A 
ATOM     13  C   UNL     1       8.303   4.918  18.354  0.00  0.00    +0.000 A 
ATOM     14  C   UNL     1       7.620   5.474  19.429  0.00  0.00    +0.000 A 
ATOM     15  N   UNL     1       6.275   5.617  19.531  0.00  0.00    +0.000 NA
ATOM     16  C   UNL     1       5.613   5.165  18.442  0.00  0.00    +0.000 A 
ENDBRANCH   6   8
BRANCH   1  18
ATOM     17  N   UNL     1       1.112   9.258  19.396  0.00  0.00    +0.000 N 
ATOM     18  C   UNL     1       1.296   8.447  20.493  0.00  0.00    +0.000 C 
ATOM     19  O   UNL     1       1.038   8.798  21.643  0.00  0.00    +0.000 OA
ATOM     20  H   UNL     1       1.221   8.890  18.463  0.00  0.00    +0.000 HD
BRANCH  17  21
ATOM     21  C   UNL     1       0.533  10.592  19.513  0.00  0.00    +0.000 C 
BRANCH  21  27
ATOM     22  C   UNL     1      -1.827  11.569  19.256  0.00  0.00    +0.000 A 
ATOM     23  C   UNL     1      -3.011  11.695  18.514  0.00  0.00    +0.000 A 
ATOM     24  C   UNL     1      -3.233  10.900  17.391  0.00  0.00    +0.000 A 
ATOM     25  C   UNL     1      -2.254  10.006  16.975  0.00  0.00    +0.000 A 
ATOM     26  C   UNL     1      -1.037   9.938  17.660  0.00  0.00    +0.000 A 
ATOM     27  C   UNL     1      -0.800  10.721  18.803  0.00  0.00    +0.000 A 
BRANCH  22  29
ATOM     28  C   UNL     1      -2.792  12.876  20.968  0.00  0.00    +0.000 C 
ATOM     29  O   UNL     1      -1.623  12.247  20.432  0.00  0.00    +0.000 OA
ENDBRANCH  22  29
ENDBRANCH  21  27
ENDBRANCH  17  21
ENDBRANCH   1  18
TORSDOF 5
ENDMDL
