MODEL 1
REMARK VINA RESULT:      -6.5      0.000      0.000
REMARK  Name = 
REMARK  5 active torsions:
REMARK  status: ('A' for Active; 'I' for Inactive)
REMARK    1  A    between atoms: C_1  and  C_2
REMARK    2  A    between atoms: N_6  and  C_7
REMARK    3  A    between atoms: C_10  and  C_11
REMARK    4  A    between atoms: C_16  and  C_17
REMARK    5  A    between atoms: C_17  and  N_18
REMARK                            x       y       z     vdW  Elec       q    Type
REMARK                         _______ _______ _______ _____ _____    ______ ____
ROOT
ATOM      1  C   UNL     1       2.191   4.668  20.857  0.00  0.00    +0.000 C 
ATOM      2  C   UNL     1       2.553   3.195  20.620  0.00  0.00    +0.000 C 
ATOM      3  C   UNL     1       1.513   2.503  19.729  0.00  0.00    +0.000 C 
ATOM      4  C   UNL     1       1.608   2.956  18.272  0.00  0.00    +0.000 C 
ATOM      5  C   UNL     1       3.035   2.860  17.724  0.00  0.00    +0.000 C 
ATOM      6  N   UNL     1       3.990   3.526  18.615  0.00  0.00    +0.000 N 
ATOM      7  C   UNL     1       3.982   3.052  20.034  0.00  0.00    +0.000 C 
ENDROOT
BRANCH   6   8
ATOM      8  C   UNL     1       4.764   4.633  18.265  0.00  0.00    +0.000 A 
ATOM      9  C   UNL     1       6.174   4.481  18.262  0.00  0.00    +0.000 A 
ATOM     10  C   UNL     1       7.068   5.523  17.996  0.00  0.00    +0.000 A 
ATOM     11  C   UNL     1       6.580   6.785  17.694  0.00  0.00    +0.000 A 
ATOM     12  C   UNL     1       5.205   6.981  17.637  0.00  0.00    +0.000 A 
ATOM     13  C   UNL     1       4.305   5.927  17.916  0.00  0.00    +0.000 A 
ATOM     14 BR   UNL     1       2.484   6.498  17.886  0.00  0.00    +0.000 Br
BRANCH  11  15
ATOM     15  C   UNL     1       7.479   7.874  17.469  0.00  0.00    +0.000 C 
ATOM     16  N   UNL     1       8.220   8.756  17.296  0.00  0.00    +0.000 NA
ENDBRANCH  11  15
ENDBRANCH   6   8
BRANCH   7  17
ATOM     17  C   UNL     1       4.488   1.578  20.159  0.00  0.00    +0.000 C 
BRANCH  17  18
ATOM     18  N   UNL     1       5.419   1.358  21.271  0.00  0.00    +0.000 NA
ATOM     19  H   UNL     1       4.932   0.798  21.975  0.00  0.00    +0.000 HD
ATOM     20  H   UNL     1       5.637   2.251  21.710  0.00  0.00    +0.000 HD
ENDBRANCH  17  18
ENDBRANCH   7  17
TORSDOF 4
ENDMDL
MODEL 2
REMARK VINA RESULT:      -6.5      2.373      2.571
REMARK  Name = 
REMARK  5 active torsions:
REMARK  status: ('A' for Active; 'I' for Inactive)
REMARK    1  A    between atoms: C_1  and  C_2
REMARK    2  A    between atoms: N_6  and  C_7
REMARK    3  A    between atoms: C_10  and  C_11
REMARK    4  A    between atoms: C_16  and  C_17
REMARK    5  A    between atoms: C_17  and  N_18
REMARK                            x       y       z     vdW  Elec       q    Type
REMARK                         _______ _______ _______ _____ _____    ______ ____
ROOT
ATOM      1  C   UNL     1       2.686   6.061  19.508  0.00  0.00    +0.000 C 
ATOM      2  C   UNL     1       2.650   4.619  20.036  0.00  0.00    +0.000 C 
ATOM      3  C   UNL     1       1.341   3.917  19.649  0.00  0.00    +0.000 C 
ATOM      4  C   UNL     1       1.290   3.573  18.161  0.00  0.00    +0.000 C 
ATOM      5  C   UNL     1       2.541   2.823  17.693  0.00  0.00    +0.000 C 
ATOM      6  N   UNL     1       3.762   3.528  18.095  0.00  0.00    +0.000 N 
ATOM      7  C   UNL     1       3.885   3.812  19.559  0.00  0.00    +0.000 C 
ENDROOT
BRANCH   6   8
ATOM      8  C   UNL     1       4.700   4.060  17.211  0.00  0.00    +0.000 A 
ATOM      9  C   UNL     1       4.521   3.811  15.827  0.00  0.00    +0.000 A 
ATOM     10  C   UNL     1       5.419   4.228  14.839  0.00  0.00    +0.000 A 
ATOM     11  C   UNL     1       6.550   4.945  15.197  0.00  0.00    +0.000 A 
ATOM     12  C   UNL     1       6.752   5.260  16.536  0.00  0.00    +0.000 A 
ATOM     13  C   UNL     1       5.847   4.829  17.532  0.00  0.00    +0.000 A 
ATOM     14 BR   UNL     1       6.427   5.289  19.292  0.00  0.00    +0.000 Br
BRANCH  11  15
ATOM     15  C   UNL     1       7.504   5.336  14.207  0.00  0.00    +0.000 C 
ATOM     16  N   UNL     1       8.272   5.652  13.391  0.00  0.00    +0.000 NA
ENDBRANCH  11  15
ENDBRANCH   6   8
BRANCH   7  17
ATOM     17  C   UNL     1       4.049   2.502  20.396  0.00  0.00    +0.000 C 
BRANCH  17  18
ATOM     18  N   UNL     1       5.205   1.686  20.007  0.00  0.00    +0.000 NA
ATOM     19  H   UNL     1       5.177   1.576  18.991  0.00  0.00    +0.000 HD
ATOM     20  H   UNL     1       5.109   0.753  20.404  0.00  0.00    +0.000 HD
ENDBRANCH  17  18
ENDBRANCH   7  17
TORSDOF 4
ENDMDL
MODEL 3
REMARK VINA RESULT:      -6.3      2.605      3.147
REMARK  Name = 
REMARK  5 active torsions:
REMARK  status: ('A' for Active; 'I' for Inactive)
REMARK    1  A    between atoms: C_1  and  C_2
REMARK    2  A    between atoms: N_6  and  C_7
REMARK    3  A    between atoms: C_10  and  C_11
REMARK    4  A    between atoms: C_16  and  C_17
REMARK    5  A    between atoms: C_17  and  N_18
REMARK                            x       y       z     vdW  Elec       q    Type
REMARK                         _______ _______ _______ _____ _____    ______ ____
ROOT
ATOM      1  C   UNL     1       1.257   4.456  17.219  0.00  0.00    +0.000 C 
ATOM      2  C   UNL     1       1.606   4.197  18.692  0.00  0.00    +0.000 C 
ATOM      3  C   UNL     1       1.377   2.726  19.067  0.00  0.00    +0.000 C 
ATOM      4  C   UNL     1       2.435   1.805  18.460  0.00  0.00    +0.000 C 
ATOM      5  C   UNL     1       3.861   2.289  18.743  0.00  0.00    +0.000 C 
ATOM      6  N   UNL     1       4.024   3.700  18.377  0.00  0.00    +0.000 N 
ATOM      7  C   UNL     1       3.055   4.644  19.016  0.00  0.00    +0.000 C 
ENDROOT
BRANCH   6   8
ATOM      8  C   UNL     1       4.894   4.170  17.394  0.00  0.00    +0.000 A 
ATOM      9  C   UNL     1       4.595   3.860  16.043  0.00  0.00    +0.000 A 
ATOM     10  C   UNL     1       5.414   4.211  14.965  0.00  0.00    +0.000 A 
ATOM     11  C   UNL     1       6.583   4.920  15.193  0.00  0.00    +0.000 A 
ATOM     12  C   UNL     1       6.902   5.292  16.494  0.00  0.00    +0.000 A 
ATOM     13  C   UNL     1       6.077   4.927  17.582  0.00  0.00    +0.000 A 
ATOM     14 BR   UNL     1       6.809   5.457  19.263  0.00  0.00    +0.000 Br
BRANCH  11  15
ATOM     15  C   UNL     1       7.458   5.244  14.110  0.00  0.00    +0.000 C 
ATOM     16  N   UNL     1       8.172   5.521  13.233  0.00  0.00    +0.000 NA
ENDBRANCH  11  15
ENDBRANCH   6   8
BRANCH   7  17
ATOM     17  C   UNL     1       3.272   4.745  20.561  0.00  0.00    +0.000 C 
BRANCH  17  18
ATOM     18  N   UNL     1       2.237   5.515  21.261  0.00  0.00    +0.000 NA
ATOM     19  H   UNL     1       2.313   5.299  22.257  0.00  0.00    +0.000 HD
ATOM     20  H   UNL     1       1.318   5.194  20.962  0.00  0.00    +0.000 HD
ENDBRANCH  17  18
ENDBRANCH   7  17
TORSDOF 4
ENDMDL
MODEL 4
REMARK VINA RESULT:      -6.2      2.215      2.990
REMARK  Name = 
REMARK  5 active torsions:
REMARK  status: ('A' for Active; 'I' for Inactive)
REMARK    1  A    between atoms: C_1  and  C_2
REMARK    2  A    between atoms: N_6  and  C_7
REMARK    3  A    between atoms: C_10  and  C_11
REMARK    4  A    between atoms: C_16  and  C_17
REMARK    5  A    between atoms: C_17  and  N_18
REMARK                            x       y       z     vdW  Elec       q    Type
REMARK                         _______ _______ _______ _____ _____    ______ ____
ROOT
ATOM      1  C   UNL     1       4.157   2.417  20.384  0.00  0.00    +0.000 C 
ATOM      2  C   UNL     1       2.641   2.612  20.236  0.00  0.00    +0.000 C 
ATOM      3  C   UNL     1       2.100   3.584  21.295  0.00  0.00    +0.000 C 
ATOM      4  C   UNL     1       2.504   5.030  21.010  0.00  0.00    +0.000 C 
ATOM      5  C   UNL     1       2.179   5.455  19.575  0.00  0.00    +0.000 C 
ATOM      6  N   UNL     1       2.707   4.490  18.604  0.00  0.00    +0.000 N 
ATOM      7  C   UNL     1       2.267   3.074  18.804  0.00  0.00    +0.000 C 
ENDROOT
BRANCH   6   8
ATOM      8  C   UNL     1       3.674   4.780  17.642  0.00  0.00    +0.000 A 
ATOM      9  C   UNL     1       4.385   3.695  17.071  0.00  0.00    +0.000 A 
ATOM     10  C   UNL     1       5.424   3.847  16.146  0.00  0.00    +0.000 A 
ATOM     11  C   UNL     1       5.791   5.117  15.728  0.00  0.00    +0.000 A 
ATOM     12  C   UNL     1       5.095   6.215  16.219  0.00  0.00    +0.000 A 
ATOM     13  C   UNL     1       4.053   6.058  17.161  0.00  0.00    +0.000 A 
ATOM     14 BR   UNL     1       3.355   7.731  17.760  0.00  0.00    +0.000 Br
BRANCH  11  15
ATOM     15  C   UNL     1       6.883   5.294  14.822  0.00  0.00    +0.000 C 
ATOM     16  N   UNL     1       7.775   5.452  14.091  0.00  0.00    +0.000 NA
ENDBRANCH  11  15
ENDBRANCH   6   8
BRANCH   7  17
ATOM     17  C   UNL     1       0.736   2.897  18.545  0.00  0.00    +0.000 C 
BRANCH  17  18
ATOM     18  N   UNL     1       0.312   1.499  18.405  0.00  0.00    +0.000 NA
ATOM     19  H   UNL     1      -0.690   1.501  18.199  0.00  0.00    +0.000 HD
ATOM     20  H   UNL     1       0.425   1.021  19.297  0.00  0.00    +0.000 HD
ENDBRANCH  17  18
ENDBRANCH   7  17
TORSDOF 4
ENDMDL
MODEL 5
REMARK VINA RESULT:      -6.1      2.459      3.560
REMARK  Name = 
REMARK  5 active torsions:
REMARK  status: ('A' for Active; 'I' for Inactive)
REMARK    1  A    between atoms: C_1  and  C_2
REMARK    2  A    between atoms: N_6  and  C_7
REMARK    3  A    between atoms: C_10  and  C_11
REMARK    4  A    between atoms: C_16  and  C_17
REMARK    5  A    between atoms: C_17  and  N_18
REMARK                            x       y       z     vdW  Elec       q    Type
REMARK                         _______ _______ _______ _____ _____    ______ ____
ROOT
ATOM      1  C   UNL     1       0.732   2.767  18.795  0.00  0.00    +0.000 C 
ATOM      2  C   UNL     1       0.782   3.730  19.989  0.00  0.00    +0.000 C 
ATOM      3  C   UNL     1       1.134   2.989  21.287  0.00  0.00    +0.000 C 
ATOM      4  C   UNL     1       2.601   2.563  21.328  0.00  0.00    +0.000 C 
ATOM      5  C   UNL     1       3.553   3.721  21.014  0.00  0.00    +0.000 C 
ATOM      6  N   UNL     1       3.169   4.402  19.772  0.00  0.00    +0.000 N 
ATOM      7  C   UNL     1       1.760   4.904  19.727  0.00  0.00    +0.000 C 
ENDROOT
BRANCH   6   8
ATOM      8  C   UNL     1       3.959   4.468  18.625  0.00  0.00    +0.000 A 
ATOM      9  C   UNL     1       4.450   5.738  18.232  0.00  0.00    +0.000 A 
ATOM     10  C   UNL     1       5.197   5.958  17.070  0.00  0.00    +0.000 A 
ATOM     11  C   UNL     1       5.509   4.890  16.243  0.00  0.00    +0.000 A 
ATOM     12  C   UNL     1       5.094   3.614  16.604  0.00  0.00    +0.000 A 
ATOM     13  C   UNL     1       4.332   3.397  17.774  0.00  0.00    +0.000 A 
ATOM     14 BR   UNL     1       3.792   1.577  17.966  0.00  0.00    +0.000 Br
BRANCH  11  15
ATOM     15  C   UNL     1       6.228   5.103  15.025  0.00  0.00    +0.000 C 
ATOM     16  N   UNL     1       6.824   5.282  14.042  0.00  0.00    +0.000 NA
ENDBRANCH  11  15
ENDBRANCH   6   8
BRANCH   7  17
ATOM     17  C   UNL     1       1.522   6.064  20.749  0.00  0.00    +0.000 C 
BRANCH  17  18
ATOM     18  N   UNL     1       2.139   7.337  20.361  0.00  0.00    +0.000 NA
ATOM     19  H   UNL     1       1.400   7.936  19.985  0.00  0.00    +0.000 HD
ATOM     20  H   UNL     1       2.798   7.175  19.601  0.00  0.00    +0.000 HD
ENDBRANCH  17  18
ENDBRANCH   7  17
TORSDOF 4
ENDMDL
MODEL 6
REMARK VINA RESULT:      -6.1      3.040      4.857
REMARK  Name = 
REMARK  5 active torsions:
REMARK  status: ('A' for Active; 'I' for Inactive)
REMARK    1  A    between atoms: C_1  and  C_2
REMARK    2  A    between atoms: N_6  and  C_7
REMARK    3  A    between atoms: C_10  and  C_11
REMARK    4  A    between atoms: C_16  and  C_17
REMARK    5  A    between atoms: C_17  and  N_18
REMARK                            x       y       z     vdW  Elec       q    Type
REMARK                         _______ _______ _______ _____ _____    ______ ____
ROOT
ATOM      1  C   UNL     1       5.298   5.768  15.297  0.00  0.00    +0.000 C 
ATOM      2  C   UNL     1       5.394   4.433  16.049  0.00  0.00    +0.000 C 
ATOM      3  C   UNL     1       6.764   4.271  16.723  0.00  0.00    +0.000 C 
ATOM      4  C   UNL     1       6.920   5.183  17.939  0.00  0.00    +0.000 C 
ATOM      5  C   UNL     1       5.746   5.058  18.915  0.00  0.00    +0.000 C 
ATOM      6  N   UNL     1       4.463   5.210  18.222  0.00  0.00    +0.000 N 
ATOM      7  C   UNL     1       4.240   4.277  17.073  0.00  0.00    +0.000 C 
ENDROOT
BRANCH   6   8
ATOM      8  C   UNL     1       3.544   6.231  18.466  0.00  0.00    +0.000 A 
ATOM      9  C   UNL     1       3.585   7.372  17.626  0.00  0.00    +0.000 A 
ATOM     10  C   UNL     1       2.767   8.495  17.799  0.00  0.00    +0.000 A 
ATOM     11  C   UNL     1       1.840   8.516  18.829  0.00  0.00    +0.000 A 
ATOM     12  C   UNL     1       1.724   7.404  19.655  0.00  0.00    +0.000 A 
ATOM     13  C   UNL     1       2.558   6.276  19.483  0.00  0.00    +0.000 A 
ATOM     14 BR   UNL     1       2.274   4.949  20.824  0.00  0.00    +0.000 Br
BRANCH  11  15
ATOM     15  C   UNL     1       1.032   9.675  19.052  0.00  0.00    +0.000 C 
ATOM     16  N   UNL     1       0.370  10.617  19.220  0.00  0.00    +0.000 NA
ENDBRANCH  11  15
ENDBRANCH   6   8
BRANCH   7  17
ATOM     17  C   UNL     1       4.112   2.792  17.544  0.00  0.00    +0.000 C 
BRANCH  17  18
ATOM     18  N   UNL     1       2.727   2.335  17.705  0.00  0.00    +0.000 NA
ATOM     19  H   UNL     1       2.231   2.543  16.836  0.00  0.00    +0.000 HD
ATOM     20  H   UNL     1       2.275   2.879  18.437  0.00  0.00    +0.000 HD
ENDBRANCH  17  18
ENDBRANCH   7  17
TORSDOF 4
ENDMDL
MODEL 7
REMARK VINA RESULT:      -6.0      2.081      5.486
REMARK  Name = 
REMARK  5 active torsions:
REMARK  status: ('A' for Active; 'I' for Inactive)
REMARK    1  A    between atoms: C_1  and  C_2
REMARK    2  A    between atoms: N_6  and  C_7
REMARK    3  A    between atoms: C_10  and  C_11
REMARK    4  A    between atoms: C_16  and  C_17
REMARK    5  A    between atoms: C_17  and  N_18
REMARK                            x       y       z     vdW  Elec       q    Type
REMARK                         _______ _______ _______ _____ _____    ______ ____
ROOT
ATOM      1  C   UNL     1       5.344   3.431  15.961  0.00  0.00    +0.000 C 
ATOM      2  C   UNL     1       6.396   4.503  16.283  0.00  0.00    +0.000 C 
ATOM      3  C   UNL     1       6.156   5.780  15.466  0.00  0.00    +0.000 C 
ATOM      4  C   UNL     1       4.937   6.560  15.959  0.00  0.00    +0.000 C 
ATOM      5  C   UNL     1       4.975   6.805  17.470  0.00  0.00    +0.000 C 
ATOM      6  N   UNL     1       5.215   5.558  18.204  0.00  0.00    +0.000 N 
ATOM      7  C   UNL     1       6.446   4.807  17.803  0.00  0.00    +0.000 C 
ENDROOT
BRANCH   6   8
ATOM      8  C   UNL     1       4.322   4.982  19.106  0.00  0.00    +0.000 A 
ATOM      9  C   UNL     1       4.593   3.665  19.556  0.00  0.00    +0.000 A 
ATOM     10  C   UNL     1       3.748   2.945  20.408  0.00  0.00    +0.000 A 
ATOM     11  C   UNL     1       2.581   3.530  20.872  0.00  0.00    +0.000 A 
ATOM     12  C   UNL     1       2.288   4.838  20.501  0.00  0.00    +0.000 A 
ATOM     13  C   UNL     1       3.139   5.558  19.632  0.00  0.00    +0.000 A 
ATOM     14 BR   UNL     1       2.440   7.278  19.189  0.00  0.00    +0.000 Br
BRANCH  11  15
ATOM     15  C   UNL     1       1.681   2.792  21.702  0.00  0.00    +0.000 C 
ATOM     16  N   UNL     1       0.959   2.184  22.383  0.00  0.00    +0.000 NA
ENDBRANCH  11  15
ENDBRANCH   6   8
BRANCH   7  17
ATOM     17  C   UNL     1       7.751   5.586  18.171  0.00  0.00    +0.000 C 
BRANCH  17  18
ATOM     18  N   UNL     1       8.037   5.626  19.609  0.00  0.00    +0.000 NA
ATOM     19  H   UNL     1       9.038   5.454  19.729  0.00  0.00    +0.000 HD
ATOM     20  H   UNL     1       7.551   4.859  20.071  0.00  0.00    +0.000 HD
ENDBRANCH  17  18
ENDBRANCH   7  17
TORSDOF 4
ENDMDL
MODEL 8
REMARK VINA RESULT:      -5.9      3.027      4.258
REMARK  Name = 
REMARK  5 active torsions:
REMARK  status: ('A' for Active; 'I' for Inactive)
REMARK    1  A    between atoms: C_1  and  C_2
REMARK    2  A    between atoms: N_6  and  C_7
REMARK    3  A    between atoms: C_10  and  C_11
REMARK    4  A    between atoms: C_16  and  C_17
REMARK    5  A    between atoms: C_17  and  N_18
REMARK                            x       y       z     vdW  Elec       q    Type
REMARK                         _______ _______ _______ _____ _____    ______ ____
ROOT
ATOM      1  C   UNL     1       1.929   2.898  21.579  0.00  0.00    +0.000 C 
ATOM      2  C   UNL     1       2.787   2.541  20.356  0.00  0.00    +0.000 C 
ATOM      3  C   UNL     1       1.966   1.783  19.303  0.00  0.00    +0.000 C 
ATOM      4  C   UNL     1       0.975   2.694  18.579  0.00  0.00    +0.000 C 
ATOM      5  C   UNL     1       1.640   3.960  18.031  0.00  0.00    +0.000 C 
ATOM      6  N   UNL     1       2.419   4.641  19.071  0.00  0.00    +0.000 N 
ATOM      7  C   UNL     1       3.456   3.801  19.748  0.00  0.00    +0.000 C 
ENDROOT
BRANCH   6   8
ATOM      8  C   UNL     1       2.156   5.925  19.548  0.00  0.00    +0.000 A 
ATOM      9  C   UNL     1       1.410   6.045  20.747  0.00  0.00    +0.000 A 
ATOM     10  C   UNL     1       1.019   7.269  21.301  0.00  0.00    +0.000 A 
ATOM     11  C   UNL     1       1.384   8.452  20.677  0.00  0.00    +0.000 A 
ATOM     12  C   UNL     1       2.157   8.395  19.523  0.00  0.00    +0.000 A 
ATOM     13  C   UNL     1       2.541   7.156  18.962  0.00  0.00    +0.000 A 
ATOM     14 BR   UNL     1       3.489   7.364  17.318  0.00  0.00    +0.000 Br
BRANCH  11  15
ATOM     15  C   UNL     1       0.951   9.710  21.200  0.00  0.00    +0.000 C 
ATOM     16  N   UNL     1       0.604  10.731  21.639  0.00  0.00    +0.000 NA
ENDBRANCH  11  15
ENDBRANCH   6   8
BRANCH   7  17
ATOM     17  C   UNL     1       4.611   3.401  18.773  0.00  0.00    +0.000 C 
BRANCH  17  18
ATOM     18  N   UNL     1       5.851   4.158  18.973  0.00  0.00    +0.000 NA
ATOM     19  H   UNL     1       6.615   3.483  19.052  0.00  0.00    +0.000 HD
ATOM     20  H   UNL     1       5.805   4.652  19.863  0.00  0.00    +0.000 HD
ENDBRANCH  17  18
ENDBRANCH   7  17
TORSDOF 4
ENDMDL
MODEL 9
REMARK VINA RESULT:      -5.9      2.919      4.506
REMARK  Name = 
REMARK  5 active torsions:
REMARK  status: ('A' for Active; 'I' for Inactive)
REMARK    1  A    between atoms: C_1  and  C_2
REMARK    2  A    between atoms: N_6  and  C_7
REMARK    3  A    between atoms: C_10  and  C_11
REMARK    4  A    between atoms: C_16  and  C_17
REMARK    5  A    between atoms: C_17  and  N_18
REMARK                            x       y       z     vdW  Elec       q    Type
REMARK                         _______ _______ _______ _____ _____    ______ ____
ROOT
ATOM      1  C   UNL     1       4.291   2.563  20.184  0.00  0.00    +0.000 C 
ATOM      2  C   UNL     1       4.553   2.681  18.676  0.00  0.00    +0.000 C 
ATOM      3  C   UNL     1       3.696   1.685  17.883  0.00  0.00    +0.000 C 
ATOM      4  C   UNL     1       2.223   2.090  17.850  0.00  0.00    +0.000 C 
ATOM      5  C   UNL     1       2.028   3.544  17.407  0.00  0.00    +0.000 C 
ATOM      6  N   UNL     1       2.875   4.453  18.187  0.00  0.00    +0.000 N 
ATOM      7  C   UNL     1       4.337   4.133  18.177  0.00  0.00    +0.000 C 
ENDROOT
BRANCH   6   8
ATOM      8  C   UNL     1       2.398   5.462  19.023  0.00  0.00    +0.000 A 
ATOM      9  C   UNL     1       2.591   6.806  18.615  0.00  0.00    +0.000 A 
ATOM     10  C   UNL     1       2.222   7.913  19.386  0.00  0.00    +0.000 A 
ATOM     11  C   UNL     1       1.613   7.721  20.616  0.00  0.00    +0.000 A 
ATOM     12  C   UNL     1       1.356   6.424  21.045  0.00  0.00    +0.000 A 
ATOM     13  C   UNL     1       1.739   5.308  20.268  0.00  0.00    +0.000 A 
ATOM     14 BR   UNL     1       1.381   3.651  21.145  0.00  0.00    +0.000 Br
BRANCH  11  15
ATOM     15  C   UNL     1       1.275   8.839  21.440  0.00  0.00    +0.000 C 
ATOM     16  N   UNL     1       1.008   9.744  22.122  0.00  0.00    +0.000 NA
ENDBRANCH  11  15
ENDBRANCH   6   8
BRANCH   7  17
ATOM     17  C   UNL     1       4.969   4.333  16.761  0.00  0.00    +0.000 C 
BRANCH  17  18
ATOM     18  N   UNL     1       6.392   3.985  16.687  0.00  0.00    +0.000 NA
ATOM     19  H   UNL     1       6.646   3.936  15.697  0.00  0.00    +0.000 HD
ATOM     20  H   UNL     1       6.532   3.053  17.071  0.00  0.00    +0.000 HD
ENDBRANCH  17  18
ENDBRANCH   7  17
TORSDOF 4
ENDMDL
