MODEL 1
REMARK VINA RESULT:      -6.3      0.000      0.000
REMARK  Name = 
REMARK  7 active torsions:
REMARK  status: ('A' for Active; 'I' for Inactive)
REMARK    1  A    between atoms: C_1  and  C_2
REMARK    2  A    between atoms: C_5  and  C_6
REMARK    3  A    between atoms: C_9  and  C_10
REMARK    4  A    between atoms: C_10  and  O_12
REMARK    5  A    between atoms: C_13  and  C_14
REMARK    6  A    between atoms: N_21  and  S_22
REMARK    7  A    between atoms: S_22  and  C_23
REMARK                            x       y       z     vdW  Elec       q    Type
REMARK                         _______ _______ _______ _____ _____    ______ ____
ROOT
ATOM      1  C   UNL     1       7.262  14.488  20.119  0.00  0.00    +0.000 C 
ATOM      2  C   UNL     1       7.107  14.597  18.275  0.00  0.00    +0.000 C 
ATOM      3  C   UNL     1       8.126  15.342  17.331  0.00  0.00    +0.000 C 
ATOM      4  C   UNL     1       9.214  15.890  17.880  0.00  0.00    +0.000 C 
ATOM      5  C   UNL     1       9.193  15.596  19.333  0.00  0.00    +0.000 C 
ATOM      6  N   UNL     1       7.604  15.878  20.109  0.00  0.00    +0.000 NA
ENDROOT
BRANCH   1  11
ATOM      7  C   UNL     1       8.809  13.959  25.905  0.00  0.00    +0.000 C 
ATOM      8  C   UNL     1       8.652  14.060  24.419  0.00  0.00    +0.000 A 
ATOM      9  C   UNL     1       8.796  15.275  23.799  0.00  0.00    +0.000 A 
ATOM     10  C   UNL     1       8.458  15.387  22.452  0.00  0.00    +0.000 A 
ATOM     11  C   UNL     1       8.033  14.298  21.561  0.00  0.00    +0.000 A 
ATOM     12  C   UNL     1       7.966  13.081  22.227  0.00  0.00    +0.000 A 
ATOM     13  C   UNL     1       8.250  12.962  23.626  0.00  0.00    +0.000 A 
ENDBRANCH   1  11
BRANCH   5  14
ATOM     14  C   UNL     1       9.807  13.947  19.388  0.00  0.00    +0.000 A 
ATOM     15  C   UNL     1      10.848  13.576  20.246  0.00  0.00    +0.000 A 
ATOM     16  C   UNL     1      11.177  12.207  20.454  0.00  0.00    +0.000 A 
ATOM     17  C   UNL     1      10.478  11.167  19.832  0.00  0.00    +0.000 A 
ATOM     18  C   UNL     1       9.503  11.498  18.927  0.00  0.00    +0.000 A 
ATOM     19 CL   UNL     1       8.561  10.271  18.156  0.00  0.00    +0.000 Cl
ATOM     20  C   UNL     1       9.231  12.849  18.667  0.00  0.00    +0.000 A 
ENDBRANCH   5  14
BRANCH   6  21
ATOM     21  S   UNL     1       6.047  16.669  19.885  0.00  0.00    +0.000 S 
ATOM     22  C   UNL     1       5.642  17.454  21.438  0.00  0.00    +0.000 C 
ATOM     23  O   UNL     1       6.204  17.695  18.870  0.00  0.00    +0.000 OA
ATOM     24  O   UNL     1       4.961  15.673  19.794  0.00  0.00    +0.000 OA
ENDBRANCH   6  21
BRANCH   4  25
ATOM     25  C   UNL     1      10.453  16.441  17.379  0.00  0.00    +0.000 C 
ATOM     26  O   UNL     1      11.322  17.007  18.047  0.00  0.00    +0.000 OA
BRANCH  25  27
ATOM     27  O   UNL     1      10.730  16.087  16.076  0.00  0.00    +0.000 OA
ATOM     28  H   UNL     1      10.058  15.535  15.640  0.00  0.00    +0.000 HD
ENDBRANCH  25  27
ENDBRANCH   4  25
TORSDOF 5
ENDMDL
MODEL 2
REMARK VINA RESULT:      -6.2      8.056     10.624
REMARK  Name = 
REMARK  7 active torsions:
REMARK  status: ('A' for Active; 'I' for Inactive)
REMARK    1  A    between atoms: C_1  and  C_2
REMARK    2  A    between atoms: C_5  and  C_6
REMARK    3  A    between atoms: C_9  and  C_10
REMARK    4  A    between atoms: C_10  and  O_12
REMARK    5  A    between atoms: C_13  and  C_14
REMARK    6  A    between atoms: N_21  and  S_22
REMARK    7  A    between atoms: S_22  and  C_23
REMARK                            x       y       z     vdW  Elec       q    Type
REMARK                         _______ _______ _______ _____ _____    ______ ____
ROOT
ATOM      1  C   UNL     1      -0.136  13.725  22.081  0.00  0.00    +0.000 C 
ATOM      2  C   UNL     1      -1.378  12.981  23.239  0.00  0.00    +0.000 C 
ATOM      3  C   UNL     1      -2.885  12.695  22.877  0.00  0.00    +0.000 C 
ATOM      4  C   UNL     1      -3.296  12.949  21.631  0.00  0.00    +0.000 C 
ATOM      5  C   UNL     1      -2.130  13.431  20.852  0.00  0.00    +0.000 C 
ATOM      6  N   UNL     1      -1.148  14.664  21.701  0.00  0.00    +0.000 NA
ENDROOT
BRANCH   1  11
ATOM      7  C   UNL     1       3.461  15.475  17.593  0.00  0.00    +0.000 C 
ATOM      8  C   UNL     1       2.461  14.904  18.550  0.00  0.00    +0.000 A 
ATOM      9  C   UNL     1       1.236  15.504  18.695  0.00  0.00    +0.000 A 
ATOM     10  C   UNL     1       0.396  15.079  19.722  0.00  0.00    +0.000 A 
ATOM     11  C   UNL     1       0.639  13.964  20.649  0.00  0.00    +0.000 A 
ATOM     12  C   UNL     1       1.864  13.354  20.414  0.00  0.00    +0.000 A 
ATOM     13  C   UNL     1       2.765  13.820  19.403  0.00  0.00    +0.000 A 
ENDBRANCH   1  11
BRANCH   5  14
ATOM     14  C   UNL     1      -1.311  11.928  20.440  0.00  0.00    +0.000 A 
ATOM     15  C   UNL     1      -1.031  11.581  19.113  0.00  0.00    +0.000 A 
ATOM     16  C   UNL     1      -0.169  10.491  18.806  0.00  0.00    +0.000 A 
ATOM     17  C   UNL     1       0.451   9.724  19.798  0.00  0.00    +0.000 A 
ATOM     18  C   UNL     1       0.137   9.988  21.105  0.00  0.00    +0.000 A 
ATOM     19 CL   UNL     1       0.899   9.118  22.390  0.00  0.00    +0.000 Cl
ATOM     20  C   UNL     1      -0.771  11.015  21.405  0.00  0.00    +0.000 A 
ENDBRANCH   5  14
BRANCH   6  21
ATOM     21  S   UNL     1      -1.166  15.796  23.049  0.00  0.00    +0.000 S 
ATOM     22  C   UNL     1      -0.559  17.353  22.419  0.00  0.00    +0.000 C 
ATOM     23  O   UNL     1      -2.544  15.970  23.474  0.00  0.00    +0.000 OA
ATOM     24  O   UNL     1      -0.108  15.467  24.024  0.00  0.00    +0.000 OA
ENDBRANCH   6  21
BRANCH   4  25
ATOM     25  C   UNL     1      -4.474  12.638  20.853  0.00  0.00    +0.000 C 
ATOM     26  O   UNL     1      -5.501  12.099  21.270  0.00  0.00    +0.000 OA
BRANCH  25  27
ATOM     27  O   UNL     1      -4.475  13.207  19.597  0.00  0.00    +0.000 OA
ATOM     28  H   UNL     1      -4.531  12.583  18.854  0.00  0.00    +0.000 HD
ENDBRANCH  25  27
ENDBRANCH   4  25
TORSDOF 5
ENDMDL
MODEL 3
REMARK VINA RESULT:      -6.1      9.349     11.728
REMARK  Name = 
REMARK  7 active torsions:
REMARK  status: ('A' for Active; 'I' for Inactive)
REMARK    1  A    between atoms: C_1  and  C_2
REMARK    2  A    between atoms: C_5  and  C_6
REMARK    3  A    between atoms: C_9  and  C_10
REMARK    4  A    between atoms: C_10  and  O_12
REMARK    5  A    between atoms: C_13  and  C_14
REMARK    6  A    between atoms: N_21  and  S_22
REMARK    7  A    between atoms: S_22  and  C_23
REMARK                            x       y       z     vdW  Elec       q    Type
REMARK                         _______ _______ _______ _____ _____    ______ ____
ROOT
ATOM      1  C   UNL     1      -1.897  12.598  19.868  0.00  0.00    +0.000 C 
ATOM      2  C   UNL     1      -1.098  13.169  21.441  0.00  0.00    +0.000 C 
ATOM      3  C   UNL     1      -0.618  12.217  22.601  0.00  0.00    +0.000 C 
ATOM      4  C   UNL     1      -0.737  10.896  22.427  0.00  0.00    +0.000 C 
ATOM      5  C   UNL     1      -1.293  10.660  21.073  0.00  0.00    +0.000 C 
ATOM      6  N   UNL     1      -2.686  11.709  20.666  0.00  0.00    +0.000 NA
ENDROOT
BRANCH   1  11
ATOM      7  C   UNL     1      -3.747   9.964  14.790  0.00  0.00    +0.000 C 
ATOM      8  C   UNL     1      -3.127  10.449  16.064  0.00  0.00    +0.000 A 
ATOM      9  C   UNL     1      -3.570   9.962  17.267  0.00  0.00    +0.000 A 
ATOM     10  C   UNL     1      -3.120  10.561  18.442  0.00  0.00    +0.000 A 
ATOM     11  C   UNL     1      -2.123  11.634  18.553  0.00  0.00    +0.000 A 
ATOM     12  C   UNL     1      -1.663  12.044  17.307  0.00  0.00    +0.000 A 
ATOM     13  C   UNL     1      -2.163  11.481  16.089  0.00  0.00    +0.000 A 
ENDBRANCH   1  11
BRANCH   5  14
ATOM     14  C   UNL     1       0.132  10.822  20.052  0.00  0.00    +0.000 A 
ATOM     15  C   UNL     1       0.525   9.810  19.169  0.00  0.00    +0.000 A 
ATOM     16  C   UNL     1       1.528  10.040  18.187  0.00  0.00    +0.000 A 
ATOM     17  C   UNL     1       2.161  11.279  18.041  0.00  0.00    +0.000 A 
ATOM     18  C   UNL     1       1.855  12.268  18.939  0.00  0.00    +0.000 A 
ATOM     19 CL   UNL     1       2.557  13.841  18.793  0.00  0.00    +0.000 Cl
ATOM     20  C   UNL     1       0.919  12.016  19.953  0.00  0.00    +0.000 A 
ENDBRANCH   5  14
BRANCH   6  21
ATOM     21  S   UNL     1      -3.900  12.775  21.367  0.00  0.00    +0.000 S 
ATOM     22  C   UNL     1      -5.428  12.449  20.502  0.00  0.00    +0.000 C 
ATOM     23  O   UNL     1      -4.066  12.413  22.763  0.00  0.00    +0.000 OA
ATOM     24  O   UNL     1      -3.658  14.176  20.971  0.00  0.00    +0.000 OA
ENDBRANCH   6  21
BRANCH   4  25
ATOM     25  C   UNL     1      -0.240   9.721  23.106  0.00  0.00    +0.000 C 
ATOM     26  O   UNL     1       0.570   9.704  24.035  0.00  0.00    +0.000 OA
BRANCH  25  27
ATOM     27  O   UNL     1      -0.926   8.567  22.789  0.00  0.00    +0.000 OA
ATOM     28  H   UNL     1      -0.582   7.752  23.193  0.00  0.00    +0.000 HD
ENDBRANCH  25  27
ENDBRANCH   4  25
TORSDOF 5
ENDMDL
MODEL 4
REMARK VINA RESULT:      -5.9      9.274     11.018
REMARK  Name = 
REMARK  7 active torsions:
REMARK  status: ('A' for Active; 'I' for Inactive)
REMARK    1  A    between atoms: C_1  and  C_2
REMARK    2  A    between atoms: C_5  and  C_6
REMARK    3  A    between atoms: C_9  and  C_10
REMARK    4  A    between atoms: C_10  and  O_12
REMARK    5  A    between atoms: C_13  and  C_14
REMARK    6  A    between atoms: N_21  and  S_22
REMARK    7  A    between atoms: S_22  and  C_23
REMARK                            x       y       z     vdW  Elec       q    Type
REMARK                         _______ _______ _______ _____ _____    ______ ____
ROOT
ATOM      1  C   UNL     1       3.674   4.692  18.810  0.00  0.00    +0.000 C 
ATOM      2  C   UNL     1       4.685   3.221  18.309  0.00  0.00    +0.000 C 
ATOM      3  C   UNL     1       5.372   3.041  16.902  0.00  0.00    +0.000 C 
ATOM      4  C   UNL     1       5.275   4.039  16.018  0.00  0.00    +0.000 C 
ATOM      5  C   UNL     1       4.526   5.147  16.656  0.00  0.00    +0.000 C 
ATOM      6  N   UNL     1       3.050   4.622  17.525  0.00  0.00    +0.000 NA
ENDROOT
BRANCH   1  11
ATOM      7  C   UNL     1       0.968  10.058  18.974  0.00  0.00    +0.000 C 
ATOM      8  C   UNL     1       1.840   8.841  18.977  0.00  0.00    +0.000 A 
ATOM      9  C   UNL     1       2.456   8.440  17.818  0.00  0.00    +0.000 A 
ATOM     10  C   UNL     1       3.101   7.205  17.793  0.00  0.00    +0.000 A 
ATOM     11  C   UNL     1       3.283   6.287  18.925  0.00  0.00    +0.000 A 
ATOM     12  C   UNL     1       2.695   6.774  20.086  0.00  0.00    +0.000 A 
ATOM     13  C   UNL     1       1.974   8.011  20.112  0.00  0.00    +0.000 A 
ENDBRANCH   1  11
BRANCH   5  14
ATOM     14  C   UNL     1       5.770   5.925  17.629  0.00  0.00    +0.000 A 
ATOM     15  C   UNL     1       6.431   5.247  18.660  0.00  0.00    +0.000 A 
ATOM     16  C   UNL     1       7.586   5.799  19.279  0.00  0.00    +0.000 A 
ATOM     17  C   UNL     1       8.129   7.028  18.889  0.00  0.00    +0.000 A 
ATOM     18  C   UNL     1       7.462   7.753  17.937  0.00  0.00    +0.000 A 
ATOM     19 CL   UNL     1       8.097   9.256  17.366  0.00  0.00    +0.000 Cl
ATOM     20  C   UNL     1       6.281   7.241  17.379  0.00  0.00    +0.000 A 
ENDBRANCH   5  14
BRANCH   6  21
ATOM     21  S   UNL     1       1.921   3.283  17.703  0.00  0.00    +0.000 S 
ATOM     22  C   UNL     1       2.081   2.698  19.383  0.00  0.00    +0.000 C 
ATOM     23  O   UNL     1       0.577   3.797  17.513  0.00  0.00    +0.000 OA
ATOM     24  O   UNL     1       2.391   2.099  16.958  0.00  0.00    +0.000 OA
ENDBRANCH   6  21
BRANCH   4  25
ATOM     25  C   UNL     1       5.911   4.365  14.762  0.00  0.00    +0.000 C 
ATOM     26  O   UNL     1       6.315   5.478  14.417  0.00  0.00    +0.000 OA
BRANCH  25  27
ATOM     27  O   UNL     1       6.264   3.260  14.015  0.00  0.00    +0.000 OA
ATOM     28  H   UNL     1       5.718   3.095  13.228  0.00  0.00    +0.000 HD
ENDBRANCH  25  27
ENDBRANCH   4  25
TORSDOF 5
ENDMDL
MODEL 5
REMARK VINA RESULT:      -5.7      8.816     11.489
REMARK  Name = 
REMARK  7 active torsions:
REMARK  status: ('A' for Active; 'I' for Inactive)
REMARK    1  A    between atoms: C_1  and  C_2
REMARK    2  A    between atoms: C_5  and  C_6
REMARK    3  A    between atoms: C_9  and  C_10
REMARK    4  A    between atoms: C_10  and  O_12
REMARK    5  A    between atoms: C_13  and  C_14
REMARK    6  A    between atoms: N_21  and  S_22
REMARK    7  A    between atoms: S_22  and  C_23
REMARK                            x       y       z     vdW  Elec       q    Type
REMARK                         _______ _______ _______ _____ _____    ______ ____
ROOT
ATOM      1  C   UNL     1      -0.972  14.224  21.379  0.00  0.00    +0.000 C 
ATOM      2  C   UNL     1      -0.752  12.818  20.190  0.00  0.00    +0.000 C 
ATOM      3  C   UNL     1      -0.479  11.324  20.608  0.00  0.00    +0.000 C 
ATOM      4  C   UNL     1      -0.459  11.024  21.910  0.00  0.00    +0.000 C 
ATOM      5  C   UNL     1      -0.762  12.260  22.671  0.00  0.00    +0.000 C 
ATOM      6  N   UNL     1       0.142  13.699  22.107  0.00  0.00    +0.000 NA
ENDROOT
BRANCH   1  11
ATOM      7  C   UNL     1      -2.275  18.081  25.803  0.00  0.00    +0.000 C 
ATOM      8  C   UNL     1      -2.075  16.965  24.825  0.00  0.00    +0.000 A 
ATOM      9  C   UNL     1      -1.022  16.099  24.983  0.00  0.00    +0.000 A 
ATOM     10  C   UNL     1      -0.739  15.192  23.965  0.00  0.00    +0.000 A 
ATOM     11  C   UNL     1      -1.515  14.984  22.734  0.00  0.00    +0.000 A 
ATOM     12  C   UNL     1      -2.604  15.843  22.658  0.00  0.00    +0.000 A 
ATOM     13  C   UNL     1      -2.872  16.823  23.667  0.00  0.00    +0.000 A 
ENDBRANCH   1  11
BRANCH   5  14
ATOM     14  C   UNL     1      -2.516  12.346  22.559  0.00  0.00    +0.000 A 
ATOM     15  C   UNL     1      -3.322  12.473  23.696  0.00  0.00    +0.000 A 
ATOM     16  C   UNL     1      -4.707  12.776  23.585  0.00  0.00    +0.000 A 
ATOM     17  C   UNL     1      -5.332  12.976  22.349  0.00  0.00    +0.000 A 
ATOM     18  C   UNL     1      -4.590  12.784  21.214  0.00  0.00    +0.000 A 
ATOM     19 CL   UNL     1      -5.276  13.061  19.652  0.00  0.00    +0.000 Cl
ATOM     20  C   UNL     1      -3.241  12.412  21.324  0.00  0.00    +0.000 A 
ENDBRANCH   5  14
BRANCH   6  21
ATOM     21  S   UNL     1       1.524  14.207  21.141  0.00  0.00    +0.000 S 
ATOM     22  C   UNL     1       2.401  15.430  22.103  0.00  0.00    +0.000 C 
ATOM     23  O   UNL     1       2.388  13.055  20.949  0.00  0.00    +0.000 OA
ATOM     24  O   UNL     1       1.088  15.026  19.993  0.00  0.00    +0.000 OA
ENDBRANCH   6  21
BRANCH   4  25
ATOM     25  C   UNL     1      -0.468   9.803  22.685  0.00  0.00    +0.000 C 
ATOM     26  O   UNL     1      -0.808   8.688  22.284  0.00  0.00    +0.000 OA
BRANCH  25  27
ATOM     27  O   UNL     1       0.171   9.914  23.902  0.00  0.00    +0.000 OA
ATOM     28  H   UNL     1      -0.298  10.438  24.574  0.00  0.00    +0.000 HD
ENDBRANCH  25  27
ENDBRANCH   4  25
TORSDOF 5
ENDMDL
MODEL 6
REMARK VINA RESULT:      -5.7     11.610     14.680
REMARK  Name = 
REMARK  7 active torsions:
REMARK  status: ('A' for Active; 'I' for Inactive)
REMARK    1  A    between atoms: C_1  and  C_2
REMARK    2  A    between atoms: C_5  and  C_6
REMARK    3  A    between atoms: C_9  and  C_10
REMARK    4  A    between atoms: C_10  and  O_12
REMARK    5  A    between atoms: C_13  and  C_14
REMARK    6  A    between atoms: N_21  and  S_22
REMARK    7  A    between atoms: S_22  and  C_23
REMARK                            x       y       z     vdW  Elec       q    Type
REMARK                         _______ _______ _______ _____ _____    ______ ____
ROOT
ATOM      1  C   UNL     1      -5.117  14.318  20.371  0.00  0.00    +0.000 C 
ATOM      2  C   UNL     1      -6.907  14.698  20.672  0.00  0.00    +0.000 C 
ATOM      3  C   UNL     1      -7.801  14.002  21.767  0.00  0.00    +0.000 C 
ATOM      4  C   UNL     1      -7.226  13.113  22.582  0.00  0.00    +0.000 C 
ATOM      5  C   UNL     1      -5.785  13.041  22.241  0.00  0.00    +0.000 C 
ATOM      6  N   UNL     1      -5.458  12.933  20.484  0.00  0.00    +0.000 NA
ENDROOT
BRANCH   1  11
ATOM      7  C   UNL     1       0.771  13.107  20.472  0.00  0.00    +0.000 C 
ATOM      8  C   UNL     1      -0.684  13.393  20.680  0.00  0.00    +0.000 A 
ATOM      9  C   UNL     1      -1.579  12.356  20.755  0.00  0.00    +0.000 A 
ATOM     10  C   UNL     1      -2.943  12.643  20.754  0.00  0.00    +0.000 A 
ATOM     11  C   UNL     1      -3.558  13.978  20.773  0.00  0.00    +0.000 A 
ATOM     12  C   UNL     1      -2.603  14.987  20.761  0.00  0.00    +0.000 A 
ATOM     13  C   UNL     1      -1.200  14.708  20.698  0.00  0.00    +0.000 A 
ENDBRANCH   1  11
BRANCH   5  14
ATOM     14  C   UNL     1      -5.136  14.452  23.070  0.00  0.00    +0.000 A 
ATOM     15  C   UNL     1      -5.817  15.675  23.088  0.00  0.00    +0.000 A 
ATOM     16  C   UNL     1      -5.407  16.732  23.948  0.00  0.00    +0.000 A 
ATOM     17  C   UNL     1      -4.323  16.606  24.824  0.00  0.00    +0.000 A 
ATOM     18  C   UNL     1      -3.588  15.450  24.776  0.00  0.00    +0.000 A 
ATOM     19 CL   UNL     1      -2.266  15.199  25.862  0.00  0.00    +0.000 Cl
ATOM     20  C   UNL     1      -3.949  14.438  23.875  0.00  0.00    +0.000 A 
ENDBRANCH   5  14
BRANCH   6  21
ATOM     21  S   UNL     1      -6.208  12.580  18.930  0.00  0.00    +0.000 S 
ATOM     22  C   UNL     1      -5.089  11.498  18.055  0.00  0.00    +0.000 C 
ATOM     23  O   UNL     1      -7.448  11.866  19.179  0.00  0.00    +0.000 OA
ATOM     24  O   UNL     1      -6.180  13.767  18.053  0.00  0.00    +0.000 OA
ENDBRANCH   6  21
BRANCH   4  25
ATOM     25  C   UNL     1      -7.606  12.443  23.806  0.00  0.00    +0.000 C 
ATOM     26  O   UNL     1      -7.542  11.231  24.023  0.00  0.00    +0.000 OA
BRANCH  25  27
ATOM     27  O   UNL     1      -7.849  13.304  24.856  0.00  0.00    +0.000 OA
ATOM     28  H   UNL     1      -7.059  13.653  25.303  0.00  0.00    +0.000 HD
ENDBRANCH  25  27
ENDBRANCH   4  25
TORSDOF 5
ENDMDL
MODEL 7
REMARK VINA RESULT:      -5.6      8.682     10.345
REMARK  Name = 
REMARK  7 active torsions:
REMARK  status: ('A' for Active; 'I' for Inactive)
REMARK    1  A    between atoms: C_1  and  C_2
REMARK    2  A    between atoms: C_5  and  C_6
REMARK    3  A    between atoms: C_9  and  C_10
REMARK    4  A    between atoms: C_10  and  O_12
REMARK    5  A    between atoms: C_13  and  C_14
REMARK    6  A    between atoms: N_21  and  S_22
REMARK    7  A    between atoms: S_22  and  C_23
REMARK                            x       y       z     vdW  Elec       q    Type
REMARK                         _______ _______ _______ _____ _____    ______ ____
ROOT
ATOM      1  C   UNL     1       0.600  12.240  21.158  0.00  0.00    +0.000 C 
ATOM      2  C   UNL     1       1.113  11.304  19.641  0.00  0.00    +0.000 C 
ATOM      3  C   UNL     1       0.143  10.895  18.468  0.00  0.00    +0.000 C 
ATOM      4  C   UNL     1      -1.131  11.295  18.531  0.00  0.00    +0.000 C 
ATOM      5  C   UNL     1      -1.296  12.110  19.758  0.00  0.00    +0.000 C 
ATOM      6  N   UNL     1      -0.549  11.389  21.217  0.00  0.00    +0.000 NA
ENDROOT
BRANCH   1  11
ATOM      7  C   UNL     1      -1.510  15.988  25.358  0.00  0.00    +0.000 C 
ATOM      8  C   UNL     1      -1.136  15.160  24.168  0.00  0.00    +0.000 A 
ATOM      9  C   UNL     1      -1.829  14.009  23.892  0.00  0.00    +0.000 A 
ATOM     10  C   UNL     1      -1.349  13.155  22.902  0.00  0.00    +0.000 A 
ATOM     11  C   UNL     1      -0.194  13.392  22.024  0.00  0.00    +0.000 A 
ATOM     12  C   UNL     1       0.430  14.601  22.305  0.00  0.00    +0.000 A 
ATOM     13  C   UNL     1      -0.015  15.459  23.362  0.00  0.00    +0.000 A 
ENDBRANCH   1  11
BRANCH   5  14
ATOM     14  C   UNL     1      -0.670  13.675  19.252  0.00  0.00    +0.000 A 
ATOM     15  C   UNL     1      -1.365  14.864  19.501  0.00  0.00    +0.000 A 
ATOM     16  C   UNL     1      -0.750  16.131  19.302  0.00  0.00    +0.000 A 
ATOM     17  C   UNL     1       0.574  16.260  18.866  0.00  0.00    +0.000 A 
ATOM     18  C   UNL     1       1.257  15.118  18.540  0.00  0.00    +0.000 A 
ATOM     19 CL   UNL     1       2.911  15.191  18.042  0.00  0.00    +0.000 Cl
ATOM     20  C   UNL     1       0.624  13.873  18.666  0.00  0.00    +0.000 A 
ENDBRANCH   5  14
BRANCH   6  21
ATOM     21  S   UNL     1       0.100   9.889  21.873  0.00  0.00    +0.000 S 
ATOM     22  C   UNL     1      -0.598   9.700  23.506  0.00  0.00    +0.000 C 
ATOM     23  O   UNL     1      -0.361   8.794  21.038  0.00  0.00    +0.000 OA
ATOM     24  O   UNL     1       1.531  10.038  22.205  0.00  0.00    +0.000 OA
ENDBRANCH   6  21
BRANCH   4  25
ATOM     25  C   UNL     1      -2.244  11.330  17.610  0.00  0.00    +0.000 C 
ATOM     26  O   UNL     1      -3.425  11.103  17.885  0.00  0.00    +0.000 OA
BRANCH  25  27
ATOM     27  O   UNL     1      -1.932  11.878  16.384  0.00  0.00    +0.000 OA
ATOM     28  H   UNL     1      -2.342  11.445  15.616  0.00  0.00    +0.000 HD
ENDBRANCH  25  27
ENDBRANCH   4  25
TORSDOF 5
ENDMDL
MODEL 8
REMARK VINA RESULT:      -5.6      8.156     10.399
REMARK  Name = 
REMARK  7 active torsions:
REMARK  status: ('A' for Active; 'I' for Inactive)
REMARK    1  A    between atoms: C_1  and  C_2
REMARK    2  A    between atoms: C_5  and  C_6
REMARK    3  A    between atoms: C_9  and  C_10
REMARK    4  A    between atoms: C_10  and  O_12
REMARK    5  A    between atoms: C_13  and  C_14
REMARK    6  A    between atoms: N_21  and  S_22
REMARK    7  A    between atoms: S_22  and  C_23
REMARK                            x       y       z     vdW  Elec       q    Type
REMARK                         _______ _______ _______ _____ _____    ______ ____
ROOT
ATOM      1  C   UNL     1      -0.720  13.825  21.398  0.00  0.00    +0.000 C 
ATOM      2  C   UNL     1      -2.341  13.207  22.053  0.00  0.00    +0.000 C 
ATOM      3  C   UNL     1      -3.506  12.629  21.163  0.00  0.00    +0.000 C 
ATOM      4  C   UNL     1      -3.303  12.518  19.847  0.00  0.00    +0.000 C 
ATOM      5  C   UNL     1      -1.919  12.963  19.556  0.00  0.00    +0.000 C 
ATOM      6  N   UNL     1      -1.461  14.491  20.371  0.00  0.00    +0.000 NA
ENDROOT
BRANCH   1  11
ATOM      7  C   UNL     1       4.465  14.999  18.592  0.00  0.00    +0.000 C 
ATOM      8  C   UNL     1       3.164  14.517  19.154  0.00  0.00    +0.000 A 
ATOM      9  C   UNL     1       1.985  14.884  18.557  0.00  0.00    +0.000 A 
ATOM     10  C   UNL     1       0.785  14.589  19.200  0.00  0.00    +0.000 A 
ATOM     11  C   UNL     1       0.622  13.825  20.446  0.00  0.00    +0.000 A 
ATOM     12  C   UNL     1       1.845  13.425  20.971  0.00  0.00    +0.000 A 
ATOM     13  C   UNL     1       3.089  13.775  20.354  0.00  0.00    +0.000 A 
ENDBRANCH   1  11
BRANCH   5  14
ATOM     14  C   UNL     1      -0.974  11.539  19.978  0.00  0.00    +0.000 A 
ATOM     15  C   UNL     1      -0.065  10.965  19.082  0.00  0.00    +0.000 A 
ATOM     16  C   UNL     1       0.857   9.969  19.508  0.00  0.00    +0.000 A 
ATOM     17  C   UNL     1       0.917   9.522  20.833  0.00  0.00    +0.000 A 
ATOM     18  C   UNL     1      -0.009  10.008  21.718  0.00  0.00    +0.000 A 
ATOM     19 CL   UNL     1       0.032   9.543  23.382  0.00  0.00    +0.000 Cl
ATOM     20  C   UNL     1      -0.966  10.935  21.279  0.00  0.00    +0.000 A 
ENDBRANCH   5  14
BRANCH   6  21
ATOM     21  S   UNL     1      -2.119  15.897  21.203  0.00  0.00    +0.000 S 
ATOM     22  C   UNL     1      -1.328  17.331  20.490  0.00  0.00    +0.000 C 
ATOM     23  O   UNL     1      -3.542  15.961  20.924  0.00  0.00    +0.000 OA
ATOM     24  O   UNL     1      -1.614  15.969  22.588  0.00  0.00    +0.000 OA
ENDBRANCH   6  21
BRANCH   4  25
ATOM     25  C   UNL     1      -3.985  11.865  18.752  0.00  0.00    +0.000 C 
ATOM     26  O   UNL     1      -5.124  11.393  18.781  0.00  0.00    +0.000 OA
BRANCH  25  27
ATOM     27  O   UNL     1      -3.343  12.001  17.539  0.00  0.00    +0.000 OA
ATOM     28  H   UNL     1      -3.539  11.311  16.882  0.00  0.00    +0.000 HD
ENDBRANCH  25  27
ENDBRANCH   4  25
TORSDOF 5
ENDMDL
MODEL 9
REMARK VINA RESULT:      -5.5      7.895     10.489
REMARK  Name = 
REMARK  7 active torsions:
REMARK  status: ('A' for Active; 'I' for Inactive)
REMARK    1  A    between atoms: C_1  and  C_2
REMARK    2  A    between atoms: C_5  and  C_6
REMARK    3  A    between atoms: C_9  and  C_10
REMARK    4  A    between atoms: C_10  and  O_12
REMARK    5  A    between atoms: C_13  and  C_14
REMARK    6  A    between atoms: N_21  and  S_22
REMARK    7  A    between atoms: S_22  and  C_23
REMARK                            x       y       z     vdW  Elec       q    Type
REMARK                         _______ _______ _______ _____ _____    ______ ____
ROOT
ATOM      1  C   UNL     1      -0.038  14.309  22.280  0.00  0.00    +0.000 C 
ATOM      2  C   UNL     1      -1.299  13.722  23.506  0.00  0.00    +0.000 C 
ATOM      3  C   UNL     1      -2.770  13.288  23.143  0.00  0.00    +0.000 C 
ATOM      4  C   UNL     1      -3.129  13.284  21.855  0.00  0.00    +0.000 C 
ATOM      5  C   UNL     1      -1.950  13.678  21.047  0.00  0.00    +0.000 C 
ATOM      6  N   UNL     1      -1.073  15.101  21.690  0.00  0.00    +0.000 NA
ENDROOT
BRANCH   1  11
ATOM      7  C   UNL     1       3.699  15.394  17.697  0.00  0.00    +0.000 C 
ATOM      8  C   UNL     1       2.678  14.957  18.701  0.00  0.00    +0.000 A 
ATOM      9  C   UNL     1       1.423  15.509  18.683  0.00  0.00    +0.000 A 
ATOM     10  C   UNL     1       0.553  15.236  19.736  0.00  0.00    +0.000 A 
ATOM     11  C   UNL     1       0.796  14.322  20.861  0.00  0.00    +0.000 A 
ATOM     12  C   UNL     1       2.057  13.743  20.793  0.00  0.00    +0.000 A 
ATOM     13  C   UNL     1       2.986  14.063  19.751  0.00  0.00    +0.000 A 
ENDBRANCH   1  11
BRANCH   5  14
ATOM     14  C   UNL     1      -1.040  12.175  20.958  0.00  0.00    +0.000 A 
ATOM     15  C   UNL     1      -0.848  11.361  22.080  0.00  0.00    +0.000 A 
ATOM     16  C   UNL     1      -0.320  10.046  21.953  0.00  0.00    +0.000 A 
ATOM     17  C   UNL     1       0.020   9.493  20.713  0.00  0.00    +0.000 A 
ATOM     18  C   UNL     1      -0.084  10.289  19.604  0.00  0.00    +0.000 A 
ATOM     19 CL   UNL     1       0.268   9.663  18.031  0.00  0.00    +0.000 Cl
ATOM     20  C   UNL     1      -0.534  11.611  19.740  0.00  0.00    +0.000 A 
ENDBRANCH   5  14
BRANCH   6  21
ATOM     21  S   UNL     1      -1.214  16.461  22.800  0.00  0.00    +0.000 S 
ATOM     22  C   UNL     1      -0.671  17.910  21.908  0.00  0.00    +0.000 C 
ATOM     23  O   UNL     1      -2.616  16.621  23.142  0.00  0.00    +0.000 OA
ATOM     24  O   UNL     1      -0.181  16.387  23.852  0.00  0.00    +0.000 OA
ENDBRANCH   6  21
BRANCH   4  25
ATOM     25  C   UNL     1      -4.250  12.767  21.101  0.00  0.00    +0.000 C 
ATOM     26  O   UNL     1      -5.262  12.242  21.569  0.00  0.00    +0.000 OA
BRANCH  25  27
ATOM     27  O   UNL     1      -4.226  13.112  19.766  0.00  0.00    +0.000 OA
ATOM     28  H   UNL     1      -4.653  12.480  19.163  0.00  0.00    +0.000 HD
ENDBRANCH  25  27
ENDBRANCH   4  25
TORSDOF 5
ENDMDL
