MODEL 1
REMARK VINA RESULT:      -8.7      0.000      0.000
REMARK  Name = 
REMARK  10 active torsions:
REMARK  status: ('A' for Active; 'I' for Inactive)
REMARK    1  A    between atoms: C_1  and  C_2
REMARK    2  A    between atoms: C_5  and  C_6
REMARK    3  A    between atoms: C_6  and  C_8
REMARK    4  A    between atoms: C_8  and  C_9
REMARK    5  A    between atoms: C_9  and  C_10
REMARK    6  A    between atoms: C_9  and  C_20
REMARK    7  A    between atoms: C_10  and  C_11
REMARK    8  A    between atoms: C_11  and  C_13
REMARK    9  A    between atoms: C_24  and  C_25
REMARK   10  A    between atoms: C_25  and  O_27
REMARK                            x       y       z     vdW  Elec       q    Type
REMARK                         _______ _______ _______ _____ _____    ______ ____
ROOT
ATOM      1  C   UNL     1       2.554   6.779  18.547  0.00  0.00    +0.000 C 
ENDROOT
BRANCH   1   2
ATOM      2  C   UNL     1       2.222   5.294  18.768  0.00  0.00    +0.000 A 
ATOM      3  C   UNL     1       1.888   4.475  17.674  0.00  0.00    +0.000 A 
ATOM      4  C   UNL     1       1.544   3.129  17.853  0.00  0.00    +0.000 A 
ATOM      5  C   UNL     1       1.587   2.556  19.122  0.00  0.00    +0.000 A 
ATOM      6  C   UNL     1       1.980   3.330  20.209  0.00  0.00    +0.000 A 
ATOM      7  C   UNL     1       2.246   4.695  20.038  0.00  0.00    +0.000 A 
BRANCH   6   8
ATOM      8  C   UNL     1       2.079   2.713  21.551  0.00  0.00    +0.000 C 
ATOM      9  O   UNL     1       3.132   2.295  22.010  0.00  0.00    +0.000 OA
BRANCH   8  10
ATOM     10  O   UNL     1       0.909   2.689  22.224  0.00  0.00    +0.000 OA
ATOM     11  H   UNL     1       0.151   2.332  21.714  0.00  0.00    +0.000 HD
ENDBRANCH   8  10
ENDBRANCH   6   8
ENDBRANCH   1   2
BRANCH   1  12
ATOM     12  C   UNL     1       4.058   7.085  18.349  0.00  0.00    +0.000 C 
BRANCH  12  13
ATOM     13  C   UNL     1       4.974   5.871  18.287  0.00  0.00    +0.000 C 
ATOM     14  O   UNL     1       5.510   5.390  19.284  0.00  0.00    +0.000 OA
BRANCH  13  19
ATOM     15  C   UNL     1       6.138   3.691  13.041  0.00  0.00    +0.000 C 
ATOM     16  C   UNL     1       5.807   4.252  14.391  0.00  0.00    +0.000 A 
ATOM     17  C   UNL     1       5.551   5.616  14.562  0.00  0.00    +0.000 A 
ATOM     18  C   UNL     1       5.275   6.129  15.832  0.00  0.00    +0.000 A 
ATOM     19  C   UNL     1       5.257   5.282  16.945  0.00  0.00    +0.000 A 
ATOM     20  C   UNL     1       5.498   3.914  16.774  0.00  0.00    +0.000 A 
ATOM     21  C   UNL     1       5.770   3.404  15.503  0.00  0.00    +0.000 A 
ENDBRANCH  13  19
ENDBRANCH  12  13
ENDBRANCH   1  12
BRANCH   1  22
ATOM     22  C   UNL     1       2.035   7.600  19.750  0.00  0.00    +0.000 C 
BRANCH  22  23
ATOM     23  C   UNL     1       1.305   8.877  19.360  0.00  0.00    +0.000 C 
ATOM     24  O   UNL     1       1.430   9.346  18.226  0.00  0.00    +0.000 OA
BRANCH  23  25
ATOM     25  C   UNL     1       0.461   9.598  20.359  0.00  0.00    +0.000 A 
ATOM     26  C   UNL     1       0.328   9.149  21.678  0.00  0.00    +0.000 A 
ATOM     27  C   UNL     1      -0.364   9.922  22.615  0.00  0.00    +0.000 A 
ATOM     28  C   UNL     1      -0.939  11.133  22.235  0.00  0.00    +0.000 A 
ATOM     29 CL   UNL     1      -1.715  12.114  23.414  0.00  0.00    +0.000 Cl
ATOM     30  C   UNL     1      -0.869  11.558  20.911  0.00  0.00    +0.000 A 
ATOM     31  C   UNL     1      -0.174  10.788  19.972  0.00  0.00    +0.000 A 
ENDBRANCH  23  25
ENDBRANCH  22  23
ENDBRANCH   1  22
TORSDOF 9
ENDMDL
MODEL 2
REMARK VINA RESULT:      -8.6      0.989      1.557
REMARK  Name = 
REMARK  10 active torsions:
REMARK  status: ('A' for Active; 'I' for Inactive)
REMARK    1  A    between atoms: C_1  and  C_2
REMARK    2  A    between atoms: C_5  and  C_6
REMARK    3  A    between atoms: C_6  and  C_8
REMARK    4  A    between atoms: C_8  and  C_9
REMARK    5  A    between atoms: C_9  and  C_10
REMARK    6  A    between atoms: C_9  and  C_20
REMARK    7  A    between atoms: C_10  and  C_11
REMARK    8  A    between atoms: C_11  and  C_13
REMARK    9  A    between atoms: C_24  and  C_25
REMARK   10  A    between atoms: C_25  and  O_27
REMARK                            x       y       z     vdW  Elec       q    Type
REMARK                         _______ _______ _______ _____ _____    ______ ____
ROOT
ATOM      1  C   UNL     1       3.056   6.260  18.236  0.00  0.00    +0.000 C 
ENDROOT
BRANCH   1   2
ATOM      2  C   UNL     1       2.492   4.883  18.622  0.00  0.00    +0.000 A 
ATOM      3  C   UNL     1       1.956   4.038  17.634  0.00  0.00    +0.000 A 
ATOM      4  C   UNL     1       1.401   2.794  17.965  0.00  0.00    +0.000 A 
ATOM      5  C   UNL     1       1.427   2.342  19.282  0.00  0.00    +0.000 A 
ATOM      6  C   UNL     1       2.014   3.132  20.265  0.00  0.00    +0.000 A 
ATOM      7  C   UNL     1       2.496   4.408  19.944  0.00  0.00    +0.000 A 
BRANCH   6   8
ATOM      8  C   UNL     1       2.093   2.633  21.656  0.00  0.00    +0.000 C 
ATOM      9  O   UNL     1       1.143   2.666  22.425  0.00  0.00    +0.000 OA
BRANCH   8  10
ATOM     10  O   UNL     1       3.296   2.110  21.977  0.00  0.00    +0.000 OA
ATOM     11  H   UNL     1       3.778   1.703  21.227  0.00  0.00    +0.000 HD
ENDBRANCH   8  10
ENDBRANCH   6   8
ENDBRANCH   1   2
BRANCH   1  12
ATOM     12  C   UNL     1       4.599   6.368  18.289  0.00  0.00    +0.000 C 
BRANCH  12  13
ATOM     13  C   UNL     1       5.358   5.081  17.998  0.00  0.00    +0.000 C 
ATOM     14  O   UNL     1       5.716   4.305  18.882  0.00  0.00    +0.000 OA
BRANCH  13  19
ATOM     15  C   UNL     1       6.868   3.942  12.517  0.00  0.00    +0.000 C 
ATOM     16  C   UNL     1       6.467   4.264  13.924  0.00  0.00    +0.000 A 
ATOM     17  C   UNL     1       7.300   5.016  14.758  0.00  0.00    +0.000 A 
ATOM     18  C   UNL     1       6.926   5.281  16.078  0.00  0.00    +0.000 A 
ATOM     19  C   UNL     1       5.715   4.790  16.578  0.00  0.00    +0.000 A 
ATOM     20  C   UNL     1       4.872   4.051  15.740  0.00  0.00    +0.000 A 
ATOM     21  C   UNL     1       5.248   3.791  14.422  0.00  0.00    +0.000 A 
ENDBRANCH  13  19
ENDBRANCH  12  13
ENDBRANCH   1  12
BRANCH   1  22
ATOM     22  C   UNL     1       2.451   7.336  19.168  0.00  0.00    +0.000 C 
BRANCH  22  23
ATOM     23  C   UNL     1       1.924   8.563  18.438  0.00  0.00    +0.000 C 
ATOM     24  O   UNL     1       2.251   8.783  17.270  0.00  0.00    +0.000 OA
BRANCH  23  25
ATOM     25  C   UNL     1       1.034   9.533  19.142  0.00  0.00    +0.000 A 
ATOM     26  C   UNL     1       0.346  10.542  18.455  0.00  0.00    +0.000 A 
ATOM     27  C   UNL     1      -0.577  11.345  19.130  0.00  0.00    +0.000 A 
ATOM     28  C   UNL     1      -0.803  11.159  20.493  0.00  0.00    +0.000 A 
ATOM     29 CL   UNL     1      -1.999  12.096  21.294  0.00  0.00    +0.000 Cl
ATOM     30  C   UNL     1      -0.077  10.204  21.199  0.00  0.00    +0.000 A 
ATOM     31  C   UNL     1       0.844   9.395  20.525  0.00  0.00    +0.000 A 
ENDBRANCH  23  25
ENDBRANCH  22  23
ENDBRANCH   1  22
TORSDOF 9
ENDMDL
MODEL 3
REMARK VINA RESULT:      -8.4      2.971      6.924
REMARK  Name = 
REMARK  10 active torsions:
REMARK  status: ('A' for Active; 'I' for Inactive)
REMARK    1  A    between atoms: C_1  and  C_2
REMARK    2  A    between atoms: C_5  and  C_6
REMARK    3  A    between atoms: C_6  and  C_8
REMARK    4  A    between atoms: C_8  and  C_9
REMARK    5  A    between atoms: C_9  and  C_10
REMARK    6  A    between atoms: C_9  and  C_20
REMARK    7  A    between atoms: C_10  and  C_11
REMARK    8  A    between atoms: C_11  and  C_13
REMARK    9  A    between atoms: C_24  and  C_25
REMARK   10  A    between atoms: C_25  and  O_27
REMARK                            x       y       z     vdW  Elec       q    Type
REMARK                         _______ _______ _______ _____ _____    ______ ____
ROOT
ATOM      1  C   UNL     1       3.562   5.278  18.188  0.00  0.00    +0.000 C 
ENDROOT
BRANCH   1   2
ATOM      2  C   UNL     1       3.366   4.254  19.318  0.00  0.00    +0.000 A 
ATOM      3  C   UNL     1       2.190   4.271  20.089  0.00  0.00    +0.000 A 
ATOM      4  C   UNL     1       2.003   3.373  21.149  0.00  0.00    +0.000 A 
ATOM      5  C   UNL     1       2.960   2.399  21.420  0.00  0.00    +0.000 A 
ATOM      6  C   UNL     1       4.101   2.320  20.626  0.00  0.00    +0.000 A 
ATOM      7  C   UNL     1       4.321   3.269  19.619  0.00  0.00    +0.000 A 
BRANCH   6   8
ATOM      8  C   UNL     1       5.095   1.252  20.876  0.00  0.00    +0.000 C 
ATOM      9  O   UNL     1       5.647   1.103  21.956  0.00  0.00    +0.000 OA
BRANCH   8  10
ATOM     10  O   UNL     1       5.303   0.446  19.813  0.00  0.00    +0.000 OA
ATOM     11  H   UNL     1       5.682   0.893  19.028  0.00  0.00    +0.000 HD
ENDBRANCH   8  10
ENDBRANCH   6   8
ENDBRANCH   1   2
BRANCH   1  12
ATOM     12  C   UNL     1       2.310   6.122  17.852  0.00  0.00    +0.000 C 
BRANCH  12  13
ATOM     13  C   UNL     1       2.479   7.629  17.979  0.00  0.00    +0.000 C 
ATOM     14  O   UNL     1       3.204   8.283  17.232  0.00  0.00    +0.000 OA
BRANCH  13  19
ATOM     15  C   UNL     1      -0.213  10.266  22.387  0.00  0.00    +0.000 C 
ATOM     16  C   UNL     1       0.458   9.566  21.245  0.00  0.00    +0.000 A 
ATOM     17  C   UNL     1       1.161   8.373  21.441  0.00  0.00    +0.000 A 
ATOM     18  C   UNL     1       1.808   7.750  20.371  0.00  0.00    +0.000 A 
ATOM     19  C   UNL     1       1.761   8.317  19.093  0.00  0.00    +0.000 A 
ATOM     20  C   UNL     1       1.045   9.503  18.891  0.00  0.00    +0.000 A 
ATOM     21  C   UNL     1       0.398  10.121  19.962  0.00  0.00    +0.000 A 
ENDBRANCH  13  19
ENDBRANCH  12  13
ENDBRANCH   1  12
BRANCH   1  22
ATOM     22  C   UNL     1       4.021   4.540  16.908  0.00  0.00    +0.000 C 
BRANCH  22  23
ATOM     23  C   UNL     1       5.509   4.670  16.618  0.00  0.00    +0.000 C 
ATOM     24  O   UNL     1       6.069   3.877  15.858  0.00  0.00    +0.000 OA
BRANCH  23  25
ATOM     25  C   UNL     1       6.316   5.737  17.282  0.00  0.00    +0.000 A 
ATOM     26  C   UNL     1       7.169   5.461  18.357  0.00  0.00    +0.000 A 
ATOM     27  C   UNL     1       8.003   6.461  18.864  0.00  0.00    +0.000 A 
ATOM     28  C   UNL     1       7.976   7.741  18.314  0.00  0.00    +0.000 A 
ATOM     29 CL   UNL     1       9.065   8.939  18.890  0.00  0.00    +0.000 Cl
ATOM     30  C   UNL     1       7.085   8.044  17.288  0.00  0.00    +0.000 A 
ATOM     31  C   UNL     1       6.252   7.045  16.775  0.00  0.00    +0.000 A 
ENDBRANCH  23  25
ENDBRANCH  22  23
ENDBRANCH   1  22
TORSDOF 9
ENDMDL
MODEL 4
REMARK VINA RESULT:      -8.4      3.279      7.262
REMARK  Name = 
REMARK  10 active torsions:
REMARK  status: ('A' for Active; 'I' for Inactive)
REMARK    1  A    between atoms: C_1  and  C_2
REMARK    2  A    between atoms: C_5  and  C_6
REMARK    3  A    between atoms: C_6  and  C_8
REMARK    4  A    between atoms: C_8  and  C_9
REMARK    5  A    between atoms: C_9  and  C_10
REMARK    6  A    between atoms: C_9  and  C_20
REMARK    7  A    between atoms: C_10  and  C_11
REMARK    8  A    between atoms: C_11  and  C_13
REMARK    9  A    between atoms: C_24  and  C_25
REMARK   10  A    between atoms: C_25  and  O_27
REMARK                            x       y       z     vdW  Elec       q    Type
REMARK                         _______ _______ _______ _____ _____    ______ ____
ROOT
ATOM      1  C   UNL     1       5.289   4.501  16.277  0.00  0.00    +0.000 C 
ENDROOT
BRANCH   1   2
ATOM      2  C   UNL     1       5.881   4.360  14.864  0.00  0.00    +0.000 A 
ATOM      3  C   UNL     1       7.083   5.011  14.535  0.00  0.00    +0.000 A 
ATOM      4  C   UNL     1       7.623   4.929  13.244  0.00  0.00    +0.000 A 
ATOM      5  C   UNL     1       7.007   4.143  12.274  0.00  0.00    +0.000 A 
ATOM      6  C   UNL     1       5.853   3.435  12.598  0.00  0.00    +0.000 A 
ATOM      7  C   UNL     1       5.272   3.583  13.864  0.00  0.00    +0.000 A 
BRANCH   6   8
ATOM      8  C   UNL     1       5.224   2.556  11.586  0.00  0.00    +0.000 C 
ATOM      9  O   UNL     1       4.212   2.869  10.977  0.00  0.00    +0.000 OA
BRANCH   8  10
ATOM     10  O   UNL     1       5.894   1.402  11.380  0.00  0.00    +0.000 OA
ATOM     11  H   UNL     1       6.832   1.417  11.664  0.00  0.00    +0.000 HD
ENDBRANCH   8  10
ENDBRANCH   6   8
ENDBRANCH   1   2
BRANCH   1  12
ATOM     12  C   UNL     1       6.302   4.930  17.365  0.00  0.00    +0.000 C 
BRANCH  12  13
ATOM     13  C   UNL     1       5.696   5.461  18.655  0.00  0.00    +0.000 C 
ATOM     14  O   UNL     1       6.123   5.155  19.767  0.00  0.00    +0.000 OA
BRANCH  13  19
ATOM     15  C   UNL     1       1.061   8.935  18.367  0.00  0.00    +0.000 C 
ATOM     16  C   UNL     1       2.242   8.014  18.428  0.00  0.00    +0.000 A 
ATOM     17  C   UNL     1       2.404   7.118  19.489  0.00  0.00    +0.000 A 
ATOM     18  C   UNL     1       3.527   6.289  19.548  0.00  0.00    +0.000 A 
ATOM     19  C   UNL     1       4.502   6.352  18.548  0.00  0.00    +0.000 A 
ATOM     20  C   UNL     1       4.335   7.238  17.477  0.00  0.00    +0.000 A 
ATOM     21  C   UNL     1       3.211   8.063  17.420  0.00  0.00    +0.000 A 
ENDBRANCH  13  19
ENDBRANCH  12  13
ENDBRANCH   1  12
BRANCH   1  22
ATOM     22  C   UNL     1       4.649   3.157  16.696  0.00  0.00    +0.000 C 
BRANCH  22  23
ATOM     23  C   UNL     1       3.155   3.242  16.974  0.00  0.00    +0.000 C 
ATOM     24  O   UNL     1       2.356   3.411  16.051  0.00  0.00    +0.000 OA
BRANCH  23  25
ATOM     25  C   UNL     1       2.645   3.162  18.375  0.00  0.00    +0.000 A 
ATOM     26  C   UNL     1       1.326   3.501  18.704  0.00  0.00    +0.000 A 
ATOM     27  C   UNL     1       0.851   3.287  20.001  0.00  0.00    +0.000 A 
ATOM     28  C   UNL     1       1.692   2.754  20.977  0.00  0.00    +0.000 A 
ATOM     29 CL   UNL     1       1.074   2.419  22.544  0.00  0.00    +0.000 Cl
ATOM     30  C   UNL     1       3.023   2.476  20.678  0.00  0.00    +0.000 A 
ATOM     31  C   UNL     1       3.500   2.684  19.379  0.00  0.00    +0.000 A 
ENDBRANCH  23  25
ENDBRANCH  22  23
ENDBRANCH   1  22
TORSDOF 9
ENDMDL
MODEL 5
REMARK VINA RESULT:      -8.3      1.123      1.413
REMARK  Name = 
REMARK  10 active torsions:
REMARK  status: ('A' for Active; 'I' for Inactive)
REMARK    1  A    between atoms: C_1  and  C_2
REMARK    2  A    between atoms: C_5  and  C_6
REMARK    3  A    between atoms: C_6  and  C_8
REMARK    4  A    between atoms: C_8  and  C_9
REMARK    5  A    between atoms: C_9  and  C_10
REMARK    6  A    between atoms: C_9  and  C_20
REMARK    7  A    between atoms: C_10  and  C_11
REMARK    8  A    between atoms: C_11  and  C_13
REMARK    9  A    between atoms: C_24  and  C_25
REMARK   10  A    between atoms: C_25  and  O_27
REMARK                            x       y       z     vdW  Elec       q    Type
REMARK                         _______ _______ _______ _____ _____    ______ ____
ROOT
ATOM      1  C   UNL     1       3.113   6.187  18.223  0.00  0.00    +0.000 C 
ENDROOT
BRANCH   1   2
ATOM      2  C   UNL     1       2.579   4.791  18.583  0.00  0.00    +0.000 A 
ATOM      3  C   UNL     1       2.130   3.925  17.569  0.00  0.00    +0.000 A 
ATOM      4  C   UNL     1       1.603   2.663  17.873  0.00  0.00    +0.000 A 
ATOM      5  C   UNL     1       1.572   2.213  19.191  0.00  0.00    +0.000 A 
ATOM      6  C   UNL     1       2.075   3.026  20.202  0.00  0.00    +0.000 A 
ATOM      7  C   UNL     1       2.527   4.319  19.905  0.00  0.00    +0.000 A 
BRANCH   6   8
ATOM      8  C   UNL     1       2.094   2.532  21.598  0.00  0.00    +0.000 C 
ATOM      9  O   UNL     1       3.119   2.173  22.158  0.00  0.00    +0.000 OA
BRANCH   8  10
ATOM     10  O   UNL     1       0.883   2.550  22.196  0.00  0.00    +0.000 OA
ATOM     11  H   UNL     1       0.268   3.232  21.853  0.00  0.00    +0.000 HD
ENDBRANCH   8  10
ENDBRANCH   6   8
ENDBRANCH   1   2
BRANCH   1  12
ATOM     12  C   UNL     1       4.649   6.343  18.336  0.00  0.00    +0.000 C 
BRANCH  12  13
ATOM     13  C   UNL     1       5.460   5.087  18.058  0.00  0.00    +0.000 C 
ATOM     14  O   UNL     1       5.853   4.336  18.949  0.00  0.00    +0.000 OA
BRANCH  13  19
ATOM     15  C   UNL     1       6.746   3.952  12.518  0.00  0.00    +0.000 C 
ATOM     16  C   UNL     1       6.427   4.219  13.958  0.00  0.00    +0.000 A 
ATOM     17  C   UNL     1       5.279   3.687  14.553  0.00  0.00    +0.000 A 
ATOM     18  C   UNL     1       4.980   3.970  15.887  0.00  0.00    +0.000 A 
ATOM     19  C   UNL     1       5.824   4.794  16.639  0.00  0.00    +0.000 A 
ATOM     20  C   UNL     1       6.981   5.316  16.050  0.00  0.00    +0.000 A 
ATOM     21  C   UNL     1       7.279   5.028  14.717  0.00  0.00    +0.000 A 
ENDBRANCH  13  19
ENDBRANCH  12  13
ENDBRANCH   1  12
BRANCH   1  22
ATOM     22  C   UNL     1       2.439   7.238  19.136  0.00  0.00    +0.000 C 
BRANCH  22  23
ATOM     23  C   UNL     1       2.068   8.531  18.422  0.00  0.00    +0.000 C 
ATOM     24  O   UNL     1       2.344   8.688  17.231  0.00  0.00    +0.000 OA
BRANCH  23  25
ATOM     25  C   UNL     1       1.399   9.638  19.168  0.00  0.00    +0.000 A 
ATOM     26  C   UNL     1       0.841   9.445  20.438  0.00  0.00    +0.000 A 
ATOM     27  C   UNL     1       0.342  10.535  21.156  0.00  0.00    +0.000 A 
ATOM     28  C   UNL     1       0.381  11.814  20.605  0.00  0.00    +0.000 A 
ATOM     29 CL   UNL     1      -0.158  13.158  21.531  0.00  0.00    +0.000 Cl
ATOM     30  C   UNL     1       0.873  12.008  19.317  0.00  0.00    +0.000 A 
ATOM     31  C   UNL     1       1.377  10.919  18.597  0.00  0.00    +0.000 A 
ENDBRANCH  23  25
ENDBRANCH  22  23
ENDBRANCH   1  22
TORSDOF 9
ENDMDL
MODEL 6
REMARK VINA RESULT:      -8.2      3.527      6.826
REMARK  Name = 
REMARK  10 active torsions:
REMARK  status: ('A' for Active; 'I' for Inactive)
REMARK    1  A    between atoms: C_1  and  C_2
REMARK    2  A    between atoms: C_5  and  C_6
REMARK    3  A    between atoms: C_6  and  C_8
REMARK    4  A    between atoms: C_8  and  C_9
REMARK    5  A    between atoms: C_9  and  C_10
REMARK    6  A    between atoms: C_9  and  C_20
REMARK    7  A    between atoms: C_10  and  C_11
REMARK    8  A    between atoms: C_11  and  C_13
REMARK    9  A    between atoms: C_24  and  C_25
REMARK   10  A    between atoms: C_25  and  O_27
REMARK                            x       y       z     vdW  Elec       q    Type
REMARK                         _______ _______ _______ _____ _____    ______ ____
ROOT
ATOM      1  C   UNL     1       5.921   4.490  16.417  0.00  0.00    +0.000 C 
ENDROOT
BRANCH   1   2
ATOM      2  C   UNL     1       6.280   4.418  14.924  0.00  0.00    +0.000 A 
ATOM      3  C   UNL     1       7.364   5.160  14.423  0.00  0.00    +0.000 A 
ATOM      4  C   UNL     1       7.690   5.141  13.060  0.00  0.00    +0.000 A 
ATOM      5  C   UNL     1       6.977   4.331  12.179  0.00  0.00    +0.000 A 
ATOM      6  C   UNL     1       5.943   3.536  12.666  0.00  0.00    +0.000 A 
ATOM      7  C   UNL     1       5.570   3.618  14.013  0.00  0.00    +0.000 A 
BRANCH   6   8
ATOM      8  C   UNL     1       5.218   2.633  11.744  0.00  0.00    +0.000 C 
ATOM      9  O   UNL     1       4.163   2.941  11.210  0.00  0.00    +0.000 OA
BRANCH   8  10
ATOM     10  O   UNL     1       5.850   1.459  11.526  0.00  0.00    +0.000 OA
ATOM     11  H   UNL     1       5.482   0.926  10.791  0.00  0.00    +0.000 HD
ENDBRANCH   8  10
ENDBRANCH   6   8
ENDBRANCH   1   2
BRANCH   1  12
ATOM     12  C   UNL     1       7.133   4.487  17.378  0.00  0.00    +0.000 C 
BRANCH  12  13
ATOM     13  C   UNL     1       7.025   5.417  18.577  0.00  0.00    +0.000 C 
ATOM     14  O   UNL     1       6.546   5.063  19.653  0.00  0.00    +0.000 OA
BRANCH  13  19
ATOM     15  C   UNL     1       8.921  10.860  17.940  0.00  0.00    +0.000 C 
ATOM     16  C   UNL     1       8.413   9.463  18.128  0.00  0.00    +0.000 A 
ATOM     17  C   UNL     1       8.970   8.615  19.090  0.00  0.00    +0.000 A 
ATOM     18  C   UNL     1       8.506   7.305  19.231  0.00  0.00    +0.000 A 
ATOM     19  C   UNL     1       7.482   6.828  18.406  0.00  0.00    +0.000 A 
ATOM     20  C   UNL     1       6.913   7.680  17.452  0.00  0.00    +0.000 A 
ATOM     21  C   UNL     1       7.377   8.989  17.316  0.00  0.00    +0.000 A 
ENDBRANCH  13  19
ENDBRANCH  12  13
ENDBRANCH   1  12
BRANCH   1  22
ATOM     22  C   UNL     1       5.000   3.300  16.776  0.00  0.00    +0.000 C 
BRANCH  22  23
ATOM     23  C   UNL     1       3.551   3.693  17.029  0.00  0.00    +0.000 C 
ATOM     24  O   UNL     1       2.636   3.116  16.438  0.00  0.00    +0.000 OA
BRANCH  23  25
ATOM     25  C   UNL     1       3.226   4.807  17.968  0.00  0.00    +0.000 A 
ATOM     26  C   UNL     1       3.350   6.151  17.595  0.00  0.00    +0.000 A 
ATOM     27  C   UNL     1       2.912   7.161  18.456  0.00  0.00    +0.000 A 
ATOM     28  C   UNL     1       2.366   6.835  19.697  0.00  0.00    +0.000 A 
ATOM     29 CL   UNL     1       1.754   8.079  20.711  0.00  0.00    +0.000 Cl
ATOM     30  C   UNL     1       2.297   5.506  20.105  0.00  0.00    +0.000 A 
ATOM     31  C   UNL     1       2.731   4.493  19.243  0.00  0.00    +0.000 A 
ENDBRANCH  23  25
ENDBRANCH  22  23
ENDBRANCH   1  22
TORSDOF 9
ENDMDL
MODEL 7
REMARK VINA RESULT:      -8.2      3.186      7.875
REMARK  Name = 
REMARK  10 active torsions:
REMARK  status: ('A' for Active; 'I' for Inactive)
REMARK    1  A    between atoms: C_1  and  C_2
REMARK    2  A    between atoms: C_5  and  C_6
REMARK    3  A    between atoms: C_6  and  C_8
REMARK    4  A    between atoms: C_8  and  C_9
REMARK    5  A    between atoms: C_9  and  C_10
REMARK    6  A    between atoms: C_9  and  C_20
REMARK    7  A    between atoms: C_10  and  C_11
REMARK    8  A    between atoms: C_11  and  C_13
REMARK    9  A    between atoms: C_24  and  C_25
REMARK   10  A    between atoms: C_25  and  O_27
REMARK                            x       y       z     vdW  Elec       q    Type
REMARK                         _______ _______ _______ _____ _____    ______ ____
ROOT
ATOM      1  C   UNL     1       3.111   6.918  18.800  0.00  0.00    +0.000 C 
ENDROOT
BRANCH   1   2
ATOM      2  C   UNL     1       2.516   5.507  18.947  0.00  0.00    +0.000 A 
ATOM      3  C   UNL     1       1.880   4.893  17.853  0.00  0.00    +0.000 A 
ATOM      4  C   UNL     1       1.296   3.625  17.971  0.00  0.00    +0.000 A 
ATOM      5  C   UNL     1       1.391   2.917  19.167  0.00  0.00    +0.000 A 
ATOM      6  C   UNL     1       2.075   3.477  20.241  0.00  0.00    +0.000 A 
ATOM      7  C   UNL     1       2.588   4.777  20.145  0.00  0.00    +0.000 A 
BRANCH   6   8
ATOM      8  C   UNL     1       2.225   2.707  21.496  0.00  0.00    +0.000 C 
ATOM      9  O   UNL     1       1.303   2.534  22.280  0.00  0.00    +0.000 OA
BRANCH   8  10
ATOM     10  O   UNL     1       3.460   2.190  21.670  0.00  0.00    +0.000 OA
ATOM     11  H   UNL     1       4.168   2.855  21.801  0.00  0.00    +0.000 HD
ENDBRANCH   8  10
ENDBRANCH   6   8
ENDBRANCH   1   2
BRANCH   1  12
ATOM     12  C   UNL     1       2.067   8.054  18.681  0.00  0.00    +0.000 C 
BRANCH  12  13
ATOM     13  C   UNL     1       1.481   8.548  19.995  0.00  0.00    +0.000 C 
ATOM     14  O   UNL     1       1.618   7.942  21.056  0.00  0.00    +0.000 OA
BRANCH  13  19
ATOM     15  C   UNL     1      -1.649  13.430  20.008  0.00  0.00    +0.000 C 
ATOM     16  C   UNL     1      -0.865  12.153  19.997  0.00  0.00    +0.000 A 
ATOM     17  C   UNL     1      -0.833  11.317  21.117  0.00  0.00    +0.000 A 
ATOM     18  C   UNL     1      -0.072  10.145  21.102  0.00  0.00    +0.000 A 
ATOM     19  C   UNL     1       0.668   9.801  19.966  0.00  0.00    +0.000 A 
ATOM     20  C   UNL     1       0.625  10.628  18.838  0.00  0.00    +0.000 A 
ATOM     21  C   UNL     1      -0.139  11.796  18.856  0.00  0.00    +0.000 A 
ENDBRANCH  13  19
ENDBRANCH  12  13
ENDBRANCH   1  12
BRANCH   1  22
ATOM     22  C   UNL     1       4.028   6.954  17.556  0.00  0.00    +0.000 C 
BRANCH  22  23
ATOM     23  C   UNL     1       5.177   5.957  17.603  0.00  0.00    +0.000 C 
ATOM     24  O   UNL     1       5.776   5.744  18.659  0.00  0.00    +0.000 OA
BRANCH  23  25
ATOM     25  C   UNL     1       5.616   5.254  16.361  0.00  0.00    +0.000 A 
ATOM     26  C   UNL     1       4.830   4.270  15.749  0.00  0.00    +0.000 A 
ATOM     27  C   UNL     1       5.216   3.731  14.518  0.00  0.00    +0.000 A 
ATOM     28  C   UNL     1       6.393   4.156  13.905  0.00  0.00    +0.000 A 
ATOM     29 CL   UNL     1       6.813   3.547  12.355  0.00  0.00    +0.000 Cl
ATOM     30  C   UNL     1       7.215   5.085  14.536  0.00  0.00    +0.000 A 
ATOM     31  C   UNL     1       6.830   5.630  15.766  0.00  0.00    +0.000 A 
ENDBRANCH  23  25
ENDBRANCH  22  23
ENDBRANCH   1  22
TORSDOF 9
ENDMDL
MODEL 8
REMARK VINA RESULT:      -8.2      2.926      7.575
REMARK  Name = 
REMARK  10 active torsions:
REMARK  status: ('A' for Active; 'I' for Inactive)
REMARK    1  A    between atoms: C_1  and  C_2
REMARK    2  A    between atoms: C_5  and  C_6
REMARK    3  A    between atoms: C_6  and  C_8
REMARK    4  A    between atoms: C_8  and  C_9
REMARK    5  A    between atoms: C_9  and  C_10
REMARK    6  A    between atoms: C_9  and  C_20
REMARK    7  A    between atoms: C_10  and  C_11
REMARK    8  A    between atoms: C_11  and  C_13
REMARK    9  A    between atoms: C_24  and  C_25
REMARK   10  A    between atoms: C_25  and  O_27
REMARK                            x       y       z     vdW  Elec       q    Type
REMARK                         _______ _______ _______ _____ _____    ______ ____
ROOT
ATOM      1  C   UNL     1       2.650   7.046  18.801  0.00  0.00    +0.000 C 
ENDROOT
BRANCH   1   2
ATOM      2  C   UNL     1       2.313   5.549  18.909  0.00  0.00    +0.000 A 
ATOM      3  C   UNL     1       1.967   4.819  17.758  0.00  0.00    +0.000 A 
ATOM      4  C   UNL     1       1.619   3.464  17.834  0.00  0.00    +0.000 A 
ATOM      5  C   UNL     1       1.671   2.794  19.053  0.00  0.00    +0.000 A 
ATOM      6  C   UNL     1       2.077   3.480  20.194  0.00  0.00    +0.000 A 
ATOM      7  C   UNL     1       2.347   4.853  20.128  0.00  0.00    +0.000 A 
BRANCH   6   8
ATOM      8  C   UNL     1       2.185   2.758  21.482  0.00  0.00    +0.000 C 
ATOM      9  O   UNL     1       1.236   2.607  22.237  0.00  0.00    +0.000 OA
BRANCH   8  10
ATOM     10  O   UNL     1       3.417   2.259  21.722  0.00  0.00    +0.000 OA
ATOM     11  H   UNL     1       3.455   1.283  21.797  0.00  0.00    +0.000 HD
ENDBRANCH   8  10
ENDBRANCH   6   8
ENDBRANCH   1   2
BRANCH   1  12
ATOM     12  C   UNL     1       1.662   7.873  17.945  0.00  0.00    +0.000 C 
BRANCH  12  13
ATOM     13  C   UNL     1       1.589   9.357  18.275  0.00  0.00    +0.000 C 
ATOM     14  O   UNL     1       2.112  10.221  17.574  0.00  0.00    +0.000 OA
BRANCH  13  19
ATOM     15  C   UNL     1      -1.229  10.956  23.084  0.00  0.00    +0.000 C 
ATOM     16  C   UNL     1      -0.477  10.561  21.849  0.00  0.00    +0.000 A 
ATOM     17  C   UNL     1      -0.537  11.339  20.689  0.00  0.00    +0.000 A 
ATOM     18  C   UNL     1       0.144  10.940  19.536  0.00  0.00    +0.000 A 
ATOM     19  C   UNL     1       0.889   9.756  19.532  0.00  0.00    +0.000 A 
ATOM     20  C   UNL     1       0.963   8.984  20.697  0.00  0.00    +0.000 A 
ATOM     21  C   UNL     1       0.283   9.386  21.847  0.00  0.00    +0.000 A 
ENDBRANCH  13  19
ENDBRANCH  12  13
ENDBRANCH   1  12
BRANCH   1  22
ATOM     22  C   UNL     1       4.071   7.205  18.213  0.00  0.00    +0.000 C 
BRANCH  22  23
ATOM     23  C   UNL     1       4.884   5.918  18.201  0.00  0.00    +0.000 C 
ATOM     24  O   UNL     1       5.249   5.399  19.258  0.00  0.00    +0.000 OA
BRANCH  23  25
ATOM     25  C   UNL     1       5.282   5.290  16.905  0.00  0.00    +0.000 A 
ATOM     26  C   UNL     1       5.459   3.907  16.775  0.00  0.00    +0.000 A 
ATOM     27  C   UNL     1       5.703   3.348  15.517  0.00  0.00    +0.000 A 
ATOM     28  C   UNL     1       5.789   4.165  14.392  0.00  0.00    +0.000 A 
ATOM     29 CL   UNL     1       6.006   3.459  12.841  0.00  0.00    +0.000 Cl
ATOM     30  C   UNL     1       5.680   5.547  14.520  0.00  0.00    +0.000 A 
ATOM     31  C   UNL     1       5.432   6.110  15.776  0.00  0.00    +0.000 A 
ENDBRANCH  23  25
ENDBRANCH  22  23
ENDBRANCH   1  22
TORSDOF 9
ENDMDL
MODEL 9
REMARK VINA RESULT:      -8.2      1.466      2.402
REMARK  Name = 
REMARK  10 active torsions:
REMARK  status: ('A' for Active; 'I' for Inactive)
REMARK    1  A    between atoms: C_1  and  C_2
REMARK    2  A    between atoms: C_5  and  C_6
REMARK    3  A    between atoms: C_6  and  C_8
REMARK    4  A    between atoms: C_8  and  C_9
REMARK    5  A    between atoms: C_9  and  C_10
REMARK    6  A    between atoms: C_9  and  C_20
REMARK    7  A    between atoms: C_10  and  C_11
REMARK    8  A    between atoms: C_11  and  C_13
REMARK    9  A    between atoms: C_24  and  C_25
REMARK   10  A    between atoms: C_25  and  O_27
REMARK                            x       y       z     vdW  Elec       q    Type
REMARK                         _______ _______ _______ _____ _____    ______ ____
ROOT
ATOM      1  C   UNL     1       3.556   5.678  17.327  0.00  0.00    +0.000 C 
ENDROOT
BRANCH   1   2
ATOM      2  C   UNL     1       2.771   4.634  18.139  0.00  0.00    +0.000 A 
ATOM      3  C   UNL     1       1.529   4.167  17.675  0.00  0.00    +0.000 A 
ATOM      4  C   UNL     1       0.776   3.245  18.414  0.00  0.00    +0.000 A 
ATOM      5  C   UNL     1       1.278   2.723  19.603  0.00  0.00    +0.000 A 
ATOM      6  C   UNL     1       2.536   3.120  20.048  0.00  0.00    +0.000 A 
ATOM      7  C   UNL     1       3.250   4.101  19.347  0.00  0.00    +0.000 A 
BRANCH   6   8
ATOM      8  C   UNL     1       3.097   2.527  21.282  0.00  0.00    +0.000 C 
ATOM      9  O   UNL     1       2.465   2.451  22.326  0.00  0.00    +0.000 OA
BRANCH   8  10
ATOM     10  O   UNL     1       4.352   2.051  21.133  0.00  0.00    +0.000 OA
ATOM     11  H   UNL     1       4.414   1.209  20.636  0.00  0.00    +0.000 HD
ENDBRANCH   8  10
ENDBRANCH   6   8
ENDBRANCH   1   2
BRANCH   1  12
ATOM     12  C   UNL     1       4.910   5.181  16.768  0.00  0.00    +0.000 C 
BRANCH  12  13
ATOM     13  C   UNL     1       5.385   5.860  15.492  0.00  0.00    +0.000 C 
ATOM     14  O   UNL     1       5.353   7.079  15.335  0.00  0.00    +0.000 OA
BRANCH  13  19
ATOM     15  C   UNL     1       7.117   2.481  11.109  0.00  0.00    +0.000 C 
ATOM     16  C   UNL     1       6.676   3.331  12.262  0.00  0.00    +0.000 A 
ATOM     17  C   UNL     1       5.387   3.218  12.791  0.00  0.00    +0.000 A 
ATOM     18  C   UNL     1       4.981   4.040  13.845  0.00  0.00    +0.000 A 
ATOM     19  C   UNL     1       5.861   4.989  14.377  0.00  0.00    +0.000 A 
ATOM     20  C   UNL     1       7.157   5.094  13.859  0.00  0.00    +0.000 A 
ATOM     21  C   UNL     1       7.560   4.268  12.808  0.00  0.00    +0.000 A 
ENDBRANCH  13  19
ENDBRANCH  12  13
ENDBRANCH   1  12
BRANCH   1  22
ATOM     22  C   UNL     1       3.810   6.922  18.210  0.00  0.00    +0.000 C 
BRANCH  22  23
ATOM     23  C   UNL     1       2.744   8.001  18.082  0.00  0.00    +0.000 C 
ATOM     24  O   UNL     1       2.639   8.654  17.041  0.00  0.00    +0.000 OA
BRANCH  23  25
ATOM     25  C   UNL     1       1.840   8.307  19.229  0.00  0.00    +0.000 A 
ATOM     26  C   UNL     1       1.770   7.483  20.359  0.00  0.00    +0.000 A 
ATOM     27  C   UNL     1       1.011   7.873  21.466  0.00  0.00    +0.000 A 
ATOM     28  C   UNL     1       0.305   9.075  21.442  0.00  0.00    +0.000 A 
ATOM     29 CL   UNL     1      -0.558   9.584  22.838  0.00  0.00    +0.000 Cl
ATOM     30  C   UNL     1       0.314   9.870  20.299  0.00  0.00    +0.000 A 
ATOM     31  C   UNL     1       1.077   9.484  19.192  0.00  0.00    +0.000 A 
ENDBRANCH  23  25
ENDBRANCH  22  23
ENDBRANCH   1  22
TORSDOF 9
ENDMDL
