MODEL 1
REMARK VINA RESULT:      -8.5      0.000      0.000
REMARK  Name = 
REMARK  4 active torsions:
REMARK  status: ('A' for Active; 'I' for Inactive)
REMARK    1  A    between atoms: C_2  and  C_19
REMARK    2  A    between atoms: N_3  and  C_4
REMARK    3  A    between atoms: N_7  and  S_8
REMARK    4  A    between atoms: S_8  and  C_11
REMARK                            x       y       z     vdW  Elec       q    Type
REMARK                         _______ _______ _______ _____ _____    ______ ____
ROOT
ATOM      1  C   UNL     1       8.032   7.160  18.563  0.00  0.00    +0.000 A 
ATOM      2  C   UNL     1       7.972   5.903  19.226  0.00  0.00    +0.000 A 
ATOM      3  C   UNL     1       7.102   5.094  18.533  0.00  0.00    +0.000 A 
ATOM      4  N   UNL     1       6.628   5.830  17.481  0.00  0.00    +0.000 N 
ATOM      5  C   UNL     1       7.136   7.108  17.513  0.00  0.00    +0.000 A 
ENDROOT
BRANCH   1   8
ATOM      6  O   UNL     1       7.638   9.848  17.661  0.00  0.00    +0.000 OA
ATOM      7  C   UNL     1       8.577   9.523  18.386  0.00  0.00    +0.000 C 
ATOM      8  N   UNL     1       8.835   8.247  18.863  0.00  0.00    +0.000 N 
ATOM      9  H   UNL     1       9.579   8.149  19.547  0.00  0.00    +0.000 HD
BRANCH   7  10
ATOM     10  C   UNL     1       9.516  10.587  18.852  0.00  0.00    +0.000 A 
ATOM     11  C   UNL     1       9.623  10.833  20.219  0.00  0.00    +0.000 A 
ATOM     12  C   UNL     1      10.459  11.855  20.648  0.00  0.00    +0.000 A 
ATOM     13  C   UNL     1      11.154  12.600  19.700  0.00  0.00    +0.000 A 
ATOM     14  C   UNL     1      10.998  12.274  18.359  0.00  0.00    +0.000 A 
ATOM     15  N   UNL     1      10.205  11.277  17.902  0.00  0.00    +0.000 NA
ENDBRANCH   7  10
ENDBRANCH   1   8
BRANCH   4  16
ATOM     16  S   UNL     1       5.684   5.168  16.230  0.00  0.00    +0.000 S 
ATOM     17  O   UNL     1       5.252   6.308  15.438  0.00  0.00    +0.000 OA
ATOM     18  O   UNL     1       6.468   4.087  15.656  0.00  0.00    +0.000 OA
BRANCH  16  19
ATOM     19  C   UNL     1       4.249   4.477  17.023  0.00  0.00    +0.000 A 
ATOM     20  C   UNL     1       3.258   5.319  17.520  0.00  0.00    +0.000 A 
ATOM     21  C   UNL     1       2.152   4.732  18.135  0.00  0.00    +0.000 A 
ATOM     22  C   UNL     1       2.079   3.344  18.225  0.00  0.00    +0.000 A 
ATOM     23 CL   UNL     1       0.733   2.590  18.975  0.00  0.00    +0.000 Cl
ATOM     24  C   UNL     1       3.118   2.589  17.695  0.00  0.00    +0.000 A 
ATOM     25  N   UNL     1       4.213   3.121  17.094  0.00  0.00    +0.000 NA
ENDBRANCH  16  19
ENDBRANCH   4  16
TORSDOF 4
ENDMDL
MODEL 2
REMARK VINA RESULT:      -8.2      4.908      7.278
REMARK  Name = 
REMARK  4 active torsions:
REMARK  status: ('A' for Active; 'I' for Inactive)
REMARK    1  A    between atoms: C_2  and  C_19
REMARK    2  A    between atoms: N_3  and  C_4
REMARK    3  A    between atoms: N_7  and  S_8
REMARK    4  A    between atoms: S_8  and  C_11
REMARK                            x       y       z     vdW  Elec       q    Type
REMARK                         _______ _______ _______ _____ _____    ______ ____
ROOT
ATOM      1  C   UNL     1       1.855   5.739  20.496  0.00  0.00    +0.000 A 
ATOM      2  C   UNL     1       1.330   4.421  20.605  0.00  0.00    +0.000 A 
ATOM      3  C   UNL     1       2.187   3.563  19.957  0.00  0.00    +0.000 A 
ATOM      4  N   UNL     1       3.204   4.324  19.450  0.00  0.00    +0.000 N 
ATOM      5  C   UNL     1       2.993   5.658  19.716  0.00  0.00    +0.000 A 
ENDROOT
BRANCH   1   8
ATOM      6  O   UNL     1       1.823   8.326  19.270  0.00  0.00    +0.000 OA
ATOM      7  C   UNL     1       1.387   8.123  20.403  0.00  0.00    +0.000 C 
ATOM      8  N   UNL     1       1.369   6.904  21.063  0.00  0.00    +0.000 N 
ATOM      9  H   UNL     1       0.872   6.862  21.947  0.00  0.00    +0.000 HD
BRANCH   7  10
ATOM     10  C   UNL     1       0.772   9.266  21.143  0.00  0.00    +0.000 A 
ATOM     11  C   UNL     1       0.149   9.014  22.363  0.00  0.00    +0.000 A 
ATOM     12  C   UNL     1      -0.466  10.068  23.026  0.00  0.00    +0.000 A 
ATOM     13  C   UNL     1      -0.443  11.333  22.447  0.00  0.00    +0.000 A 
ATOM     14  C   UNL     1       0.216  11.495  21.235  0.00  0.00    +0.000 A 
ATOM     15  N   UNL     1       0.839  10.497  20.565  0.00  0.00    +0.000 NA
ENDBRANCH   7  10
ENDBRANCH   1   8
BRANCH   4  16
ATOM     16  S   UNL     1       4.606   3.662  18.750  0.00  0.00    +0.000 S 
ATOM     17  O   UNL     1       5.214   2.864  19.801  0.00  0.00    +0.000 OA
ATOM     18  O   UNL     1       4.193   3.079  17.484  0.00  0.00    +0.000 OA
BRANCH  16  19
ATOM     19  C   UNL     1       5.679   5.044  18.421  0.00  0.00    +0.000 A 
ATOM     20  C   UNL     1       6.847   5.206  19.160  0.00  0.00    +0.000 A 
ATOM     21  C   UNL     1       7.655   6.305  18.868  0.00  0.00    +0.000 A 
ATOM     22  C   UNL     1       7.271   7.184  17.859  0.00  0.00    +0.000 A 
ATOM     23 CL   UNL     1       8.243   8.545  17.474  0.00  0.00    +0.000 Cl
ATOM     24  C   UNL     1       6.088   6.934  17.174  0.00  0.00    +0.000 A 
ATOM     25  N   UNL     1       5.271   5.881  17.431  0.00  0.00    +0.000 NA
ENDBRANCH  16  19
ENDBRANCH   4  16
TORSDOF 4
ENDMDL
MODEL 3
REMARK VINA RESULT:      -8.0      4.900      7.318
REMARK  Name = 
REMARK  4 active torsions:
REMARK  status: ('A' for Active; 'I' for Inactive)
REMARK    1  A    between atoms: C_2  and  C_19
REMARK    2  A    between atoms: N_3  and  C_4
REMARK    3  A    between atoms: N_7  and  S_8
REMARK    4  A    between atoms: S_8  and  C_11
REMARK                            x       y       z     vdW  Elec       q    Type
REMARK                         _______ _______ _______ _____ _____    ______ ____
ROOT
ATOM      1  C   UNL     1       1.810   5.513  20.529  0.00  0.00    +0.000 A 
ATOM      2  C   UNL     1       1.344   4.180  20.708  0.00  0.00    +0.000 A 
ATOM      3  C   UNL     1       2.216   3.331  20.067  0.00  0.00    +0.000 A 
ATOM      4  N   UNL     1       3.184   4.112  19.497  0.00  0.00    +0.000 N 
ATOM      5  C   UNL     1       2.926   5.446  19.716  0.00  0.00    +0.000 A 
ENDROOT
BRANCH   1   8
ATOM      6  O   UNL     1       1.943   8.116  19.345  0.00  0.00    +0.000 OA
ATOM      7  C   UNL     1       1.397   7.907  20.428  0.00  0.00    +0.000 C 
ATOM      8  N   UNL     1       1.292   6.679  21.064  0.00  0.00    +0.000 N 
ATOM      9  H   UNL     1       0.712   6.636  21.896  0.00  0.00    +0.000 HD
BRANCH   7  10
ATOM     10  C   UNL     1       0.734   9.051  21.122  0.00  0.00    +0.000 A 
ATOM     11  C   UNL     1       0.628  10.268  20.454  0.00  0.00    +0.000 A 
ATOM     12  C   UNL     1       0.056  11.345  21.118  0.00  0.00    +0.000 A 
ATOM     13  C   UNL     1      -0.385  11.172  22.427  0.00  0.00    +0.000 A 
ATOM     14  C   UNL     1      -0.254   9.918  23.009  0.00  0.00    +0.000 A 
ATOM     15  N   UNL     1       0.285   8.841  22.390  0.00  0.00    +0.000 NA
ENDBRANCH   7  10
ENDBRANCH   1   8
BRANCH   4  16
ATOM     16  S   UNL     1       4.590   3.480  18.779  0.00  0.00    +0.000 S 
ATOM     17  O   UNL     1       5.248   2.725  19.833  0.00  0.00    +0.000 OA
ATOM     18  O   UNL     1       4.168   2.855  17.536  0.00  0.00    +0.000 OA
BRANCH  16  19
ATOM     19  C   UNL     1       5.610   4.887  18.394  0.00  0.00    +0.000 A 
ATOM     20  C   UNL     1       5.245   5.745  17.360  0.00  0.00    +0.000 A 
ATOM     21  C   UNL     1       6.076   6.833  17.094  0.00  0.00    +0.000 A 
ATOM     22  C   UNL     1       7.221   7.022  17.864  0.00  0.00    +0.000 A 
ATOM     23 CL   UNL     1       8.264   8.351  17.564  0.00  0.00    +0.000 Cl
ATOM     24  C   UNL     1       7.496   6.112  18.877  0.00  0.00    +0.000 A 
ATOM     25  N   UNL     1       6.718   5.037  19.165  0.00  0.00    +0.000 NA
ENDBRANCH  16  19
ENDBRANCH   4  16
TORSDOF 4
ENDMDL
MODEL 4
REMARK VINA RESULT:      -8.0      5.081      7.003
REMARK  Name = 
REMARK  4 active torsions:
REMARK  status: ('A' for Active; 'I' for Inactive)
REMARK    1  A    between atoms: C_2  and  C_19
REMARK    2  A    between atoms: N_3  and  C_4
REMARK    3  A    between atoms: N_7  and  S_8
REMARK    4  A    between atoms: S_8  and  C_11
REMARK                            x       y       z     vdW  Elec       q    Type
REMARK                         _______ _______ _______ _____ _____    ______ ____
ROOT
ATOM      1  C   UNL     1       2.682   7.375  18.177  0.00  0.00    +0.000 A 
ATOM      2  C   UNL     1       2.432   6.156  18.866  0.00  0.00    +0.000 A 
ATOM      3  C   UNL     1       3.561   5.375  18.778  0.00  0.00    +0.000 A 
ATOM      4  N   UNL     1       4.477   6.081  18.047  0.00  0.00    +0.000 N 
ATOM      5  C   UNL     1       3.943   7.276  17.622  0.00  0.00    +0.000 A 
ENDROOT
BRANCH   1   8
ATOM      6  O   UNL     1       1.454   8.773  20.352  0.00  0.00    +0.000 OA
ATOM      7  C   UNL     1       1.300   9.108  19.178  0.00  0.00    +0.000 C 
ATOM      8  N   UNL     1       1.859   8.483  18.074  0.00  0.00    +0.000 N 
ATOM      9  H   UNL     1       1.741   8.939  17.174  0.00  0.00    +0.000 HD
BRANCH   7  10
ATOM     10  C   UNL     1       0.481  10.322  18.886  0.00  0.00    +0.000 A 
ATOM     11  C   UNL     1      -0.739  10.165  18.234  0.00  0.00    +0.000 A 
ATOM     12  C   UNL     1      -1.477  11.298  17.919  0.00  0.00    +0.000 A 
ATOM     13  C   UNL     1      -0.969  12.548  18.260  0.00  0.00    +0.000 A 
ATOM     14  C   UNL     1       0.249  12.609  18.924  0.00  0.00    +0.000 A 
ATOM     15  N   UNL     1       0.990  11.528  19.261  0.00  0.00    +0.000 NA
ENDBRANCH   7  10
ENDBRANCH   1   8
BRANCH   4  16
ATOM     16  S   UNL     1       6.097   5.596  17.861  0.00  0.00    +0.000 S 
ATOM     17  O   UNL     1       6.875   6.819  17.981  0.00  0.00    +0.000 OA
ATOM     18  O   UNL     1       6.292   4.471  18.761  0.00  0.00    +0.000 OA
BRANCH  16  19
ATOM     19  C   UNL     1       6.237   5.019  16.184  0.00  0.00    +0.000 A 
ATOM     20  C   UNL     1       5.252   4.194  15.650  0.00  0.00    +0.000 A 
ATOM     21  C   UNL     1       5.406   3.764  14.332  0.00  0.00    +0.000 A 
ATOM     22  C   UNL     1       6.522   4.175  13.607  0.00  0.00    +0.000 A 
ATOM     23 CL   UNL     1       6.741   3.666  11.983  0.00  0.00    +0.000 Cl
ATOM     24  C   UNL     1       7.448   5.003  14.227  0.00  0.00    +0.000 A 
ATOM     25  N   UNL     1       7.339   5.438  15.509  0.00  0.00    +0.000 NA
ENDBRANCH  16  19
ENDBRANCH   4  16
TORSDOF 4
ENDMDL
MODEL 5
REMARK VINA RESULT:      -8.0      1.506      1.764
REMARK  Name = 
REMARK  4 active torsions:
REMARK  status: ('A' for Active; 'I' for Inactive)
REMARK    1  A    between atoms: C_2  and  C_19
REMARK    2  A    between atoms: N_3  and  C_4
REMARK    3  A    between atoms: N_7  and  S_8
REMARK    4  A    between atoms: S_8  and  C_11
REMARK                            x       y       z     vdW  Elec       q    Type
REMARK                         _______ _______ _______ _____ _____    ______ ____
ROOT
ATOM      1  C   UNL     1       7.829   8.194  17.780  0.00  0.00    +0.000 A 
ATOM      2  C   UNL     1       8.288   7.193  18.681  0.00  0.00    +0.000 A 
ATOM      3  C   UNL     1       7.554   6.051  18.463  0.00  0.00    +0.000 A 
ATOM      4  N   UNL     1       6.659   6.337  17.469  0.00  0.00    +0.000 N 
ATOM      5  C   UNL     1       6.769   7.652  17.078  0.00  0.00    +0.000 A 
ENDROOT
BRANCH   1   8
ATOM      6  O   UNL     1       9.245   9.754  19.718  0.00  0.00    +0.000 OA
ATOM      7  C   UNL     1       9.007  10.164  18.583  0.00  0.00    +0.000 C 
ATOM      8  N   UNL     1       8.329   9.470  17.592  0.00  0.00    +0.000 N 
ATOM      9  H   UNL     1       8.309   9.886  16.666  0.00  0.00    +0.000 HD
BRANCH   7  10
ATOM     10  C   UNL     1       9.525  11.508  18.189  0.00  0.00    +0.000 A 
ATOM     11  C   UNL     1      10.850  11.619  17.772  0.00  0.00    +0.000 A 
ATOM     12  C   UNL     1      11.344  12.877  17.454  0.00  0.00    +0.000 A 
ATOM     13  C   UNL     1      10.504  13.980  17.568  0.00  0.00    +0.000 A 
ATOM     14  C   UNL     1       9.193  13.773  17.977  0.00  0.00    +0.000 A 
ATOM     15  N   UNL     1       8.669  12.563  18.282  0.00  0.00    +0.000 NA
ENDBRANCH   7  10
ENDBRANCH   1   8
BRANCH   4  16
ATOM     16  S   UNL     1       5.685   5.159  16.723  0.00  0.00    +0.000 S 
ATOM     17  O   UNL     1       5.083   5.831  15.583  0.00  0.00    +0.000 OA
ATOM     18  O   UNL     1       6.520   3.979  16.565  0.00  0.00    +0.000 OA
BRANCH  16  19
ATOM     19  C   UNL     1       4.392   4.793  17.890  0.00  0.00    +0.000 A 
ATOM     20  C   UNL     1       3.193   5.498  17.840  0.00  0.00    +0.000 A 
ATOM     21  C   UNL     1       2.210   5.178  18.776  0.00  0.00    +0.000 A 
ATOM     22  C   UNL     1       2.458   4.176  19.710  0.00  0.00    +0.000 A 
ATOM     23 CL   UNL     1       1.270   3.757  20.875  0.00  0.00    +0.000 Cl
ATOM     24  C   UNL     1       3.686   3.526  19.676  0.00  0.00    +0.000 A 
ATOM     25  N   UNL     1       4.671   3.811  18.786  0.00  0.00    +0.000 NA
ENDBRANCH  16  19
ENDBRANCH   4  16
TORSDOF 4
ENDMDL
MODEL 6
REMARK VINA RESULT:      -8.0      4.799      7.262
REMARK  Name = 
REMARK  4 active torsions:
REMARK  status: ('A' for Active; 'I' for Inactive)
REMARK    1  A    between atoms: C_2  and  C_19
REMARK    2  A    between atoms: N_3  and  C_4
REMARK    3  A    between atoms: N_7  and  S_8
REMARK    4  A    between atoms: S_8  and  C_11
REMARK                            x       y       z     vdW  Elec       q    Type
REMARK                         _______ _______ _______ _____ _____    ______ ____
ROOT
ATOM      1  C   UNL     1       1.859   5.302  20.731  0.00  0.00    +0.000 A 
ATOM      2  C   UNL     1       1.628   4.006  21.270  0.00  0.00    +0.000 A 
ATOM      3  C   UNL     1       2.471   3.122  20.637  0.00  0.00    +0.000 A 
ATOM      4  N   UNL     1       3.191   3.844  19.725  0.00  0.00    +0.000 N 
ATOM      5  C   UNL     1       2.795   5.162  19.725  0.00  0.00    +0.000 A 
ENDROOT
BRANCH   1   8
ATOM      6  O   UNL     1       2.232   7.836  19.453  0.00  0.00    +0.000 OA
ATOM      7  C   UNL     1       1.524   7.694  20.449  0.00  0.00    +0.000 C 
ATOM      8  N   UNL     1       1.295   6.504  21.122  0.00  0.00    +0.000 N 
ATOM      9  H   UNL     1       0.595   6.514  21.858  0.00  0.00    +0.000 HD
BRANCH   7  10
ATOM     10  C   UNL     1       0.792   8.884  20.977  0.00  0.00    +0.000 A 
ATOM     11  C   UNL     1       0.638   9.018  22.355  0.00  0.00    +0.000 A 
ATOM     12  C   UNL     1      -0.084  10.098  22.842  0.00  0.00    +0.000 A 
ATOM     13  C   UNL     1      -0.633  11.004  21.939  0.00  0.00    +0.000 A 
ATOM     14  C   UNL     1      -0.415  10.801  20.583  0.00  0.00    +0.000 A 
ATOM     15  N   UNL     1       0.295   9.769  20.069  0.00  0.00    +0.000 NA
ENDBRANCH   7  10
ENDBRANCH   1   8
BRANCH   4  16
ATOM     16  S   UNL     1       4.507   3.204  18.858  0.00  0.00    +0.000 S 
ATOM     17  O   UNL     1       5.242   2.401  19.822  0.00  0.00    +0.000 OA
ATOM     18  O   UNL     1       3.955   2.629  17.643  0.00  0.00    +0.000 OA
BRANCH  16  19
ATOM     19  C   UNL     1       5.521   4.600  18.421  0.00  0.00    +0.000 A 
ATOM     20  C   UNL     1       5.261   5.307  17.251  0.00  0.00    +0.000 A 
ATOM     21  C   UNL     1       6.083   6.392  16.949  0.00  0.00    +0.000 A 
ATOM     22  C   UNL     1       7.117   6.727  17.820  0.00  0.00    +0.000 A 
ATOM     23 CL   UNL     1       8.146   8.057  17.478  0.00  0.00    +0.000 Cl
ATOM     24  C   UNL     1       7.293   5.963  18.966  0.00  0.00    +0.000 A 
ATOM     25  N   UNL     1       6.520   4.896  19.294  0.00  0.00    +0.000 NA
ENDBRANCH  16  19
ENDBRANCH   4  16
TORSDOF 4
ENDMDL
MODEL 7
REMARK VINA RESULT:      -7.9      5.297      6.650
REMARK  Name = 
REMARK  4 active torsions:
REMARK  status: ('A' for Active; 'I' for Inactive)
REMARK    1  A    between atoms: C_2  and  C_19
REMARK    2  A    between atoms: N_3  and  C_4
REMARK    3  A    between atoms: N_7  and  S_8
REMARK    4  A    between atoms: S_8  and  C_11
REMARK                            x       y       z     vdW  Elec       q    Type
REMARK                         _______ _______ _______ _____ _____    ______ ____
ROOT
ATOM      1  C   UNL     1       2.436   6.801  19.609  0.00  0.00    +0.000 A 
ATOM      2  C   UNL     1       1.857   5.553  19.974  0.00  0.00    +0.000 A 
ATOM      3  C   UNL     1       2.805   4.573  19.798  0.00  0.00    +0.000 A 
ATOM      4  N   UNL     1       3.932   5.189  19.327  0.00  0.00    +0.000 N 
ATOM      5  C   UNL     1       3.712   6.536  19.150  0.00  0.00    +0.000 A 
ENDROOT
BRANCH   1   8
ATOM      6  O   UNL     1       2.091   8.654  17.455  0.00  0.00    +0.000 OA
ATOM      7  C   UNL     1       1.744   8.905  18.608  0.00  0.00    +0.000 C 
ATOM      8  N   UNL     1       1.877   8.063  19.701  0.00  0.00    +0.000 N 
ATOM      9  H   UNL     1       1.440   8.356  20.569  0.00  0.00    +0.000 HD
BRANCH   7  10
ATOM     10  C   UNL     1       1.069  10.210  18.878  0.00  0.00    +0.000 A 
ATOM     11  C   UNL     1      -0.193  10.201  19.469  0.00  0.00    +0.000 A 
ATOM     12  C   UNL     1      -0.840  11.412  19.674  0.00  0.00    +0.000 A 
ATOM     13  C   UNL     1      -0.210  12.588  19.279  0.00  0.00    +0.000 A 
ATOM     14  C   UNL     1       1.055  12.503  18.713  0.00  0.00    +0.000 A 
ATOM     15  N   UNL     1       1.724  11.344  18.509  0.00  0.00    +0.000 NA
ENDBRANCH   7  10
ENDBRANCH   1   8
BRANCH   4  16
ATOM     16  S   UNL     1       5.429   4.398  19.165  0.00  0.00    +0.000 S 
ATOM     17  O   UNL     1       6.391   5.269  19.821  0.00  0.00    +0.000 OA
ATOM     18  O   UNL     1       5.215   3.027  19.596  0.00  0.00    +0.000 OA
BRANCH  16  19
ATOM     19  C   UNL     1       5.788   4.400  17.421  0.00  0.00    +0.000 A 
ATOM     20  C   UNL     1       4.769   4.167  16.503  0.00  0.00    +0.000 A 
ATOM     21  C   UNL     1       5.098   4.176  15.148  0.00  0.00    +0.000 A 
ATOM     22  C   UNL     1       6.415   4.420  14.768  0.00  0.00    +0.000 A 
ATOM     23 CL   UNL     1       6.854   4.439  13.109  0.00  0.00    +0.000 Cl
ATOM     24  C   UNL     1       7.361   4.646  15.760  0.00  0.00    +0.000 A 
ATOM     25  N   UNL     1       7.084   4.640  17.089  0.00  0.00    +0.000 NA
ENDBRANCH  16  19
ENDBRANCH   4  16
TORSDOF 4
ENDMDL
MODEL 8
REMARK VINA RESULT:      -7.8      1.730      2.117
REMARK  Name = 
REMARK  4 active torsions:
REMARK  status: ('A' for Active; 'I' for Inactive)
REMARK    1  A    between atoms: C_2  and  C_19
REMARK    2  A    between atoms: N_3  and  C_4
REMARK    3  A    between atoms: N_7  and  S_8
REMARK    4  A    between atoms: S_8  and  C_11
REMARK                            x       y       z     vdW  Elec       q    Type
REMARK                         _______ _______ _______ _____ _____    ______ ____
ROOT
ATOM      1  C   UNL     1       7.848   8.098  17.879  0.00  0.00    +0.000 A 
ATOM      2  C   UNL     1       8.325   7.091  18.764  0.00  0.00    +0.000 A 
ATOM      3  C   UNL     1       7.536   5.975  18.609  0.00  0.00    +0.000 A 
ATOM      4  N   UNL     1       6.592   6.284  17.669  0.00  0.00    +0.000 N 
ATOM      5  C   UNL     1       6.727   7.588  17.253  0.00  0.00    +0.000 A 
ENDROOT
BRANCH   1   8
ATOM      6  O   UNL     1       9.082   9.802  19.821  0.00  0.00    +0.000 OA
ATOM      7  C   UNL     1       8.967  10.119  18.638  0.00  0.00    +0.000 C 
ATOM      8  N   UNL     1       8.384   9.352  17.641  0.00  0.00    +0.000 N 
ATOM      9  H   UNL     1       8.464   9.690  16.687  0.00  0.00    +0.000 HD
BRANCH   7  10
ATOM     10  C   UNL     1       9.542  11.424  18.193  0.00  0.00    +0.000 A 
ATOM     11  C   UNL     1      10.884  11.472  17.823  0.00  0.00    +0.000 A 
ATOM     12  C   UNL     1      11.430  12.695  17.457  0.00  0.00    +0.000 A 
ATOM     13  C   UNL     1      10.621  13.828  17.478  0.00  0.00    +0.000 A 
ATOM     14  C   UNL     1       9.289  13.683  17.844  0.00  0.00    +0.000 A 
ATOM     15  N   UNL     1       8.717  12.507  18.194  0.00  0.00    +0.000 NA
ENDBRANCH   7  10
ENDBRANCH   1   8
BRANCH   4  16
ATOM     16  S   UNL     1       5.530   5.135  17.002  0.00  0.00    +0.000 S 
ATOM     17  O   UNL     1       4.689   5.884  16.083  0.00  0.00    +0.000 OA
ATOM     18  O   UNL     1       6.356   4.025  16.555  0.00  0.00    +0.000 OA
BRANCH  16  19
ATOM     19  C   UNL     1       4.510   4.581  18.352  0.00  0.00    +0.000 A 
ATOM     20  C   UNL     1       4.727   3.328  18.916  0.00  0.00    +0.000 A 
ATOM     21  C   UNL     1       3.902   2.937  19.970  0.00  0.00    +0.000 A 
ATOM     22  C   UNL     1       2.907   3.804  20.416  0.00  0.00    +0.000 A 
ATOM     23 CL   UNL     1       1.875   3.354  21.711  0.00  0.00    +0.000 Cl
ATOM     24  C   UNL     1       2.772   5.036  19.789  0.00  0.00    +0.000 A 
ATOM     25  N   UNL     1       3.550   5.453  18.757  0.00  0.00    +0.000 NA
ENDBRANCH  16  19
ENDBRANCH   4  16
TORSDOF 4
ENDMDL
MODEL 9
REMARK VINA RESULT:      -7.7      5.058      6.984
REMARK  Name = 
REMARK  4 active torsions:
REMARK  status: ('A' for Active; 'I' for Inactive)
REMARK    1  A    between atoms: C_2  and  C_19
REMARK    2  A    between atoms: N_3  and  C_4
REMARK    3  A    between atoms: N_7  and  S_8
REMARK    4  A    between atoms: S_8  and  C_11
REMARK                            x       y       z     vdW  Elec       q    Type
REMARK                         _______ _______ _______ _____ _____    ______ ____
ROOT
ATOM      1  C   UNL     1       2.686   7.187  18.158  0.00  0.00    +0.000 A 
ATOM      2  C   UNL     1       2.359   5.821  18.384  0.00  0.00    +0.000 A 
ATOM      3  C   UNL     1       3.494   5.070  18.185  0.00  0.00    +0.000 A 
ATOM      4  N   UNL     1       4.489   5.940  17.834  0.00  0.00    +0.000 N 
ATOM      5  C   UNL     1       4.007   7.226  17.755  0.00  0.00    +0.000 A 
ENDROOT
BRANCH   1   8
ATOM      6  O   UNL     1       1.702   8.211  20.644  0.00  0.00    +0.000 OA
ATOM      7  C   UNL     1       1.440   8.734  19.561  0.00  0.00    +0.000 C 
ATOM      8  N   UNL     1       1.877   8.299  18.320  0.00  0.00    +0.000 N 
ATOM      9  H   UNL     1       1.680   8.896  17.523  0.00  0.00    +0.000 HD
BRANCH   7  10
ATOM     10  C   UNL     1       0.619   9.981  19.555  0.00  0.00    +0.000 A 
ATOM     11  C   UNL     1       0.638  10.801  20.681  0.00  0.00    +0.000 A 
ATOM     12  C   UNL     1      -0.164  11.934  20.693  0.00  0.00    +0.000 A 
ATOM     13  C   UNL     1      -0.960  12.208  19.586  0.00  0.00    +0.000 A 
ATOM     14  C   UNL     1      -0.904  11.343  18.500  0.00  0.00    +0.000 A 
ATOM     15  N   UNL     1      -0.125  10.237  18.444  0.00  0.00    +0.000 NA
ENDBRANCH   7  10
ENDBRANCH   1   8
BRANCH   4  16
ATOM     16  S   UNL     1       6.122   5.483  17.696  0.00  0.00    +0.000 S 
ATOM     17  O   UNL     1       6.877   6.709  17.891  0.00  0.00    +0.000 OA
ATOM     18  O   UNL     1       6.297   4.327  18.560  0.00  0.00    +0.000 OA
BRANCH  16  19
ATOM     19  C   UNL     1       6.338   4.970  16.005  0.00  0.00    +0.000 A 
ATOM     20  C   UNL     1       5.430   4.086  15.427  0.00  0.00    +0.000 A 
ATOM     21  C   UNL     1       5.640   3.711  14.101  0.00  0.00    +0.000 A 
ATOM     22  C   UNL     1       6.733   4.231  13.410  0.00  0.00    +0.000 A 
ATOM     23 CL   UNL     1       7.020   3.791  11.777  0.00  0.00    +0.000 Cl
ATOM     24  C   UNL     1       7.580   5.110  14.073  0.00  0.00    +0.000 A 
ATOM     25  N   UNL     1       7.414   5.495  15.365  0.00  0.00    +0.000 NA
ENDBRANCH  16  19
ENDBRANCH   4  16
TORSDOF 4
ENDMDL
