MODEL 1
REMARK VINA RESULT:      -8.8      0.000      0.000
REMARK  Name = 
REMARK  5 active torsions:
REMARK  status: ('A' for Active; 'I' for Inactive)
REMARK    1  A    between atoms: C_1  and  C_2
REMARK    2  A    between atoms: C_7  and  C_8
REMARK    3  A    between atoms: C_11  and  O_12
REMARK    4  A    between atoms: O_12  and  C_13
REMARK    5  A    between atoms: C_13  and  C_14
REMARK                            x       y       z     vdW  Elec       q    Type
REMARK                         _______ _______ _______ _____ _____    ______ ____
ROOT
ATOM      1  C   UNL     1       6.504   4.610  15.249  0.00  0.00    +0.000 A 
ATOM      2  N   UNL     1       5.507   5.078  15.985  0.00  0.00    +0.000 NA
ATOM      3  C   UNL     1       6.012   5.237  17.256  0.00  0.00    +0.000 A 
ATOM      4  C   UNL     1       5.481   5.665  18.474  0.00  0.00    +0.000 A 
ATOM      5  N   UNL     1       6.280   5.675  19.575  0.00  0.00    +0.000 NA
ATOM      6  C   UNL     1       7.555   5.267  19.459  0.00  0.00    +0.000 A 
ATOM      7  N   UNL     1       8.297   5.257  20.621  0.00  0.00    +0.000 N 
ATOM      8  N   UNL     1       8.177   4.886  18.335  0.00  0.00    +0.000 NA
ATOM      9  C   UNL     1       7.347   4.886  17.283  0.00  0.00    +0.000 A 
ATOM     10  N   UNL     1       7.648   4.512  16.008  0.00  0.00    +0.000 N 
ATOM     11  H   UNL     1       7.898   5.895  21.293  0.00  0.00    +0.000 HD
ATOM     12  H   UNL     1       9.283   5.331  20.422  0.00  0.00    +0.000 HD
ATOM     13  H   UNL     1       8.554   4.203  15.692  0.00  0.00    +0.000 HD
ENDROOT
BRANCH   1  20
ATOM     14  C   UNL     1       8.471   5.700  13.285  0.00  0.00    +0.000 C 
ATOM     15  C   UNL     1       7.357   4.770  12.884  0.00  0.00    +0.000 A 
ATOM     16  C   UNL     1       7.236   4.403  11.532  0.00  0.00    +0.000 A 
ATOM     17  C   UNL     1       6.250   3.511  11.115  0.00  0.00    +0.000 A 
ATOM     18  C   UNL     1       5.363   2.974  12.043  0.00  0.00    +0.000 A 
ATOM     19  C   UNL     1       5.461   3.339  13.385  0.00  0.00    +0.000 A 
ATOM     20  C   UNL     1       6.449   4.239  13.828  0.00  0.00    +0.000 A 
ENDBRANCH   1  20
BRANCH   4  21
ATOM     21  O   UNL     1       4.144   6.007  18.598  0.00  0.00    +0.000 OA
BRANCH  21  22
ATOM     22  C   UNL     1       3.490   5.250  19.622  0.00  0.00    +0.000 C 
BRANCH  22  23
ATOM     23  C   UNL     1       1.993   5.078  19.284  0.00  0.00    +0.000 C 
ATOM     24  C   UNL     1       1.754   4.476  17.889  0.00  0.00    +0.000 C 
ATOM     25  C   UNL     1       2.179   3.011  17.800  0.00  0.00    +0.000 C 
ATOM     26  C   UNL     1       1.498   2.162  18.871  0.00  0.00    +0.000 C 
ATOM     27  C   UNL     1       1.681   2.738  20.272  0.00  0.00    +0.000 C 
ATOM     28  C   UNL     1       1.286   4.214  20.344  0.00  0.00    +0.000 C 
ENDBRANCH  22  23
ENDBRANCH  21  22
ENDBRANCH   4  21
TORSDOF 4
ENDMDL
MODEL 2
REMARK VINA RESULT:      -8.7      2.894      6.240
REMARK  Name = 
REMARK  5 active torsions:
REMARK  status: ('A' for Active; 'I' for Inactive)
REMARK    1  A    between atoms: C_1  and  C_2
REMARK    2  A    between atoms: C_7  and  C_8
REMARK    3  A    between atoms: C_11  and  O_12
REMARK    4  A    between atoms: O_12  and  C_13
REMARK    5  A    between atoms: C_13  and  C_14
REMARK                            x       y       z     vdW  Elec       q    Type
REMARK                         _______ _______ _______ _____ _____    ______ ____
ROOT
ATOM      1  C   UNL     1       2.918   7.436  18.103  0.00  0.00    +0.000 A 
ATOM      2  N   UNL     1       2.955   6.121  18.263  0.00  0.00    +0.000 NA
ATOM      3  C   UNL     1       4.056   5.682  17.563  0.00  0.00    +0.000 A 
ATOM      4  C   UNL     1       4.628   4.432  17.321  0.00  0.00    +0.000 A 
ATOM      5  N   UNL     1       5.738   4.354  16.538  0.00  0.00    +0.000 NA
ATOM      6  C   UNL     1       6.248   5.483  16.017  0.00  0.00    +0.000 A 
ATOM      7  N   UNL     1       7.345   5.330  15.197  0.00  0.00    +0.000 N 
ATOM      8  N   UNL     1       5.811   6.732  16.225  0.00  0.00    +0.000 NA
ATOM      9  C   UNL     1       4.714   6.754  16.993  0.00  0.00    +0.000 A 
ATOM     10  N   UNL     1       3.997   7.853  17.358  0.00  0.00    +0.000 N 
ATOM     11  H   UNL     1       7.816   4.462  15.405  0.00  0.00    +0.000 HD
ATOM     12  H   UNL     1       7.895   6.174  15.166  0.00  0.00    +0.000 HD
ATOM     13  H   UNL     1       4.221   8.803  17.104  0.00  0.00    +0.000 HD
ENDROOT
BRANCH   1  20
ATOM     14  C   UNL     1       2.059   7.336  20.961  0.00  0.00    +0.000 C 
ATOM     15  C   UNL     1       1.463   8.301  19.969  0.00  0.00    +0.000 A 
ATOM     16  C   UNL     1       0.462   9.186  20.406  0.00  0.00    +0.000 A 
ATOM     17  C   UNL     1      -0.090  10.128  19.540  0.00  0.00    +0.000 A 
ATOM     18  C   UNL     1       0.345  10.197  18.221  0.00  0.00    +0.000 A 
ATOM     19  C   UNL     1       1.327   9.316  17.768  0.00  0.00    +0.000 A 
ATOM     20  C   UNL     1       1.899   8.357  18.626  0.00  0.00    +0.000 A 
ENDBRANCH   1  20
BRANCH   4  21
ATOM     21  O   UNL     1       4.046   3.268  17.799  0.00  0.00    +0.000 OA
BRANCH  21  22
ATOM     22  C   UNL     1       4.277   3.092  19.201  0.00  0.00    +0.000 C 
BRANCH  22  23
ATOM     23  C   UNL     1       3.213   2.149  19.802  0.00  0.00    +0.000 C 
ATOM     24  C   UNL     1       2.793   2.543  21.229  0.00  0.00    +0.000 C 
ATOM     25  C   UNL     1       1.994   3.845  21.268  0.00  0.00    +0.000 C 
ATOM     26  C   UNL     1       0.775   3.784  20.351  0.00  0.00    +0.000 C 
ATOM     27  C   UNL     1       1.138   3.365  18.929  0.00  0.00    +0.000 C 
ATOM     28  C   UNL     1       1.967   2.080  18.901  0.00  0.00    +0.000 C 
ENDBRANCH  22  23
ENDBRANCH  21  22
ENDBRANCH   4  21
TORSDOF 4
ENDMDL
MODEL 3
REMARK VINA RESULT:      -8.7      0.657      1.195
REMARK  Name = 
REMARK  5 active torsions:
REMARK  status: ('A' for Active; 'I' for Inactive)
REMARK    1  A    between atoms: C_1  and  C_2
REMARK    2  A    between atoms: C_7  and  C_8
REMARK    3  A    between atoms: C_11  and  O_12
REMARK    4  A    between atoms: O_12  and  C_13
REMARK    5  A    between atoms: C_13  and  C_14
REMARK                            x       y       z     vdW  Elec       q    Type
REMARK                         _______ _______ _______ _____ _____    ______ ____
ROOT
ATOM      1  C   UNL     1       6.531   4.607  15.235  0.00  0.00    +0.000 A 
ATOM      2  N   UNL     1       5.544   5.098  15.969  0.00  0.00    +0.000 NA
ATOM      3  C   UNL     1       6.052   5.255  17.239  0.00  0.00    +0.000 A 
ATOM      4  C   UNL     1       5.530   5.700  18.454  0.00  0.00    +0.000 A 
ATOM      5  N   UNL     1       6.329   5.701  19.555  0.00  0.00    +0.000 NA
ATOM      6  C   UNL     1       7.596   5.268  19.441  0.00  0.00    +0.000 A 
ATOM      7  N   UNL     1       8.339   5.251  20.602  0.00  0.00    +0.000 N 
ATOM      8  N   UNL     1       8.210   4.869  18.319  0.00  0.00    +0.000 NA
ATOM      9  C   UNL     1       7.380   4.879  17.267  0.00  0.00    +0.000 A 
ATOM     10  N   UNL     1       7.673   4.491  15.994  0.00  0.00    +0.000 N 
ATOM     11  H   UNL     1       7.952   5.900  21.271  0.00  0.00    +0.000 HD
ATOM     12  H   UNL     1       9.325   5.305  20.403  0.00  0.00    +0.000 HD
ATOM     13  H   UNL     1       8.573   4.163  15.680  0.00  0.00    +0.000 HD
ENDROOT
BRANCH   1  20
ATOM     14  C   UNL     1       8.463   5.719  13.248  0.00  0.00    +0.000 C 
ATOM     15  C   UNL     1       7.359   4.770  12.861  0.00  0.00    +0.000 A 
ATOM     16  C   UNL     1       7.231   4.395  11.512  0.00  0.00    +0.000 A 
ATOM     17  C   UNL     1       6.255   3.486  11.109  0.00  0.00    +0.000 A 
ATOM     18  C   UNL     1       5.386   2.939  12.047  0.00  0.00    +0.000 A 
ATOM     19  C   UNL     1       5.490   3.312  13.387  0.00  0.00    +0.000 A 
ATOM     20  C   UNL     1       6.469   4.229  13.816  0.00  0.00    +0.000 A 
ENDBRANCH   1  20
BRANCH   4  21
ATOM     21  O   UNL     1       4.200   6.069  18.576  0.00  0.00    +0.000 OA
BRANCH  21  22
ATOM     22  C   UNL     1       3.536   5.343  19.617  0.00  0.00    +0.000 C 
BRANCH  22  23
ATOM     23  C   UNL     1       3.063   3.971  19.092  0.00  0.00    +0.000 C 
ATOM     24  C   UNL     1       3.518   2.796  19.976  0.00  0.00    +0.000 C 
ATOM     25  C   UNL     1       2.819   2.776  21.335  0.00  0.00    +0.000 C 
ATOM     26  C   UNL     1       1.299   2.773  21.184  0.00  0.00    +0.000 C 
ATOM     27  C   UNL     1       0.801   3.903  20.288  0.00  0.00    +0.000 C 
ATOM     28  C   UNL     1       1.531   3.937  18.944  0.00  0.00    +0.000 C 
ENDBRANCH  22  23
ENDBRANCH  21  22
ENDBRANCH   4  21
TORSDOF 4
ENDMDL
MODEL 4
REMARK VINA RESULT:      -8.5      2.933      6.403
REMARK  Name = 
REMARK  5 active torsions:
REMARK  status: ('A' for Active; 'I' for Inactive)
REMARK    1  A    between atoms: C_1  and  C_2
REMARK    2  A    between atoms: C_7  and  C_8
REMARK    3  A    between atoms: C_11  and  O_12
REMARK    4  A    between atoms: O_12  and  C_13
REMARK    5  A    between atoms: C_13  and  C_14
REMARK                            x       y       z     vdW  Elec       q    Type
REMARK                         _______ _______ _______ _____ _____    ______ ____
ROOT
ATOM      1  C   UNL     1       2.880   7.146  18.601  0.00  0.00    +0.000 A 
ATOM      2  N   UNL     1       3.049   5.834  18.674  0.00  0.00    +0.000 NA
ATOM      3  C   UNL     1       3.963   5.511  17.697  0.00  0.00    +0.000 A 
ATOM      4  C   UNL     1       4.541   4.321  17.250  0.00  0.00    +0.000 A 
ATOM      5  N   UNL     1       5.416   4.362  16.210  0.00  0.00    +0.000 NA
ATOM      6  C   UNL     1       5.696   5.546  15.640  0.00  0.00    +0.000 A 
ATOM      7  N   UNL     1       6.555   5.512  14.562  0.00  0.00    +0.000 N 
ATOM      8  N   UNL     1       5.239   6.748  16.018  0.00  0.00    +0.000 NA
ATOM      9  C   UNL     1       4.377   6.652  17.039  0.00  0.00    +0.000 A 
ATOM     10  N   UNL     1       3.701   7.676  17.632  0.00  0.00    +0.000 N 
ATOM     11  H   UNL     1       7.123   4.679  14.597  0.00  0.00    +0.000 HD
ATOM     12  H   UNL     1       7.018   6.400  14.439  0.00  0.00    +0.000 HD
ATOM     13  H   UNL     1       3.785   8.649  17.382  0.00  0.00    +0.000 HD
ENDROOT
BRANCH   1  20
ATOM     14  C   UNL     1       1.786   9.729  17.581  0.00  0.00    +0.000 C 
ATOM     15  C   UNL     1       1.464   9.199  18.954  0.00  0.00    +0.000 A 
ATOM     16  C   UNL     1       0.619   9.951  19.788  0.00  0.00    +0.000 A 
ATOM     17  C   UNL     1       0.255   9.485  21.050  0.00  0.00    +0.000 A 
ATOM     18  C   UNL     1       0.734   8.260  21.502  0.00  0.00    +0.000 A 
ATOM     19  C   UNL     1       1.586   7.508  20.692  0.00  0.00    +0.000 A 
ATOM     20  C   UNL     1       1.966   7.961  19.414  0.00  0.00    +0.000 A 
ENDBRANCH   1  20
BRANCH   4  21
ATOM     21  O   UNL     1       4.184   3.098  17.796  0.00  0.00    +0.000 OA
BRANCH  21  22
ATOM     22  C   UNL     1       4.289   3.098  19.224  0.00  0.00    +0.000 C 
BRANCH  22  23
ATOM     23  C   UNL     1       3.244   2.139  19.835  0.00  0.00    +0.000 C 
ATOM     24  C   UNL     1       2.813   2.542  21.256  0.00  0.00    +0.000 C 
ATOM     25  C   UNL     1       1.986   3.827  21.277  0.00  0.00    +0.000 C 
ATOM     26  C   UNL     1       0.770   3.729  20.359  0.00  0.00    +0.000 C 
ATOM     27  C   UNL     1       1.145   3.300  18.943  0.00  0.00    +0.000 C 
ATOM     28  C   UNL     1       2.001   2.032  18.933  0.00  0.00    +0.000 C 
ENDBRANCH  22  23
ENDBRANCH  21  22
ENDBRANCH   4  21
TORSDOF 4
ENDMDL
MODEL 5
REMARK VINA RESULT:      -8.4      5.656      7.657
REMARK  Name = 
REMARK  5 active torsions:
REMARK  status: ('A' for Active; 'I' for Inactive)
REMARK    1  A    between atoms: C_1  and  C_2
REMARK    2  A    between atoms: C_7  and  C_8
REMARK    3  A    between atoms: C_11  and  O_12
REMARK    4  A    between atoms: O_12  and  C_13
REMARK    5  A    between atoms: C_13  and  C_14
REMARK                            x       y       z     vdW  Elec       q    Type
REMARK                         _______ _______ _______ _____ _____    ______ ____
ROOT
ATOM      1  C   UNL     1       2.499   7.283  18.724  0.00  0.00    +0.000 A 
ATOM      2  N   UNL     1       1.849   8.333  18.242  0.00  0.00    +0.000 NA
ATOM      3  C   UNL     1       1.218   8.918  19.317  0.00  0.00    +0.000 A 
ATOM      4  C   UNL     1       0.378  10.022  19.476  0.00  0.00    +0.000 A 
ATOM      5  N   UNL     1      -0.102  10.312  20.715  0.00  0.00    +0.000 NA
ATOM      6  C   UNL     1       0.242   9.524  21.748  0.00  0.00    +0.000 A 
ATOM      7  N   UNL     1      -0.315   9.846  22.968  0.00  0.00    +0.000 N 
ATOM      8  N   UNL     1       1.076   8.476  21.716  0.00  0.00    +0.000 NA
ATOM      9  C   UNL     1       1.514   8.228  20.474  0.00  0.00    +0.000 A 
ATOM     10  N   UNL     1       2.337   7.213  20.089  0.00  0.00    +0.000 N 
ATOM     11  H   UNL     1      -0.590  10.817  22.979  0.00  0.00    +0.000 HD
ATOM     12  H   UNL     1       0.253   9.503  23.727  0.00  0.00    +0.000 HD
ATOM     13  H   UNL     1       2.739   6.525  20.707  0.00  0.00    +0.000 HD
ENDROOT
BRANCH   1  20
ATOM     14  C   UNL     1       1.593   4.456  18.404  0.00  0.00    +0.000 C 
ATOM     15  C   UNL     1       2.888   4.964  17.823  0.00  0.00    +0.000 A 
ATOM     16  C   UNL     1       3.702   4.071  17.105  0.00  0.00    +0.000 A 
ATOM     17  C   UNL     1       4.887   4.500  16.510  0.00  0.00    +0.000 A 
ATOM     18  C   UNL     1       5.281   5.828  16.627  0.00  0.00    +0.000 A 
ATOM     19  C   UNL     1       4.492   6.723  17.349  0.00  0.00    +0.000 A 
ATOM     20  C   UNL     1       3.291   6.311  17.958  0.00  0.00    +0.000 A 
ENDBRANCH   1  20
BRANCH   4  21
ATOM     21  O   UNL     1      -0.033  10.779  18.390  0.00  0.00    +0.000 OA
BRANCH  21  22
ATOM     22  C   UNL     1      -1.410  11.157  18.492  0.00  0.00    +0.000 C 
BRANCH  22  23
ATOM     23  C   UNL     1      -2.317  10.009  17.999  0.00  0.00    +0.000 C 
ATOM     24  C   UNL     1      -3.810  10.261  18.269  0.00  0.00    +0.000 C 
ATOM     25  C   UNL     1      -4.382  11.389  17.411  0.00  0.00    +0.000 C 
ATOM     26  C   UNL     1      -4.143  11.139  15.924  0.00  0.00    +0.000 C 
ATOM     27  C   UNL     1      -2.677  10.852  15.610  0.00  0.00    +0.000 C 
ATOM     28  C   UNL     1      -2.104   9.746  16.498  0.00  0.00    +0.000 C 
ENDBRANCH  22  23
ENDBRANCH  21  22
ENDBRANCH   4  21
TORSDOF 4
ENDMDL
MODEL 6
REMARK VINA RESULT:      -8.2      3.498      4.871
REMARK  Name = 
REMARK  5 active torsions:
REMARK  status: ('A' for Active; 'I' for Inactive)
REMARK    1  A    between atoms: C_1  and  C_2
REMARK    2  A    between atoms: C_7  and  C_8
REMARK    3  A    between atoms: C_11  and  O_12
REMARK    4  A    between atoms: O_12  and  C_13
REMARK    5  A    between atoms: C_13  and  C_14
REMARK                            x       y       z     vdW  Elec       q    Type
REMARK                         _______ _______ _______ _____ _____    ______ ____
ROOT
ATOM      1  C   UNL     1       4.641   4.519  17.593  0.00  0.00    +0.000 A 
ATOM      2  N   UNL     1       3.859   5.494  18.032  0.00  0.00    +0.000 NA
ATOM      3  C   UNL     1       3.216   4.997  19.144  0.00  0.00    +0.000 A 
ATOM      4  C   UNL     1       2.268   5.503  20.034  0.00  0.00    +0.000 A 
ATOM      5  N   UNL     1       1.815   4.706  21.039  0.00  0.00    +0.000 NA
ATOM      6  C   UNL     1       2.290   3.453  21.142  0.00  0.00    +0.000 A 
ATOM      7  N   UNL     1       1.756   2.684  22.154  0.00  0.00    +0.000 N 
ATOM      8  N   UNL     1       3.232   2.886  20.376  0.00  0.00    +0.000 NA
ATOM      9  C   UNL     1       3.638   3.708  19.399  0.00  0.00    +0.000 A 
ATOM     10  N   UNL     1       4.550   3.427  18.426  0.00  0.00    +0.000 N 
ATOM     11  H   UNL     1       1.377   3.276  22.877  0.00  0.00    +0.000 HD
ATOM     12  H   UNL     1       2.392   1.949  22.424  0.00  0.00    +0.000 HD
ATOM     13  H   UNL     1       5.052   2.558  18.334  0.00  0.00    +0.000 HD
ENDROOT
BRANCH   1  20
ATOM     14  C   UNL     1       7.401   5.652  17.701  0.00  0.00    +0.000 C 
ATOM     15  C   UNL     1       6.797   5.109  16.432  0.00  0.00    +0.000 A 
ATOM     16  C   UNL     1       7.561   5.140  15.252  0.00  0.00    +0.000 A 
ATOM     17  C   UNL     1       7.066   4.610  14.062  0.00  0.00    +0.000 A 
ATOM     18  C   UNL     1       5.796   4.045  14.029  0.00  0.00    +0.000 A 
ATOM     19  C   UNL     1       5.019   4.020  15.188  0.00  0.00    +0.000 A 
ATOM     20  C   UNL     1       5.500   4.550  16.401  0.00  0.00    +0.000 A 
ENDBRANCH   1  20
BRANCH   4  21
ATOM     21  O   UNL     1       1.728   6.769  19.871  0.00  0.00    +0.000 OA
BRANCH  21  22
ATOM     22  C   UNL     1       1.197   7.287  21.096  0.00  0.00    +0.000 C 
BRANCH  22  23
ATOM     23  C   UNL     1       1.640   8.753  21.291  0.00  0.00    +0.000 C 
ATOM     24  C   UNL     1       1.050   9.707  20.238  0.00  0.00    +0.000 C 
ATOM     25  C   UNL     1      -0.458   9.899  20.397  0.00  0.00    +0.000 C 
ATOM     26  C   UNL     1      -0.819  10.369  21.804  0.00  0.00    +0.000 C 
ATOM     27  C   UNL     1      -0.228   9.470  22.886  0.00  0.00    +0.000 C 
ATOM     28  C   UNL     1       1.275   9.255  22.700  0.00  0.00    +0.000 C 
ENDBRANCH  22  23
ENDBRANCH  21  22
ENDBRANCH   4  21
TORSDOF 4
ENDMDL
MODEL 7
REMARK VINA RESULT:      -8.0      2.627      4.081
REMARK  Name = 
REMARK  5 active torsions:
REMARK  status: ('A' for Active; 'I' for Inactive)
REMARK    1  A    between atoms: C_1  and  C_2
REMARK    2  A    between atoms: C_7  and  C_8
REMARK    3  A    between atoms: C_11  and  O_12
REMARK    4  A    between atoms: O_12  and  C_13
REMARK    5  A    between atoms: C_13  and  C_14
REMARK                            x       y       z     vdW  Elec       q    Type
REMARK                         _______ _______ _______ _____ _____    ______ ____
ROOT
ATOM      1  C   UNL     1       4.322   6.020  17.175  0.00  0.00    +0.000 A 
ATOM      2  N   UNL     1       3.786   5.388  18.209  0.00  0.00    +0.000 NA
ATOM      3  C   UNL     1       2.986   6.308  18.847  0.00  0.00    +0.000 A 
ATOM      4  C   UNL     1       2.179   6.281  19.986  0.00  0.00    +0.000 A 
ATOM      5  N   UNL     1       1.525   7.414  20.359  0.00  0.00    +0.000 NA
ATOM      6  C   UNL     1       1.680   8.528  19.623  0.00  0.00    +0.000 A 
ATOM      7  N   UNL     1       1.027   9.653  20.080  0.00  0.00    +0.000 N 
ATOM      8  N   UNL     1       2.386   8.650  18.490  0.00  0.00    +0.000 NA
ATOM      9  C   UNL     1       3.015   7.511  18.171  0.00  0.00    +0.000 A 
ATOM     10  N   UNL     1       3.845   7.310  17.110  0.00  0.00    +0.000 N 
ATOM     11  H   UNL     1       0.252   9.389  20.670  0.00  0.00    +0.000 HD
ATOM     12  H   UNL     1       0.854  10.302  19.329  0.00  0.00    +0.000 HD
ATOM     13  H   UNL     1       4.075   8.000  16.413  0.00  0.00    +0.000 HD
ENDROOT
BRANCH   1  20
ATOM     14  C   UNL     1       7.255   6.489  17.476  0.00  0.00    +0.000 C 
ATOM     15  C   UNL     1       6.673   5.709  16.326  0.00  0.00    +0.000 A 
ATOM     16  C   UNL     1       7.544   5.184  15.356  0.00  0.00    +0.000 A 
ATOM     17  C   UNL     1       7.061   4.418  14.296  0.00  0.00    +0.000 A 
ATOM     18  C   UNL     1       5.698   4.167  14.186  0.00  0.00    +0.000 A 
ATOM     19  C   UNL     1       4.819   4.693  15.133  0.00  0.00    +0.000 A 
ATOM     20  C   UNL     1       5.285   5.470  16.211  0.00  0.00    +0.000 A 
ENDBRANCH   1  20
BRANCH   4  21
ATOM     21  O   UNL     1       2.091   5.149  20.781  0.00  0.00    +0.000 OA
BRANCH  21  22
ATOM     22  C   UNL     1       0.980   4.324  20.415  0.00  0.00    +0.000 C 
BRANCH  22  23
ATOM     23  C   UNL     1       1.281   2.846  20.748  0.00  0.00    +0.000 C 
ATOM     24  C   UNL     1       1.079   1.904  19.548  0.00  0.00    +0.000 C 
ATOM     25  C   UNL     1       2.125   2.111  18.454  0.00  0.00    +0.000 C 
ATOM     26  C   UNL     1       3.544   1.980  19.002  0.00  0.00    +0.000 C 
ATOM     27  C   UNL     1       3.784   2.874  20.216  0.00  0.00    +0.000 C 
ATOM     28  C   UNL     1       2.712   2.685  21.291  0.00  0.00    +0.000 C 
ENDBRANCH  22  23
ENDBRANCH  21  22
ENDBRANCH   4  21
TORSDOF 4
ENDMDL
MODEL 8
REMARK VINA RESULT:      -8.0      3.519      4.937
REMARK  Name = 
REMARK  5 active torsions:
REMARK  status: ('A' for Active; 'I' for Inactive)
REMARK    1  A    between atoms: C_1  and  C_2
REMARK    2  A    between atoms: C_7  and  C_8
REMARK    3  A    between atoms: C_11  and  O_12
REMARK    4  A    between atoms: O_12  and  C_13
REMARK    5  A    between atoms: C_13  and  C_14
REMARK                            x       y       z     vdW  Elec       q    Type
REMARK                         _______ _______ _______ _____ _____    ______ ____
ROOT
ATOM      1  C   UNL     1       4.707   4.790  17.422  0.00  0.00    +0.000 A 
ATOM      2  N   UNL     1       4.004   5.820  17.871  0.00  0.00    +0.000 NA
ATOM      3  C   UNL     1       3.355   5.377  19.002  0.00  0.00    +0.000 A 
ATOM      4  C   UNL     1       2.466   5.954  19.909  0.00  0.00    +0.000 A 
ATOM      5  N   UNL     1       1.983   5.197  20.932  0.00  0.00    +0.000 NA
ATOM      6  C   UNL     1       2.372   3.915  21.034  0.00  0.00    +0.000 A 
ATOM      7  N   UNL     1       1.810   3.191  22.064  0.00  0.00    +0.000 N 
ATOM      8  N   UNL     1       3.254   3.279  20.251  0.00  0.00    +0.000 NA
ATOM      9  C   UNL     1       3.693   4.063  19.258  0.00  0.00    +0.000 A 
ATOM     10  N   UNL     1       4.560   3.713  18.266  0.00  0.00    +0.000 N 
ATOM     11  H   UNL     1       1.490   3.813  22.791  0.00  0.00    +0.000 HD
ATOM     12  H   UNL     1       2.400   2.416  22.326  0.00  0.00    +0.000 HD
ATOM     13  H   UNL     1       4.998   2.810  18.171  0.00  0.00    +0.000 HD
ENDROOT
BRANCH   1  20
ATOM     14  C   UNL     1       7.311   6.244  17.284  0.00  0.00    +0.000 C 
ATOM     15  C   UNL     1       6.758   5.460  16.122  0.00  0.00    +0.000 A 
ATOM     16  C   UNL     1       7.494   5.414  14.926  0.00  0.00    +0.000 A 
ATOM     17  C   UNL     1       7.049   4.667  13.837  0.00  0.00    +0.000 A 
ATOM     18  C   UNL     1       5.856   3.957  13.923  0.00  0.00    +0.000 A 
ATOM     19  C   UNL     1       5.106   4.005  15.098  0.00  0.00    +0.000 A 
ATOM     20  C   UNL     1       5.537   4.753  16.210  0.00  0.00    +0.000 A 
ENDBRANCH   1  20
BRANCH   4  21
ATOM     21  O   UNL     1       2.011   7.253  19.747  0.00  0.00    +0.000 OA
BRANCH  21  22
ATOM     22  C   UNL     1       1.554   7.818  20.982  0.00  0.00    +0.000 C 
BRANCH  22  23
ATOM     23  C   UNL     1       0.122   8.370  20.817  0.00  0.00    +0.000 C 
ATOM     24  C   UNL     1      -0.603   8.577  22.159  0.00  0.00    +0.000 C 
ATOM     25  C   UNL     1      -0.008   9.720  22.979  0.00  0.00    +0.000 C 
ATOM     26  C   UNL     1       0.025  11.024  22.184  0.00  0.00    +0.000 C 
ATOM     27  C   UNL     1       0.708  10.861  20.829  0.00  0.00    +0.000 C 
ATOM     28  C   UNL     1       0.129   9.692  20.029  0.00  0.00    +0.000 C 
ENDBRANCH  22  23
ENDBRANCH  21  22
ENDBRANCH   4  21
TORSDOF 4
ENDMDL
MODEL 9
REMARK VINA RESULT:      -8.0      3.732      7.458
REMARK  Name = 
REMARK  5 active torsions:
REMARK  status: ('A' for Active; 'I' for Inactive)
REMARK    1  A    between atoms: C_1  and  C_2
REMARK    2  A    between atoms: C_7  and  C_8
REMARK    3  A    between atoms: C_11  and  O_12
REMARK    4  A    between atoms: O_12  and  C_13
REMARK    5  A    between atoms: C_13  and  C_14
REMARK                            x       y       z     vdW  Elec       q    Type
REMARK                         _______ _______ _______ _____ _____    ______ ____
ROOT
ATOM      1  C   UNL     1       1.899   7.641  19.322  0.00  0.00    +0.000 A 
ATOM      2  N   UNL     1       2.254   6.815  18.349  0.00  0.00    +0.000 NA
ATOM      3  C   UNL     1       2.441   5.586  18.939  0.00  0.00    +0.000 A 
ATOM      4  C   UNL     1       2.831   4.327  18.478  0.00  0.00    +0.000 A 
ATOM      5  N   UNL     1       2.941   3.304  19.368  0.00  0.00    +0.000 NA
ATOM      6  C   UNL     1       2.678   3.537  20.665  0.00  0.00    +0.000 A 
ATOM      7  N   UNL     1       2.853   2.469  21.520  0.00  0.00    +0.000 N 
ATOM      8  N   UNL     1       2.251   4.687  21.204  0.00  0.00    +0.000 NA
ATOM      9  C   UNL     1       2.166   5.662  20.290  0.00  0.00    +0.000 A 
ATOM     10  N   UNL     1       1.808   6.958  20.513  0.00  0.00    +0.000 N 
ATOM     11  H   UNL     1       2.791   1.601  21.009  0.00  0.00    +0.000 HD
ATOM     12  H   UNL     1       2.291   2.575  22.351  0.00  0.00    +0.000 HD
ATOM     13  H   UNL     1       1.539   7.340  21.406  0.00  0.00    +0.000 HD
ENDROOT
BRANCH   1  20
ATOM     14  C   UNL     1       0.062   9.040  21.214  0.00  0.00    +0.000 C 
ATOM     15  C   UNL     1       0.740   9.748  20.071  0.00  0.00    +0.000 A 
ATOM     16  C   UNL     1       0.495  11.120  19.885  0.00  0.00    +0.000 A 
ATOM     17  C   UNL     1       1.132  11.832  18.870  0.00  0.00    +0.000 A 
ATOM     18  C   UNL     1       2.019  11.184  18.019  0.00  0.00    +0.000 A 
ATOM     19  C   UNL     1       2.261   9.819  18.180  0.00  0.00    +0.000 A 
ATOM     20  C   UNL     1       1.629   9.081  19.199  0.00  0.00    +0.000 A 
ENDBRANCH   1  20
BRANCH   4  21
ATOM     21  O   UNL     1       3.176   4.120  17.152  0.00  0.00    +0.000 OA
BRANCH  21  22
ATOM     22  C   UNL     1       4.532   3.683  17.015  0.00  0.00    +0.000 C 
BRANCH  22  23
ATOM     23  C   UNL     1       5.260   4.529  15.947  0.00  0.00    +0.000 C 
ATOM     24  C   UNL     1       5.046   6.042  16.128  0.00  0.00    +0.000 C 
ATOM     25  C   UNL     1       5.745   6.590  17.372  0.00  0.00    +0.000 C 
ATOM     26  C   UNL     1       7.235   6.258  17.371  0.00  0.00    +0.000 C 
ATOM     27  C   UNL     1       7.499   4.770  17.163  0.00  0.00    +0.000 C 
ATOM     28  C   UNL     1       6.768   4.222  15.936  0.00  0.00    +0.000 C 
ENDBRANCH  22  23
ENDBRANCH  21  22
ENDBRANCH   4  21
TORSDOF 4
ENDMDL
