MODEL 1
REMARK VINA RESULT:      -8.0      0.000      0.000
REMARK  Name = 
REMARK  3 active torsions:
REMARK  status: ('A' for Active; 'I' for Inactive)
REMARK    1  A    between atoms: C_1  and  C_2
REMARK    2  A    between atoms: C_5  and  C_6
REMARK    3  A    between atoms: C_16  and  C_17
REMARK                            x       y       z     vdW  Elec       q    Type
REMARK                         _______ _______ _______ _____ _____    ______ ____
ROOT
ATOM      1  C   UNL     1       4.909   4.447  16.697  0.00  0.00    +0.000 A 
ATOM      2  O   UNL     1       4.725   3.865  15.454  0.00  0.00    +0.000 OA
ATOM      3  C   UNL     1       5.641   4.120  14.469  0.00  0.00    +0.000 A 
ATOM      4  C   UNL     1       5.465   3.477  13.243  0.00  0.00    +0.000 A 
ATOM      5  C   UNL     1       6.373   3.695  12.204  0.00  0.00    +0.000 A 
ATOM      6  C   UNL     1       7.455   4.558  12.388  0.00  0.00    +0.000 A 
ATOM      7  C   UNL     1       7.629   5.204  13.611  0.00  0.00    +0.000 A 
ATOM      8  C   UNL     1       6.718   4.980  14.650  0.00  0.00    +0.000 A 
ATOM      9  C   UNL     1       6.886   5.640  15.954  0.00  0.00    +0.000 A 
ATOM     10  O   UNL     1       7.802   6.433  16.137  0.00  0.00    +0.000 OA
ATOM     11  C   UNL     1       5.909   5.294  17.018  0.00  0.00    +0.000 A 
ATOM     12  C   UNL     1       6.119   5.906  18.371  0.00  0.00    +0.000 C 
ENDROOT
BRANCH   1  17
ATOM     13  C   UNL     1       0.957   3.004  20.668  0.00  0.00    +0.000 C 
ATOM     14  C   UNL     1       1.962   3.331  19.603  0.00  0.00    +0.000 A 
ATOM     15  C   UNL     1       3.137   2.583  19.464  0.00  0.00    +0.000 A 
ATOM     16  C   UNL     1       4.090   2.932  18.501  0.00  0.00    +0.000 A 
ATOM     17  C   UNL     1       3.881   4.034  17.665  0.00  0.00    +0.000 A 
ATOM     18  C   UNL     1       2.695   4.765  17.785  0.00  0.00    +0.000 A 
ATOM     19  C   UNL     1       1.743   4.417  18.748  0.00  0.00    +0.000 A 
ENDBRANCH   1  17
TORSDOF 1
ENDMDL
MODEL 2
REMARK VINA RESULT:      -7.8      0.277      1.127
REMARK  Name = 
REMARK  3 active torsions:
REMARK  status: ('A' for Active; 'I' for Inactive)
REMARK    1  A    between atoms: C_1  and  C_2
REMARK    2  A    between atoms: C_5  and  C_6
REMARK    3  A    between atoms: C_16  and  C_17
REMARK                            x       y       z     vdW  Elec       q    Type
REMARK                         _______ _______ _______ _____ _____    ______ ____
ROOT
ATOM      1  C   UNL     1       4.893   4.481  16.564  0.00  0.00    +0.000 A 
ATOM      2  O   UNL     1       4.722   3.903  15.319  0.00  0.00    +0.000 OA
ATOM      3  C   UNL     1       5.662   4.139  14.351  0.00  0.00    +0.000 A 
ATOM      4  C   UNL     1       5.496   3.498  13.122  0.00  0.00    +0.000 A 
ATOM      5  C   UNL     1       6.428   3.698  12.101  0.00  0.00    +0.000 A 
ATOM      6  C   UNL     1       7.523   4.541  12.305  0.00  0.00    +0.000 A 
ATOM      7  C   UNL     1       7.685   5.184  13.531  0.00  0.00    +0.000 A 
ATOM      8  C   UNL     1       6.751   4.978  14.552  0.00  0.00    +0.000 A 
ATOM      9  C   UNL     1       6.907   5.635  15.859  0.00  0.00    +0.000 A 
ATOM     10  O   UNL     1       7.834   6.411  16.059  0.00  0.00    +0.000 OA
ATOM     11  C   UNL     1       5.903   5.309  16.904  0.00  0.00    +0.000 A 
ATOM     12  C   UNL     1       6.099   5.918  18.261  0.00  0.00    +0.000 C 
ENDROOT
BRANCH   1  17
ATOM     13  C   UNL     1       0.631   2.806  20.100  0.00  0.00    +0.000 C 
ATOM     14  C   UNL     1       1.759   3.276  19.229  0.00  0.00    +0.000 A 
ATOM     15  C   UNL     1       1.738   4.546  18.641  0.00  0.00    +0.000 A 
ATOM     16  C   UNL     1       2.771   4.949  17.788  0.00  0.00    +0.000 A 
ATOM     17  C   UNL     1       3.839   4.089  17.512  0.00  0.00    +0.000 A 
ATOM     18  C   UNL     1       3.875   2.830  18.122  0.00  0.00    +0.000 A 
ATOM     19  C   UNL     1       2.842   2.426  18.973  0.00  0.00    +0.000 A 
ENDBRANCH   1  17
TORSDOF 1
ENDMDL
MODEL 3
REMARK VINA RESULT:      -7.5      2.038      6.510
REMARK  Name = 
REMARK  3 active torsions:
REMARK  status: ('A' for Active; 'I' for Inactive)
REMARK    1  A    between atoms: C_1  and  C_2
REMARK    2  A    between atoms: C_5  and  C_6
REMARK    3  A    between atoms: C_16  and  C_17
REMARK                            x       y       z     vdW  Elec       q    Type
REMARK                         _______ _______ _______ _____ _____    ______ ____
ROOT
ATOM      1  C   UNL     1       4.495   4.961  17.709  0.00  0.00    +0.000 A 
ATOM      2  O   UNL     1       4.463   3.770  18.415  0.00  0.00    +0.000 OA
ATOM      3  C   UNL     1       3.670   3.690  19.528  0.00  0.00    +0.000 A 
ATOM      4  C   UNL     1       3.611   2.463  20.190  0.00  0.00    +0.000 A 
ATOM      5  C   UNL     1       2.814   2.322  21.329  0.00  0.00    +0.000 A 
ATOM      6  C   UNL     1       2.079   3.408  21.809  0.00  0.00    +0.000 A 
ATOM      7  C   UNL     1       2.142   4.636  21.151  0.00  0.00    +0.000 A 
ATOM      8  C   UNL     1       2.940   4.770  20.009  0.00  0.00    +0.000 A 
ATOM      9  C   UNL     1       3.014   6.051  19.290  0.00  0.00    +0.000 A 
ATOM     10  O   UNL     1       2.413   7.035  19.706  0.00  0.00    +0.000 OA
ATOM     11  C   UNL     1       3.834   6.086  18.052  0.00  0.00    +0.000 A 
ATOM     12  C   UNL     1       3.853   7.368  17.274  0.00  0.00    +0.000 C 
ENDROOT
BRANCH   1  17
ATOM     13  C   UNL     1       7.764   4.874  12.935  0.00  0.00    +0.000 C 
ATOM     14  C   UNL     1       6.926   4.836  14.180  0.00  0.00    +0.000 A 
ATOM     15  C   UNL     1       5.619   4.334  14.157  0.00  0.00    +0.000 A 
ATOM     16  C   UNL     1       4.832   4.354  15.313  0.00  0.00    +0.000 A 
ATOM     17  C   UNL     1       5.340   4.875  16.508  0.00  0.00    +0.000 A 
ATOM     18  C   UNL     1       6.655   5.351  16.539  0.00  0.00    +0.000 A 
ATOM     19  C   UNL     1       7.442   5.332  15.383  0.00  0.00    +0.000 A 
ENDBRANCH   1  17
TORSDOF 1
ENDMDL
MODEL 4
REMARK VINA RESULT:      -7.4      3.021      4.606
REMARK  Name = 
REMARK  3 active torsions:
REMARK  status: ('A' for Active; 'I' for Inactive)
REMARK    1  A    between atoms: C_1  and  C_2
REMARK    2  A    between atoms: C_5  and  C_6
REMARK    3  A    between atoms: C_16  and  C_17
REMARK                            x       y       z     vdW  Elec       q    Type
REMARK                         _______ _______ _______ _____ _____    ______ ____
ROOT
ATOM      1  C   UNL     1       3.106   6.236  18.039  0.00  0.00    +0.000 A 
ATOM      2  O   UNL     1       4.255   6.658  17.394  0.00  0.00    +0.000 OA
ATOM      3  C   UNL     1       4.993   5.736  16.699  0.00  0.00    +0.000 A 
ATOM      4  C   UNL     1       6.116   6.196  16.010  0.00  0.00    +0.000 A 
ATOM      5  C   UNL     1       6.902   5.301  15.280  0.00  0.00    +0.000 A 
ATOM      6  C   UNL     1       6.568   3.946  15.242  0.00  0.00    +0.000 A 
ATOM      7  C   UNL     1       5.449   3.485  15.934  0.00  0.00    +0.000 A 
ATOM      8  C   UNL     1       4.664   4.387  16.661  0.00  0.00    +0.000 A 
ATOM      9  C   UNL     1       3.471   3.928  17.389  0.00  0.00    +0.000 A 
ATOM     10  O   UNL     1       3.172   2.740  17.408  0.00  0.00    +0.000 OA
ATOM     11  C   UNL     1       2.661   4.963  18.081  0.00  0.00    +0.000 A 
ATOM     12  C   UNL     1       1.403   4.511  18.762  0.00  0.00    +0.000 C 
ENDROOT
BRANCH   1  17
ATOM     13  C   UNL     1       0.075  10.458  20.582  0.00  0.00    +0.000 C 
ATOM     14  C   UNL     1       0.910   9.400  19.921  0.00  0.00    +0.000 A 
ATOM     15  C   UNL     1       1.189   9.451  18.550  0.00  0.00    +0.000 A 
ATOM     16  C   UNL     1       1.924   8.430  17.938  0.00  0.00    +0.000 A 
ATOM     17  C   UNL     1       2.391   7.345  18.688  0.00  0.00    +0.000 A 
ATOM     18  C   UNL     1       2.136   7.308  20.064  0.00  0.00    +0.000 A 
ATOM     19  C   UNL     1       1.400   8.327  20.675  0.00  0.00    +0.000 A 
ENDBRANCH   1  17
TORSDOF 1
ENDMDL
MODEL 5
REMARK VINA RESULT:      -7.4      3.025      4.526
REMARK  Name = 
REMARK  3 active torsions:
REMARK  status: ('A' for Active; 'I' for Inactive)
REMARK    1  A    between atoms: C_1  and  C_2
REMARK    2  A    between atoms: C_5  and  C_6
REMARK    3  A    between atoms: C_16  and  C_17
REMARK                            x       y       z     vdW  Elec       q    Type
REMARK                         _______ _______ _______ _____ _____    ______ ____
ROOT
ATOM      1  C   UNL     1       3.074   6.197  18.039  0.00  0.00    +0.000 A 
ATOM      2  O   UNL     1       4.206   6.651  17.385  0.00  0.00    +0.000 OA
ATOM      3  C   UNL     1       4.972   5.747  16.699  0.00  0.00    +0.000 A 
ATOM      4  C   UNL     1       6.077   6.237  16.000  0.00  0.00    +0.000 A 
ATOM      5  C   UNL     1       6.890   5.361  15.277  0.00  0.00    +0.000 A 
ATOM      6  C   UNL     1       6.603   3.995  15.256  0.00  0.00    +0.000 A 
ATOM      7  C   UNL     1       5.503   3.504  15.957  0.00  0.00    +0.000 A 
ATOM      8  C   UNL     1       4.689   4.387  16.677  0.00  0.00    +0.000 A 
ATOM      9  C   UNL     1       3.516   3.896  17.415  0.00  0.00    +0.000 A 
ATOM     10  O   UNL     1       3.258   2.698  17.449  0.00  0.00    +0.000 OA
ATOM     11  C   UNL     1       2.673   4.910  18.098  0.00  0.00    +0.000 A 
ATOM     12  C   UNL     1       1.434   4.424  18.789  0.00  0.00    +0.000 C 
ENDROOT
BRANCH   1  17
ATOM     13  C   UNL     1       0.344  10.629  20.566  0.00  0.00    +0.000 C 
ATOM     14  C   UNL     1       1.000   9.447  19.914  0.00  0.00    +0.000 A 
ATOM     15  C   UNL     1       1.418   8.345  20.670  0.00  0.00    +0.000 A 
ATOM     16  C   UNL     1       2.076   7.273  20.056  0.00  0.00    +0.000 A 
ATOM     17  C   UNL     1       2.323   7.289  18.679  0.00  0.00    +0.000 A 
ATOM     18  C   UNL     1       1.881   8.377  17.919  0.00  0.00    +0.000 A 
ATOM     19  C   UNL     1       1.225   9.449  18.533  0.00  0.00    +0.000 A 
ENDBRANCH   1  17
TORSDOF 1
ENDMDL
MODEL 6
REMARK VINA RESULT:      -7.3      2.068      6.508
REMARK  Name = 
REMARK  3 active torsions:
REMARK  status: ('A' for Active; 'I' for Inactive)
REMARK    1  A    between atoms: C_1  and  C_2
REMARK    2  A    between atoms: C_5  and  C_6
REMARK    3  A    between atoms: C_16  and  C_17
REMARK                            x       y       z     vdW  Elec       q    Type
REMARK                         _______ _______ _______ _____ _____    ______ ____
ROOT
ATOM      1  C   UNL     1       4.373   5.071  17.778  0.00  0.00    +0.000 A 
ATOM      2  O   UNL     1       4.392   3.862  18.452  0.00  0.00    +0.000 OA
ATOM      3  C   UNL     1       3.612   3.723  19.570  0.00  0.00    +0.000 A 
ATOM      4  C   UNL     1       3.605   2.476  20.198  0.00  0.00    +0.000 A 
ATOM      5  C   UNL     1       2.823   2.276  21.339  0.00  0.00    +0.000 A 
ATOM      6  C   UNL     1       2.053   3.320  21.854  0.00  0.00    +0.000 A 
ATOM      7  C   UNL     1       2.065   4.566  21.229  0.00  0.00    +0.000 A 
ATOM      8  C   UNL     1       2.847   4.761  20.084  0.00  0.00    +0.000 A 
ATOM      9  C   UNL     1       2.866   6.063  19.400  0.00  0.00    +0.000 A 
ATOM     10  O   UNL     1       2.233   7.011  19.847  0.00  0.00    +0.000 OA
ATOM     11  C   UNL     1       3.674   6.161  18.157  0.00  0.00    +0.000 A 
ATOM     12  C   UNL     1       3.638   7.463  17.414  0.00  0.00    +0.000 C 
ENDROOT
BRANCH   1  17
ATOM     13  C   UNL     1       7.735   4.741  13.082  0.00  0.00    +0.000 C 
ATOM     14  C   UNL     1       6.853   4.886  14.286  0.00  0.00    +0.000 A 
ATOM     15  C   UNL     1       7.316   5.511  15.451  0.00  0.00    +0.000 A 
ATOM     16  C   UNL     1       6.500   5.592  16.584  0.00  0.00    +0.000 A 
ATOM     17  C   UNL     1       5.210   5.049  16.569  0.00  0.00    +0.000 A 
ATOM     18  C   UNL     1       4.737   4.449  15.397  0.00  0.00    +0.000 A 
ATOM     19  C   UNL     1       5.553   4.367  14.265  0.00  0.00    +0.000 A 
ENDBRANCH   1  17
TORSDOF 1
ENDMDL
MODEL 7
REMARK VINA RESULT:      -7.0      5.234      8.176
REMARK  Name = 
REMARK  3 active torsions:
REMARK  status: ('A' for Active; 'I' for Inactive)
REMARK    1  A    between atoms: C_1  and  C_2
REMARK    2  A    between atoms: C_5  and  C_6
REMARK    3  A    between atoms: C_16  and  C_17
REMARK                            x       y       z     vdW  Elec       q    Type
REMARK                         _______ _______ _______ _____ _____    ______ ____
ROOT
ATOM      1  C   UNL     1       1.720   7.638  20.096  0.00  0.00    +0.000 A 
ATOM      2  O   UNL     1       1.159   7.851  21.343  0.00  0.00    +0.000 OA
ATOM      3  C   UNL     1       0.526   9.041  21.583  0.00  0.00    +0.000 A 
ATOM      4  C   UNL     1      -0.081   9.209  22.828  0.00  0.00    +0.000 A 
ATOM      5  C   UNL     1      -0.746  10.402  23.125  0.00  0.00    +0.000 A 
ATOM      6  C   UNL     1      -0.802  11.427  22.179  0.00  0.00    +0.000 A 
ATOM      7  C   UNL     1      -0.191  11.261  20.937  0.00  0.00    +0.000 A 
ATOM      8  C   UNL     1       0.471  10.063  20.644  0.00  0.00    +0.000 A 
ATOM      9  C   UNL     1       1.112   9.859  19.336  0.00  0.00    +0.000 A 
ATOM     10  O   UNL     1       1.116  10.753  18.497  0.00  0.00    +0.000 OA
ATOM     11  C   UNL     1       1.736   8.534  19.088  0.00  0.00    +0.000 A 
ATOM     12  C   UNL     1       2.326   8.294  17.730  0.00  0.00    +0.000 C 
ENDROOT
BRANCH   1  17
ATOM     13  C   UNL     1       4.121   2.379  19.848  0.00  0.00    +0.000 C 
ATOM     14  C   UNL     1       3.484   3.738  19.852  0.00  0.00    +0.000 A 
ATOM     15  C   UNL     1       4.153   4.851  19.329  0.00  0.00    +0.000 A 
ATOM     16  C   UNL     1       3.569   6.121  19.387  0.00  0.00    +0.000 A 
ATOM     17  C   UNL     1       2.309   6.296  19.970  0.00  0.00    +0.000 A 
ATOM     18  C   UNL     1       1.629   5.180  20.469  0.00  0.00    +0.000 A 
ATOM     19  C   UNL     1       2.213   3.911  20.411  0.00  0.00    +0.000 A 
ENDBRANCH   1  17
TORSDOF 1
ENDMDL
MODEL 8
REMARK VINA RESULT:      -6.9      5.189      8.139
REMARK  Name = 
REMARK  3 active torsions:
REMARK  status: ('A' for Active; 'I' for Inactive)
REMARK    1  A    between atoms: C_1  and  C_2
REMARK    2  A    between atoms: C_5  and  C_6
REMARK    3  A    between atoms: C_16  and  C_17
REMARK                            x       y       z     vdW  Elec       q    Type
REMARK                         _______ _______ _______ _____ _____    ______ ____
ROOT
ATOM      1  C   UNL     1       1.744   7.568  20.136  0.00  0.00    +0.000 A 
ATOM      2  O   UNL     1       1.182   7.815  21.376  0.00  0.00    +0.000 OA
ATOM      3  C   UNL     1       0.547   9.011  21.582  0.00  0.00    +0.000 A 
ATOM      4  C   UNL     1      -0.061   9.214  22.822  0.00  0.00    +0.000 A 
ATOM      5  C   UNL     1      -0.727  10.413  23.084  0.00  0.00    +0.000 A 
ATOM      6  C   UNL     1      -0.783  11.412  22.110  0.00  0.00    +0.000 A 
ATOM      7  C   UNL     1      -0.172  11.211  20.873  0.00  0.00    +0.000 A 
ATOM      8  C   UNL     1       0.492  10.007  20.614  0.00  0.00    +0.000 A 
ATOM      9  C   UNL     1       1.134   9.767  19.313  0.00  0.00    +0.000 A 
ATOM     10  O   UNL     1       1.137  10.637  18.450  0.00  0.00    +0.000 OA
ATOM     11  C   UNL     1       1.760   8.436  19.103  0.00  0.00    +0.000 A 
ATOM     12  C   UNL     1       2.350   8.159  17.752  0.00  0.00    +0.000 C 
ENDROOT
BRANCH   1  17
ATOM     13  C   UNL     1       3.989   2.269  19.541  0.00  0.00    +0.000 C 
ATOM     14  C   UNL     1       3.421   3.642  19.756  0.00  0.00    +0.000 A 
ATOM     15  C   UNL     1       2.165   3.820  20.347  0.00  0.00    +0.000 A 
ATOM     16  C   UNL     1       1.626   5.102  20.493  0.00  0.00    +0.000 A 
ATOM     17  C   UNL     1       2.334   6.224  20.048  0.00  0.00    +0.000 A 
ATOM     18  C   UNL     1       3.602   6.049  19.481  0.00  0.00    +0.000 A 
ATOM     19  C   UNL     1       4.140   4.767  19.336  0.00  0.00    +0.000 A 
ENDBRANCH   1  17
TORSDOF 1
ENDMDL
MODEL 9
REMARK VINA RESULT:      -6.9      2.539      6.698
REMARK  Name = 
REMARK  3 active torsions:
REMARK  status: ('A' for Active; 'I' for Inactive)
REMARK    1  A    between atoms: C_1  and  C_2
REMARK    2  A    between atoms: C_5  and  C_6
REMARK    3  A    between atoms: C_16  and  C_17
REMARK                            x       y       z     vdW  Elec       q    Type
REMARK                         _______ _______ _______ _____ _____    ______ ____
ROOT
ATOM      1  C   UNL     1       4.590   4.944  18.310  0.00  0.00    +0.000 A 
ATOM      2  O   UNL     1       4.018   5.009  19.568  0.00  0.00    +0.000 OA
ATOM      3  C   UNL     1       3.025   4.119  19.883  0.00  0.00    +0.000 A 
ATOM      4  C   UNL     1       2.504   4.167  21.178  0.00  0.00    +0.000 A 
ATOM      5  C   UNL     1       1.494   3.279  21.555  0.00  0.00    +0.000 A 
ATOM      6  C   UNL     1       1.001   2.347  20.640  0.00  0.00    +0.000 A 
ATOM      7  C   UNL     1       1.518   2.303  19.346  0.00  0.00    +0.000 A 
ATOM      8  C   UNL     1       2.532   3.192  18.974  0.00  0.00    +0.000 A 
ATOM      9  C   UNL     1       3.103   3.157  17.618  0.00  0.00    +0.000 A 
ATOM     10  O   UNL     1       2.667   2.379  16.779  0.00  0.00    +0.000 OA
ATOM     11  C   UNL     1       4.219   4.094  17.330  0.00  0.00    +0.000 A 
ATOM     12  C   UNL     1       4.854   4.011  15.974  0.00  0.00    +0.000 C 
ENDROOT
BRANCH   1  17
ATOM     13  C   UNL     1       8.804   8.885  17.873  0.00  0.00    +0.000 C 
ATOM     14  C   UNL     1       7.725   7.843  17.929  0.00  0.00    +0.000 A 
ATOM     15  C   UNL     1       6.510   8.024  17.258  0.00  0.00    +0.000 A 
ATOM     16  C   UNL     1       5.494   7.068  17.363  0.00  0.00    +0.000 A 
ATOM     17  C   UNL     1       5.678   5.919  18.140  0.00  0.00    +0.000 A 
ATOM     18  C   UNL     1       6.903   5.725  18.789  0.00  0.00    +0.000 A 
ATOM     19  C   UNL     1       7.918   6.680  18.685  0.00  0.00    +0.000 A 
ENDBRANCH   1  17
TORSDOF 1
ENDMDL
