MODEL 1
REMARK VINA RESULT:      -6.5      0.000      0.000
REMARK  Name = 
REMARK  10 active torsions:
REMARK  status: ('A' for Active; 'I' for Inactive)
REMARK    1  A    between atoms: C_1  and  O_2
REMARK    2  A    between atoms: O_2  and  C_3
REMARK    3  A    between atoms: C_6  and  N_7
REMARK    4  A    between atoms: C_10  and  N_11
REMARK    5  A    between atoms: N_11  and  C_12
REMARK    6  A    between atoms: N_11  and  C_13
REMARK    7  A    between atoms: C_13  and  C_14
REMARK    8  A    between atoms: C_13  and  C_15
REMARK    9  A    between atoms: N_17  and  C_18
REMARK   10  A    between atoms: N_17  and  C_19
REMARK                            x       y       z     vdW  Elec       q    Type
REMARK                         _______ _______ _______ _____ _____    ______ ____
ROOT
ATOM      1  N   UNL     1       2.019   7.315  19.864  0.00  0.00    +0.000 N 
ATOM      2  C   UNL     1       2.936   7.533  18.746  0.00  0.00    +0.000 C 
ATOM      3  C   UNL     1       2.714   6.420  17.719  0.00  0.00    +0.000 C 
ATOM      4  C   UNL     1       2.937   5.012  18.321  0.00  0.00    +0.000 C 
ATOM      5  C   UNL     1       1.960   4.905  19.527  0.00  0.00    +0.000 C 
ATOM      6  C   UNL     1       2.175   6.025  20.546  0.00  0.00    +0.000 C 
ENDROOT
BRANCH   1  10
ATOM      7  C   UNL     1      -0.057  10.555  21.619  0.00  0.00    +0.000 A 
ATOM      8  C   UNL     1       0.213  10.535  20.256  0.00  0.00    +0.000 A 
ATOM      9  C   UNL     1       0.873   9.443  19.678  0.00  0.00    +0.000 A 
ATOM     10  C   UNL     1       1.305   8.348  20.441  0.00  0.00    +0.000 A 
ATOM     11  C   UNL     1       1.032   8.401  21.816  0.00  0.00    +0.000 A 
ATOM     12  C   UNL     1       0.362   9.486  22.403  0.00  0.00    +0.000 A 
BRANCH   7  14
ATOM     13  C   UNL     1      -1.552  12.318  21.148  0.00  0.00    +0.000 C 
ATOM     14  O   UNL     1      -0.688  11.676  22.080  0.00  0.00    +0.000 OA
ENDBRANCH   7  14
ENDBRANCH   1  10
BRANCH   4  15
ATOM     15  N   UNL     1       4.362   4.696  18.668  0.00  0.00    +0.000 NA
ATOM     16  C   UNL     1       4.440   3.425  19.408  0.00  0.00    +0.000 C 
BRANCH  15  17
ATOM     17  C   UNL     1       5.295   4.735  17.487  0.00  0.00    +0.000 C 
ATOM     18  C   UNL     1       4.678   4.201  16.180  0.00  0.00    +0.000 C 
BRANCH  17  19
ATOM     19  C   UNL     1       5.950   6.119  17.200  0.00  0.00    +0.000 C 
ATOM     20  O   UNL     1       5.587   6.816  16.245  0.00  0.00    +0.000 OA
ATOM     21  N   UNL     1       7.019   6.530  18.005  0.00  0.00    +0.000 N 
ATOM     22  C   UNL     1       7.522   5.842  19.186  0.00  0.00    +0.000 C 
ATOM     23  C   UNL     1       7.837   7.641  17.544  0.00  0.00    +0.000 C 
ENDBRANCH  17  19
ENDBRANCH  15  17
ENDBRANCH   4  15
TORSDOF 5
ENDMDL
MODEL 2
REMARK VINA RESULT:      -6.4      1.304      1.838
REMARK  Name = 
REMARK  10 active torsions:
REMARK  status: ('A' for Active; 'I' for Inactive)
REMARK    1  A    between atoms: C_1  and  O_2
REMARK    2  A    between atoms: O_2  and  C_3
REMARK    3  A    between atoms: C_6  and  N_7
REMARK    4  A    between atoms: C_10  and  N_11
REMARK    5  A    between atoms: N_11  and  C_12
REMARK    6  A    between atoms: N_11  and  C_13
REMARK    7  A    between atoms: C_13  and  C_14
REMARK    8  A    between atoms: C_13  and  C_15
REMARK    9  A    between atoms: N_17  and  C_18
REMARK   10  A    between atoms: N_17  and  C_19
REMARK                            x       y       z     vdW  Elec       q    Type
REMARK                         _______ _______ _______ _____ _____    ______ ____
ROOT
ATOM      1  N   UNL     1       1.850   6.997  20.141  0.00  0.00    +0.000 N 
ATOM      2  C   UNL     1       2.750   6.793  19.007  0.00  0.00    +0.000 C 
ATOM      3  C   UNL     1       2.223   5.617  18.182  0.00  0.00    +0.000 C 
ATOM      4  C   UNL     1       2.115   4.317  19.014  0.00  0.00    +0.000 C 
ATOM      5  C   UNL     1       1.188   4.657  20.216  0.00  0.00    +0.000 C 
ATOM      6  C   UNL     1       1.710   5.840  21.032  0.00  0.00    +0.000 C 
ENDROOT
BRANCH   1  10
ATOM      7  C   UNL     1       0.454  10.801  21.354  0.00  0.00    +0.000 A 
ATOM      8  C   UNL     1       0.643   9.782  22.280  0.00  0.00    +0.000 A 
ATOM      9  C   UNL     1       1.136   8.535  21.874  0.00  0.00    +0.000 A 
ATOM     10  C   UNL     1       1.434   8.256  20.532  0.00  0.00    +0.000 A 
ATOM     11  C   UNL     1       1.221   9.299  19.618  0.00  0.00    +0.000 A 
ATOM     12  C   UNL     1       0.738  10.554  20.016  0.00  0.00    +0.000 A 
BRANCH   7  14
ATOM     13  C   UNL     1       0.281  13.142  21.121  0.00  0.00    +0.000 C 
ATOM     14  O   UNL     1      -0.049  11.969  21.856  0.00  0.00    +0.000 OA
ENDBRANCH   7  14
ENDBRANCH   1  10
BRANCH   4  15
ATOM     15  N   UNL     1       3.430   3.718  19.416  0.00  0.00    +0.000 NA
ATOM     16  C   UNL     1       3.252   2.808  20.560  0.00  0.00    +0.000 C 
BRANCH  15  17
ATOM     17  C   UNL     1       4.175   3.075  18.277  0.00  0.00    +0.000 C 
ATOM     18  C   UNL     1       3.333   2.078  17.458  0.00  0.00    +0.000 C 
BRANCH  17  19
ATOM     19  C   UNL     1       4.874   4.062  17.295  0.00  0.00    +0.000 C 
ATOM     20  O   UNL     1       4.654   4.021  16.078  0.00  0.00    +0.000 OA
ATOM     21  N   UNL     1       5.822   4.955  17.809  0.00  0.00    +0.000 N 
ATOM     22  C   UNL     1       6.149   5.148  19.215  0.00  0.00    +0.000 C 
ATOM     23  C   UNL     1       6.704   5.632  16.871  0.00  0.00    +0.000 C 
ENDBRANCH  17  19
ENDBRANCH  15  17
ENDBRANCH   4  15
TORSDOF 5
ENDMDL
MODEL 3
REMARK VINA RESULT:      -6.4      1.449      1.753
REMARK  Name = 
REMARK  10 active torsions:
REMARK  status: ('A' for Active; 'I' for Inactive)
REMARK    1  A    between atoms: C_1  and  O_2
REMARK    2  A    between atoms: O_2  and  C_3
REMARK    3  A    between atoms: C_6  and  N_7
REMARK    4  A    between atoms: C_10  and  N_11
REMARK    5  A    between atoms: N_11  and  C_12
REMARK    6  A    between atoms: N_11  and  C_13
REMARK    7  A    between atoms: C_13  and  C_14
REMARK    8  A    between atoms: C_13  and  C_15
REMARK    9  A    between atoms: N_17  and  C_18
REMARK   10  A    between atoms: N_17  and  C_19
REMARK                            x       y       z     vdW  Elec       q    Type
REMARK                         _______ _______ _______ _____ _____    ______ ____
ROOT
ATOM      1  N   UNL     1       1.852   7.093  19.844  0.00  0.00    +0.000 N 
ATOM      2  C   UNL     1       2.760   6.741  18.753  0.00  0.00    +0.000 C 
ATOM      3  C   UNL     1       2.243   5.462  18.092  0.00  0.00    +0.000 C 
ATOM      4  C   UNL     1       2.135   4.286  19.092  0.00  0.00    +0.000 C 
ATOM      5  C   UNL     1       1.199   4.781  20.232  0.00  0.00    +0.000 C 
ATOM      6  C   UNL     1       1.711   6.067  20.882  0.00  0.00    +0.000 C 
ENDROOT
BRANCH   1  10
ATOM      7  C   UNL     1       0.683  11.107  20.485  0.00  0.00    +0.000 A 
ATOM      8  C   UNL     1       1.019  10.656  19.213  0.00  0.00    +0.000 A 
ATOM      9  C   UNL     1       1.374   9.317  19.005  0.00  0.00    +0.000 A 
ATOM     10  C   UNL     1       1.429   8.391  20.058  0.00  0.00    +0.000 A 
ATOM     11  C   UNL     1       1.098   8.877  21.332  0.00  0.00    +0.000 A 
ATOM     12  C   UNL     1       0.731  10.214  21.549  0.00  0.00    +0.000 A 
BRANCH   7  14
ATOM     13  C   UNL     1       0.280  13.128  19.337  0.00  0.00    +0.000 C 
ATOM     14  O   UNL     1       0.371  12.435  20.577  0.00  0.00    +0.000 OA
ENDBRANCH   7  14
ENDBRANCH   1  10
BRANCH   4  15
ATOM     15  N   UNL     1       3.450   3.753  19.579  0.00  0.00    +0.000 NA
ATOM     16  C   UNL     1       3.255   2.921  20.778  0.00  0.00    +0.000 C 
BRANCH  15  17
ATOM     17  C   UNL     1       4.251   3.053  18.513  0.00  0.00    +0.000 C 
ATOM     18  C   UNL     1       3.481   1.940  17.778  0.00  0.00    +0.000 C 
BRANCH  17  19
ATOM     19  C   UNL     1       4.913   3.985  17.455  0.00  0.00    +0.000 C 
ATOM     20  O   UNL     1       4.675   3.857  16.248  0.00  0.00    +0.000 OA
ATOM     21  N   UNL     1       5.847   4.932  17.892  0.00  0.00    +0.000 N 
ATOM     22  C   UNL     1       6.190   5.228  19.275  0.00  0.00    +0.000 C 
ATOM     23  C   UNL     1       6.700   5.563  16.896  0.00  0.00    +0.000 C 
ENDBRANCH  17  19
ENDBRANCH  15  17
ENDBRANCH   4  15
TORSDOF 5
ENDMDL
MODEL 4
REMARK VINA RESULT:      -6.4      2.610      8.200
REMARK  Name = 
REMARK  10 active torsions:
REMARK  status: ('A' for Active; 'I' for Inactive)
REMARK    1  A    between atoms: C_1  and  O_2
REMARK    2  A    between atoms: O_2  and  C_3
REMARK    3  A    between atoms: C_6  and  N_7
REMARK    4  A    between atoms: C_10  and  N_11
REMARK    5  A    between atoms: N_11  and  C_12
REMARK    6  A    between atoms: N_11  and  C_13
REMARK    7  A    between atoms: C_13  and  C_14
REMARK    8  A    between atoms: C_13  and  C_15
REMARK    9  A    between atoms: N_17  and  C_18
REMARK   10  A    between atoms: N_17  and  C_19
REMARK                            x       y       z     vdW  Elec       q    Type
REMARK                         _______ _______ _______ _____ _____    ______ ____
ROOT
ATOM      1  N   UNL     1       1.902   7.913  19.534  0.00  0.00    +0.000 N 
ATOM      2  C   UNL     1       1.486   8.506  20.804  0.00  0.00    +0.000 C 
ATOM      3  C   UNL     1       0.167   9.248  20.578  0.00  0.00    +0.000 C 
ATOM      4  C   UNL     1       0.289  10.346  19.494  0.00  0.00    +0.000 C 
ATOM      5  C   UNL     1       0.787   9.624  18.210  0.00  0.00    +0.000 C 
ATOM      6  C   UNL     1       2.098   8.872  18.441  0.00  0.00    +0.000 C 
ENDROOT
BRANCH   1  10
ATOM      7  C   UNL     1       3.475   3.989  19.385  0.00  0.00    +0.000 A 
ATOM      8  C   UNL     1       2.545   4.349  20.354  0.00  0.00    +0.000 A 
ATOM      9  C   UNL     1       2.006   5.642  20.376  0.00  0.00    +0.000 A 
ATOM     10  C   UNL     1       2.391   6.623  19.450  0.00  0.00    +0.000 A 
ATOM     11  C   UNL     1       3.341   6.236  18.493  0.00  0.00    +0.000 A 
ATOM     12  C   UNL     1       3.879   4.941  18.456  0.00  0.00    +0.000 A 
BRANCH   7  14
ATOM     13  C   UNL     1       3.378   1.786  18.549  0.00  0.00    +0.000 C 
ATOM     14  O   UNL     1       3.949   2.710  19.468  0.00  0.00    +0.000 OA
ENDBRANCH   7  14
ENDBRANCH   1  10
BRANCH   4  15
ATOM     15  N   UNL     1       1.128  11.526  19.888  0.00  0.00    +0.000 NA
ATOM     16  C   UNL     1       1.517  12.299  18.697  0.00  0.00    +0.000 C 
BRANCH  15  17
ATOM     17  C   UNL     1       0.503  12.384  20.955  0.00  0.00    +0.000 C 
ATOM     18  C   UNL     1       1.197  13.745  21.154  0.00  0.00    +0.000 C 
BRANCH  17  19
ATOM     19  C   UNL     1      -1.030  12.623  20.808  0.00  0.00    +0.000 C 
ATOM     20  O   UNL     1      -1.494  13.240  19.841  0.00  0.00    +0.000 OA
ATOM     21  N   UNL     1      -1.874  12.188  21.836  0.00  0.00    +0.000 N 
ATOM     22  C   UNL     1      -1.480  11.411  23.003  0.00  0.00    +0.000 C 
ATOM     23  C   UNL     1      -3.238  12.694  21.864  0.00  0.00    +0.000 C 
ENDBRANCH  17  19
ENDBRANCH  15  17
ENDBRANCH   4  15
TORSDOF 5
ENDMDL
MODEL 5
REMARK VINA RESULT:      -6.4      0.571      1.133
REMARK  Name = 
REMARK  10 active torsions:
REMARK  status: ('A' for Active; 'I' for Inactive)
REMARK    1  A    between atoms: C_1  and  O_2
REMARK    2  A    between atoms: O_2  and  C_3
REMARK    3  A    between atoms: C_6  and  N_7
REMARK    4  A    between atoms: C_10  and  N_11
REMARK    5  A    between atoms: N_11  and  C_12
REMARK    6  A    between atoms: N_11  and  C_13
REMARK    7  A    between atoms: C_13  and  C_14
REMARK    8  A    between atoms: C_13  and  C_15
REMARK    9  A    between atoms: N_17  and  C_18
REMARK   10  A    between atoms: N_17  and  C_19
REMARK                            x       y       z     vdW  Elec       q    Type
REMARK                         _______ _______ _______ _____ _____    ______ ____
ROOT
ATOM      1  N   UNL     1       2.038   7.318  19.578  0.00  0.00    +0.000 N 
ATOM      2  C   UNL     1       3.025   7.511  18.518  0.00  0.00    +0.000 C 
ATOM      3  C   UNL     1       2.888   6.360  17.518  0.00  0.00    +0.000 C 
ATOM      4  C   UNL     1       3.087   4.977  18.183  0.00  0.00    +0.000 C 
ATOM      5  C   UNL     1       2.033   4.897  19.324  0.00  0.00    +0.000 C 
ATOM      6  C   UNL     1       2.164   6.055  20.314  0.00  0.00    +0.000 C 
ENDROOT
BRANCH   1  10
ATOM      7  C   UNL     1      -0.414  10.433  21.054  0.00  0.00    +0.000 A 
ATOM      8  C   UNL     1      -0.213   9.272  21.793  0.00  0.00    +0.000 A 
ATOM      9  C   UNL     1       0.626   8.259  21.310  0.00  0.00    +0.000 A 
ATOM     10  C   UNL     1       1.273   8.359  20.069  0.00  0.00    +0.000 A 
ATOM     11  C   UNL     1       1.041   9.535  19.340  0.00  0.00    +0.000 A 
ATOM     12  C   UNL     1       0.211  10.560  19.819  0.00  0.00    +0.000 A 
BRANCH   7  14
ATOM     13  C   UNL     1      -0.988  11.696  22.962  0.00  0.00    +0.000 C 
ATOM     14  O   UNL     1      -1.265  11.346  21.610  0.00  0.00    +0.000 OA
ENDBRANCH   7  14
ENDBRANCH   1  10
BRANCH   4  15
ATOM     15  N   UNL     1       4.490   4.695  18.636  0.00  0.00    +0.000 NA
ATOM     16  C   UNL     1       4.534   3.452  19.424  0.00  0.00    +0.000 C 
BRANCH  15  17
ATOM     17  C   UNL     1       5.500   4.709  17.520  0.00  0.00    +0.000 C 
ATOM     18  C   UNL     1       4.982   4.114  16.196  0.00  0.00    +0.000 C 
BRANCH  17  19
ATOM     19  C   UNL     1       6.149   6.094  17.224  0.00  0.00    +0.000 C 
ATOM     20  O   UNL     1       5.814   6.764  16.240  0.00  0.00    +0.000 OA
ATOM     21  N   UNL     1       7.183   6.538  18.058  0.00  0.00    +0.000 N 
ATOM     22  C   UNL     1       7.649   5.884  19.273  0.00  0.00    +0.000 C 
ATOM     23  C   UNL     1       8.004   7.648  17.600  0.00  0.00    +0.000 C 
ENDBRANCH  17  19
ENDBRANCH  15  17
ENDBRANCH   4  15
TORSDOF 5
ENDMDL
MODEL 6
REMARK VINA RESULT:      -6.3      2.636      8.205
REMARK  Name = 
REMARK  10 active torsions:
REMARK  status: ('A' for Active; 'I' for Inactive)
REMARK    1  A    between atoms: C_1  and  O_2
REMARK    2  A    between atoms: O_2  and  C_3
REMARK    3  A    between atoms: C_6  and  N_7
REMARK    4  A    between atoms: C_10  and  N_11
REMARK    5  A    between atoms: N_11  and  C_12
REMARK    6  A    between atoms: N_11  and  C_13
REMARK    7  A    between atoms: C_13  and  C_14
REMARK    8  A    between atoms: C_13  and  C_15
REMARK    9  A    between atoms: N_17  and  C_18
REMARK   10  A    between atoms: N_17  and  C_19
REMARK                            x       y       z     vdW  Elec       q    Type
REMARK                         _______ _______ _______ _____ _____    ______ ____
ROOT
ATOM      1  N   UNL     1       1.855   7.997  19.511  0.00  0.00    +0.000 N 
ATOM      2  C   UNL     1       1.453   8.566  20.797  0.00  0.00    +0.000 C 
ATOM      3  C   UNL     1       0.124   9.298  20.603  0.00  0.00    +0.000 C 
ATOM      4  C   UNL     1       0.217  10.415  19.536  0.00  0.00    +0.000 C 
ATOM      5  C   UNL     1       0.703   9.718  18.233  0.00  0.00    +0.000 C 
ATOM      6  C   UNL     1       2.025   8.976  18.431  0.00  0.00    +0.000 C 
ENDROOT
BRANCH   1  10
ATOM      7  C   UNL     1       3.289   4.042  19.079  0.00  0.00    +0.000 A 
ATOM      8  C   UNL     1       3.496   4.988  18.082  0.00  0.00    +0.000 A 
ATOM      9  C   UNL     1       3.045   6.305  18.248  0.00  0.00    +0.000 A 
ATOM     10  C   UNL     1       2.355   6.714  19.399  0.00  0.00    +0.000 A 
ATOM     11  C   UNL     1       2.148   5.734  20.381  0.00  0.00    +0.000 A 
ATOM     12  C   UNL     1       2.605   4.416  20.230  0.00  0.00    +0.000 A 
BRANCH   7  14
ATOM     13  C   UNL     1       4.368   2.110  19.897  0.00  0.00    +0.000 C 
ATOM     14  O   UNL     1       3.753   2.786  18.805  0.00  0.00    +0.000 OA
ENDBRANCH   7  14
ENDBRANCH   1  10
BRANCH   4  15
ATOM     15  N   UNL     1       1.051  11.596  19.936  0.00  0.00    +0.000 NA
ATOM     16  C   UNL     1       1.439  12.375  18.749  0.00  0.00    +0.000 C 
BRANCH  15  17
ATOM     17  C   UNL     1       0.421  12.447  21.006  0.00  0.00    +0.000 C 
ATOM     18  C   UNL     1       1.114  13.807  21.217  0.00  0.00    +0.000 C 
BRANCH  17  19
ATOM     19  C   UNL     1      -1.111  12.687  20.852  0.00  0.00    +0.000 C 
ATOM     20  O   UNL     1      -1.570  13.317  19.891  0.00  0.00    +0.000 OA
ATOM     21  N   UNL     1      -1.961  12.237  21.869  0.00  0.00    +0.000 N 
ATOM     22  C   UNL     1      -1.573  11.445  23.028  0.00  0.00    +0.000 C 
ATOM     23  C   UNL     1      -3.325  12.742  21.896  0.00  0.00    +0.000 C 
ENDBRANCH  17  19
ENDBRANCH  15  17
ENDBRANCH   4  15
TORSDOF 5
ENDMDL
MODEL 7
REMARK VINA RESULT:      -6.1      2.560      8.539
REMARK  Name = 
REMARK  10 active torsions:
REMARK  status: ('A' for Active; 'I' for Inactive)
REMARK    1  A    between atoms: C_1  and  O_2
REMARK    2  A    between atoms: O_2  and  C_3
REMARK    3  A    between atoms: C_6  and  N_7
REMARK    4  A    between atoms: C_10  and  N_11
REMARK    5  A    between atoms: N_11  and  C_12
REMARK    6  A    between atoms: N_11  and  C_13
REMARK    7  A    between atoms: C_13  and  C_14
REMARK    8  A    between atoms: C_13  and  C_15
REMARK    9  A    between atoms: N_17  and  C_18
REMARK   10  A    between atoms: N_17  and  C_19
REMARK                            x       y       z     vdW  Elec       q    Type
REMARK                         _______ _______ _______ _____ _____    ______ ____
ROOT
ATOM      1  N   UNL     1       1.574   8.668  19.223  0.00  0.00    +0.000 N 
ATOM      2  C   UNL     1       1.275   9.189  20.556  0.00  0.00    +0.000 C 
ATOM      3  C   UNL     1      -0.184   9.649  20.576  0.00  0.00    +0.000 C 
ATOM      4  C   UNL     1      -0.474  10.730  19.506  0.00  0.00    +0.000 C 
ATOM      5  C   UNL     1      -0.073  10.098  18.143  0.00  0.00    +0.000 C 
ATOM      6  C   UNL     1       1.382   9.627  18.130  0.00  0.00    +0.000 C 
ENDROOT
BRANCH   1  10
ATOM      7  C   UNL     1       3.847   5.133  18.739  0.00  0.00    +0.000 A 
ATOM      8  C   UNL     1       3.026   5.308  19.848  0.00  0.00    +0.000 A 
ATOM      9  C   UNL     1       2.252   6.468  19.984  0.00  0.00    +0.000 A 
ATOM     10  C   UNL     1       2.289   7.500  19.034  0.00  0.00    +0.000 A 
ATOM     11  C   UNL     1       3.136   7.303  17.933  0.00  0.00    +0.000 A 
ATOM     12  C   UNL     1       3.907   6.140  17.782  0.00  0.00    +0.000 A 
BRANCH   7  14
ATOM     13  C   UNL     1       3.812   2.778  18.860  0.00  0.00    +0.000 C 
ATOM     14  O   UNL     1       4.570   3.974  18.717  0.00  0.00    +0.000 OA
ENDBRANCH   7  14
ENDBRANCH   1  10
BRANCH   4  15
ATOM     15  N   UNL     1       0.169  12.060  19.768  0.00  0.00    +0.000 NA
ATOM     16  C   UNL     1       0.040  12.932  18.589  0.00  0.00    +0.000 C 
BRANCH  15  17
ATOM     17  C   UNL     1      -0.307  12.723  21.033  0.00  0.00    +0.000 C 
ATOM     18  C   UNL     1       0.348  14.090  21.311  0.00  0.00    +0.000 C 
BRANCH  17  19
ATOM     19  C   UNL     1      -1.852  12.873  21.168  0.00  0.00    +0.000 C 
ATOM     20  O   UNL     1      -2.504  13.552  20.366  0.00  0.00    +0.000 OA
ATOM     21  N   UNL     1      -2.485  12.282  22.268  0.00  0.00    +0.000 N 
ATOM     22  C   UNL     1      -1.859  11.421  23.262  0.00  0.00    +0.000 C 
ATOM     23  C   UNL     1      -3.847  12.692  22.577  0.00  0.00    +0.000 C 
ENDBRANCH  17  19
ENDBRANCH  15  17
ENDBRANCH   4  15
TORSDOF 5
ENDMDL
MODEL 8
REMARK VINA RESULT:      -6.1      1.462      2.242
REMARK  Name = 
REMARK  10 active torsions:
REMARK  status: ('A' for Active; 'I' for Inactive)
REMARK    1  A    between atoms: C_1  and  O_2
REMARK    2  A    between atoms: O_2  and  C_3
REMARK    3  A    between atoms: C_6  and  N_7
REMARK    4  A    between atoms: C_10  and  N_11
REMARK    5  A    between atoms: N_11  and  C_12
REMARK    6  A    between atoms: N_11  and  C_13
REMARK    7  A    between atoms: C_13  and  C_14
REMARK    8  A    between atoms: C_13  and  C_15
REMARK    9  A    between atoms: N_17  and  C_18
REMARK   10  A    between atoms: N_17  and  C_19
REMARK                            x       y       z     vdW  Elec       q    Type
REMARK                         _______ _______ _______ _____ _____    ______ ____
ROOT
ATOM      1  N   UNL     1       1.753   7.537  20.161  0.00  0.00    +0.000 N 
ATOM      2  C   UNL     1       2.694   7.567  19.042  0.00  0.00    +0.000 C 
ATOM      3  C   UNL     1       2.423   6.351  18.153  0.00  0.00    +0.000 C 
ATOM      4  C   UNL     1       2.560   5.017  18.925  0.00  0.00    +0.000 C 
ATOM      5  C   UNL     1       1.565   5.111  20.117  0.00  0.00    +0.000 C 
ATOM      6  C   UNL     1       1.829   6.333  20.996  0.00  0.00    +0.000 C 
ENDROOT
BRANCH   1  10
ATOM      7  C   UNL     1      -0.379  10.926  21.523  0.00  0.00    +0.000 A 
ATOM      8  C   UNL     1       0.158  10.012  22.422  0.00  0.00    +0.000 A 
ATOM      9  C   UNL     1       0.891   8.910  21.963  0.00  0.00    +0.000 A 
ATOM     10  C   UNL     1       1.091   8.670  20.595  0.00  0.00    +0.000 A 
ATOM     11  C   UNL     1       0.526   9.600  19.710  0.00  0.00    +0.000 A 
ATOM     12  C   UNL     1      -0.200  10.713  20.160  0.00  0.00    +0.000 A 
BRANCH   7  14
ATOM     13  C   UNL     1      -1.958  11.588  23.145  0.00  0.00    +0.000 C 
ATOM     14  O   UNL     1      -1.089  11.953  22.078  0.00  0.00    +0.000 OA
ENDBRANCH   7  14
ENDBRANCH   1  10
BRANCH   4  15
ATOM     15  N   UNL     1       3.961   4.669  19.334  0.00  0.00    +0.000 NA
ATOM     16  C   UNL     1       4.059   3.238  19.663  0.00  0.00    +0.000 C 
BRANCH  15  17
ATOM     17  C   UNL     1       5.006   5.108  18.343  0.00  0.00    +0.000 C 
ATOM     18  C   UNL     1       6.444   5.088  18.897  0.00  0.00    +0.000 C 
BRANCH  17  19
ATOM     19  C   UNL     1       4.988   4.359  16.977  0.00  0.00    +0.000 C 
ATOM     20  O   UNL     1       4.884   3.127  16.921  0.00  0.00    +0.000 OA
ATOM     21  N   UNL     1       5.167   5.104  15.806  0.00  0.00    +0.000 N 
ATOM     22  C   UNL     1       5.253   6.555  15.713  0.00  0.00    +0.000 C 
ATOM     23  C   UNL     1       5.481   4.388  14.579  0.00  0.00    +0.000 C 
ENDBRANCH  17  19
ENDBRANCH  15  17
ENDBRANCH   4  15
TORSDOF 5
ENDMDL
MODEL 9
REMARK VINA RESULT:      -6.0      1.436      1.984
REMARK  Name = 
REMARK  10 active torsions:
REMARK  status: ('A' for Active; 'I' for Inactive)
REMARK    1  A    between atoms: C_1  and  O_2
REMARK    2  A    between atoms: O_2  and  C_3
REMARK    3  A    between atoms: C_6  and  N_7
REMARK    4  A    between atoms: C_10  and  N_11
REMARK    5  A    between atoms: N_11  and  C_12
REMARK    6  A    between atoms: N_11  and  C_13
REMARK    7  A    between atoms: C_13  and  C_14
REMARK    8  A    between atoms: C_13  and  C_15
REMARK    9  A    between atoms: N_17  and  C_18
REMARK   10  A    between atoms: N_17  and  C_19
REMARK                            x       y       z     vdW  Elec       q    Type
REMARK                         _______ _______ _______ _____ _____    ______ ____
ROOT
ATOM      1  N   UNL     1       1.788   7.382  20.083  0.00  0.00    +0.000 N 
ATOM      2  C   UNL     1       2.698   7.409  18.939  0.00  0.00    +0.000 C 
ATOM      3  C   UNL     1       2.448   6.156  18.097  0.00  0.00    +0.000 C 
ATOM      4  C   UNL     1       2.652   4.853  18.906  0.00  0.00    +0.000 C 
ATOM      5  C   UNL     1       1.685   4.950  20.121  0.00  0.00    +0.000 C 
ATOM      6  C   UNL     1       1.928   6.209  20.954  0.00  0.00    +0.000 C 
ENDROOT
BRANCH   1  10
ATOM      7  C   UNL     1      -0.211  10.883  21.363  0.00  0.00    +0.000 A 
ATOM      8  C   UNL     1       0.290  10.779  20.071  0.00  0.00    +0.000 A 
ATOM      9  C   UNL     1       0.922   9.604  19.645  0.00  0.00    +0.000 A 
ATOM     10  C   UNL     1       1.096   8.504  20.499  0.00  0.00    +0.000 A 
ATOM     11  C   UNL     1       0.594   8.642  21.801  0.00  0.00    +0.000 A 
ATOM     12  C   UNL     1      -0.051   9.811  22.234  0.00  0.00    +0.000 A 
BRANCH   7  14
ATOM     13  C   UNL     1      -1.299  12.183  23.003  0.00  0.00    +0.000 C 
ATOM     14  O   UNL     1      -0.791  12.079  21.678  0.00  0.00    +0.000 OA
ENDBRANCH   7  14
ENDBRANCH   1  10
BRANCH   4  15
ATOM     15  N   UNL     1       4.075   4.568  19.289  0.00  0.00    +0.000 NA
ATOM     16  C   UNL     1       4.248   3.138  19.592  0.00  0.00    +0.000 C 
BRANCH  15  17
ATOM     17  C   UNL     1       5.082   5.074  18.291  0.00  0.00    +0.000 C 
ATOM     18  C   UNL     1       6.527   5.117  18.824  0.00  0.00    +0.000 C 
BRANCH  17  19
ATOM     19  C   UNL     1       5.080   4.347  16.913  0.00  0.00    +0.000 C 
ATOM     20  O   UNL     1       5.028   3.113  16.838  0.00  0.00    +0.000 OA
ATOM     21  N   UNL     1       5.216   5.118  15.752  0.00  0.00    +0.000 N 
ATOM     22  C   UNL     1       5.241   6.572  15.683  0.00  0.00    +0.000 C 
ATOM     23  C   UNL     1       5.546   4.435  14.511  0.00  0.00    +0.000 C 
ENDBRANCH  17  19
ENDBRANCH  15  17
ENDBRANCH   4  15
TORSDOF 5
ENDMDL
