MODEL 1
REMARK VINA RESULT:      -6.9      0.000      0.000
REMARK  Name = 
REMARK  5 active torsions:
REMARK  status: ('A' for Active; 'I' for Inactive)
REMARK    1  A    between atoms: C_1  and  C_2
REMARK    2  A    between atoms: C_2  and  N_3
REMARK    3  A    between atoms: C_10  and  S_11
REMARK    4  A    between atoms: S_11  and  C_12
REMARK    5  A    between atoms: N_13  and  C_14
REMARK                            x       y       z     vdW  Elec       q    Type
REMARK                         _______ _______ _______ _____ _____    ______ ____
ROOT
ATOM      1  N   UNL     1       5.331   5.594  16.567  0.00  0.00    +0.000 NA
ATOM      2  C   UNL     1       4.984   4.191  16.898  0.00  0.00    +0.000 C 
ATOM      3  C   UNL     1       4.711   3.993  18.407  0.00  0.00    +0.000 C 
ATOM      4  C   UNL     1       3.787   5.066  18.876  0.00  0.00    +0.000 A 
ATOM      5  S   UNL     1       2.928   4.996  20.339  0.00  0.00    +0.000 S 
ATOM      6  C   UNL     1       2.203   6.517  20.046  0.00  0.00    +0.000 A 
ATOM      7  N   UNL     1       1.327   7.071  20.915  0.00  0.00    +0.000 NA
ATOM      8  C   UNL     1       0.861   8.233  20.572  0.00  0.00    +0.000 A 
ATOM      9  N   UNL     1       1.201   8.919  19.387  0.00  0.00    +0.000 N 
ATOM     10  C   UNL     1       2.060   8.331  18.442  0.00  0.00    +0.000 A 
ATOM     11  O   UNL     1       2.371   8.822  17.358  0.00  0.00    +0.000 OA
ATOM     12  C   UNL     1       2.610   7.052  18.849  0.00  0.00    +0.000 A 
ATOM     13  C   UNL     1       3.560   6.227  18.168  0.00  0.00    +0.000 A 
ATOM     14  C   UNL     1       4.207   6.521  16.844  0.00  0.00    +0.000 C 
ENDROOT
BRANCH   9  15
ATOM     15  C   UNL     1       0.714  10.229  19.076  0.00  0.00    +0.000 A 
ATOM     16  C   UNL     1      -0.512  10.389  18.414  0.00  0.00    +0.000 A 
ATOM     17  C   UNL     1      -0.995  11.664  18.115  0.00  0.00    +0.000 A 
ATOM     18  C   UNL     1      -0.248  12.791  18.454  0.00  0.00    +0.000 A 
ATOM     19  C   UNL     1       0.992  12.642  19.074  0.00  0.00    +0.000 A 
ATOM     20  C   UNL     1       1.474  11.368  19.379  0.00  0.00    +0.000 A 
ENDBRANCH   9  15
BRANCH   1  22
ATOM     21  C   UNL     1       5.852   4.335  14.446  0.00  0.00    +0.000 C 
ATOM     22  C   UNL     1       5.748   5.682  15.155  0.00  0.00    +0.000 C 
ENDBRANCH   1  22
BRANCH   8  23
ATOM     23  S   UNL     1      -0.348   8.959  21.645  0.00  0.00    +0.000 S 
ATOM     24  C   UNL     1       0.644   9.460  23.064  0.00  0.00    +0.000 C 
ENDBRANCH   8  23
TORSDOF 3
ENDMDL
MODEL 2
REMARK VINA RESULT:      -6.9      0.768      1.257
REMARK  Name = 
REMARK  5 active torsions:
REMARK  status: ('A' for Active; 'I' for Inactive)
REMARK    1  A    between atoms: C_1  and  C_2
REMARK    2  A    between atoms: C_2  and  N_3
REMARK    3  A    between atoms: C_10  and  S_11
REMARK    4  A    between atoms: S_11  and  C_12
REMARK    5  A    between atoms: N_13  and  C_14
REMARK                            x       y       z     vdW  Elec       q    Type
REMARK                         _______ _______ _______ _____ _____    ______ ____
ROOT
ATOM      1  N   UNL     1       4.876   5.903  16.822  0.00  0.00    +0.000 NA
ATOM      2  C   UNL     1       4.418   4.551  17.221  0.00  0.00    +0.000 C 
ATOM      3  C   UNL     1       4.136   4.449  18.738  0.00  0.00    +0.000 C 
ATOM      4  C   UNL     1       3.304   5.614  19.154  0.00  0.00    +0.000 A 
ATOM      5  S   UNL     1       2.448   5.685  20.619  0.00  0.00    +0.000 S 
ATOM      6  C   UNL     1       1.847   7.244  20.253  0.00  0.00    +0.000 A 
ATOM      7  N   UNL     1       1.022   7.908  21.093  0.00  0.00    +0.000 NA
ATOM      8  C   UNL     1       0.651   9.087  20.695  0.00  0.00    +0.000 A 
ATOM      9  N   UNL     1       1.040   9.685  19.477  0.00  0.00    +0.000 N 
ATOM     10  C   UNL     1       1.845   8.984  18.562  0.00  0.00    +0.000 A 
ATOM     11  O   UNL     1       2.190   9.395  17.456  0.00  0.00    +0.000 OA
ATOM     12  C   UNL     1       2.291   7.686  19.031  0.00  0.00    +0.000 A 
ATOM     13  C   UNL     1       3.169   6.754  18.390  0.00  0.00    +0.000 A 
ATOM     14  C   UNL     1       3.833   6.930  17.054  0.00  0.00    +0.000 C 
ENDROOT
BRANCH   9  15
ATOM     15  C   UNL     1       0.660  11.013  19.103  0.00  0.00    +0.000 A 
ATOM     16  C   UNL     1       1.508  12.095  19.380  0.00  0.00    +0.000 A 
ATOM     17  C   UNL     1       1.146  13.392  19.010  0.00  0.00    +0.000 A 
ATOM     18  C   UNL     1      -0.075  13.623  18.381  0.00  0.00    +0.000 A 
ATOM     19  C   UNL     1      -0.945  12.561  18.139  0.00  0.00    +0.000 A 
ATOM     20  C   UNL     1      -0.583  11.262  18.502  0.00  0.00    +0.000 A 
ENDBRANCH   9  15
BRANCH   1  22
ATOM     21  C   UNL     1       6.223   4.736  15.040  0.00  0.00    +0.000 C 
ATOM     22  C   UNL     1       5.294   5.889  15.407  0.00  0.00    +0.000 C 
ENDBRANCH   1  22
BRANCH   8  23
ATOM     23  S   UNL     1      -0.491   9.959  21.731  0.00  0.00    +0.000 S 
ATOM     24  C   UNL     1       0.017   9.449  23.383  0.00  0.00    +0.000 C 
ENDBRANCH   8  23
TORSDOF 3
ENDMDL
MODEL 3
REMARK VINA RESULT:      -6.2      1.669      6.973
REMARK  Name = 
REMARK  5 active torsions:
REMARK  status: ('A' for Active; 'I' for Inactive)
REMARK    1  A    between atoms: C_1  and  C_2
REMARK    2  A    between atoms: C_2  and  N_3
REMARK    3  A    between atoms: C_10  and  S_11
REMARK    4  A    between atoms: S_11  and  C_12
REMARK    5  A    between atoms: N_13  and  C_14
REMARK                            x       y       z     vdW  Elec       q    Type
REMARK                         _______ _______ _______ _____ _____    ______ ____
ROOT
ATOM      1  N   UNL     1       1.042  10.550  18.731  0.00  0.00    +0.000 NA
ATOM      2  C   UNL     1       0.783  10.689  20.184  0.00  0.00    +0.000 C 
ATOM      3  C   UNL     1       0.247   9.383  20.814  0.00  0.00    +0.000 C 
ATOM      4  C   UNL     1       1.099   8.244  20.367  0.00  0.00    +0.000 A 
ATOM      5  S   UNL     1       1.110   6.722  21.120  0.00  0.00    +0.000 S 
ATOM      6  C   UNL     1       2.280   6.129  20.023  0.00  0.00    +0.000 A 
ATOM      7  N   UNL     1       2.760   4.868  20.102  0.00  0.00    +0.000 NA
ATOM      8  C   UNL     1       3.636   4.546  19.199  0.00  0.00    +0.000 A 
ATOM      9  N   UNL     1       4.102   5.411  18.186  0.00  0.00    +0.000 N 
ATOM     10  C   UNL     1       3.663   6.745  18.127  0.00  0.00    +0.000 A 
ATOM     11  O   UNL     1       4.050   7.588  17.320  0.00  0.00    +0.000 OA
ATOM     12  C   UNL     1       2.653   7.085  19.111  0.00  0.00    +0.000 A 
ATOM     13  C   UNL     1       1.947   8.319  19.282  0.00  0.00    +0.000 A 
ATOM     14  C   UNL     1       2.111   9.561  18.452  0.00  0.00    +0.000 C 
ENDROOT
BRANCH   9  15
ATOM     15  C   UNL     1       5.023   4.998  17.170  0.00  0.00    +0.000 A 
ATOM     16  C   UNL     1       6.405   5.105  17.383  0.00  0.00    +0.000 A 
ATOM     17  C   UNL     1       7.307   4.697  16.398  0.00  0.00    +0.000 A 
ATOM     18  C   UNL     1       6.837   4.200  15.184  0.00  0.00    +0.000 A 
ATOM     19  C   UNL     1       5.466   4.130  14.945  0.00  0.00    +0.000 A 
ATOM     20  C   UNL     1       4.562   4.531  15.931  0.00  0.00    +0.000 A 
ENDBRANCH   9  15
BRANCH   1  22
ATOM     21  C   UNL     1       2.175  12.771  19.096  0.00  0.00    +0.000 C 
ATOM     22  C   UNL     1       1.382  11.866  18.158  0.00  0.00    +0.000 C 
ENDBRANCH   1  22
BRANCH   8  23
ATOM     23  S   UNL     1       4.346   2.928  19.314  0.00  0.00    +0.000 S 
ATOM     24  C   UNL     1       3.150   1.915  18.423  0.00  0.00    +0.000 C 
ENDBRANCH   8  23
TORSDOF 3
ENDMDL
MODEL 4
REMARK VINA RESULT:      -6.2      1.622      6.809
REMARK  Name = 
REMARK  5 active torsions:
REMARK  status: ('A' for Active; 'I' for Inactive)
REMARK    1  A    between atoms: C_1  and  C_2
REMARK    2  A    between atoms: C_2  and  N_3
REMARK    3  A    between atoms: C_10  and  S_11
REMARK    4  A    between atoms: S_11  and  C_12
REMARK    5  A    between atoms: N_13  and  C_14
REMARK                            x       y       z     vdW  Elec       q    Type
REMARK                         _______ _______ _______ _____ _____    ______ ____
ROOT
ATOM      1  N   UNL     1       0.808  10.611  18.747  0.00  0.00    +0.000 NA
ATOM      2  C   UNL     1       0.590  10.736  20.208  0.00  0.00    +0.000 C 
ATOM      3  C   UNL     1       0.140   9.405  20.852  0.00  0.00    +0.000 C 
ATOM      4  C   UNL     1       1.035   8.311  20.376  0.00  0.00    +0.000 A 
ATOM      5  S   UNL     1       1.147   6.792  21.125  0.00  0.00    +0.000 S 
ATOM      6  C   UNL     1       2.310   6.259  19.990  0.00  0.00    +0.000 A 
ATOM      7  N   UNL     1       2.855   5.023  20.051  0.00  0.00    +0.000 NA
ATOM      8  C   UNL     1       3.717   4.747  19.120  0.00  0.00    +0.000 A 
ATOM      9  N   UNL     1       4.106   5.634  18.094  0.00  0.00    +0.000 N 
ATOM     10  C   UNL     1       3.597   6.944  18.052  0.00  0.00    +0.000 A 
ATOM     11  O   UNL     1       3.915   7.807  17.234  0.00  0.00    +0.000 OA
ATOM     12  C   UNL     1       2.604   7.233  19.068  0.00  0.00    +0.000 A 
ATOM     13  C   UNL     1       1.843   8.429  19.265  0.00  0.00    +0.000 A 
ATOM     14  C   UNL     1       1.916   9.678  18.432  0.00  0.00    +0.000 C 
ENDROOT
BRANCH   9  15
ATOM     15  C   UNL     1       5.012   5.269  17.048  0.00  0.00    +0.000 A 
ATOM     16  C   UNL     1       4.554   4.547  15.936  0.00  0.00    +0.000 A 
ATOM     17  C   UNL     1       5.432   4.196  14.909  0.00  0.00    +0.000 A 
ATOM     18  C   UNL     1       6.779   4.542  14.993  0.00  0.00    +0.000 A 
ATOM     19  C   UNL     1       7.254   5.222  16.114  0.00  0.00    +0.000 A 
ATOM     20  C   UNL     1       6.376   5.581  17.139  0.00  0.00    +0.000 A 
ENDBRANCH   9  15
BRANCH   1  22
ATOM     21  C   UNL     1       2.532  12.352  18.157  0.00  0.00    +0.000 C 
ATOM     22  C   UNL     1       1.062  11.943  18.166  0.00  0.00    +0.000 C 
ENDBRANCH   1  22
BRANCH   8  23
ATOM     23  S   UNL     1       4.512   3.166  19.208  0.00  0.00    +0.000 S 
ATOM     24  C   UNL     1       3.273   2.069  18.493  0.00  0.00    +0.000 C 
ENDBRANCH   8  23
TORSDOF 3
ENDMDL
MODEL 5
REMARK VINA RESULT:      -6.1      1.745      6.654
REMARK  Name = 
REMARK  5 active torsions:
REMARK  status: ('A' for Active; 'I' for Inactive)
REMARK    1  A    between atoms: C_1  and  C_2
REMARK    2  A    between atoms: C_2  and  N_3
REMARK    3  A    between atoms: C_10  and  S_11
REMARK    4  A    between atoms: S_11  and  C_12
REMARK    5  A    between atoms: N_13  and  C_14
REMARK                            x       y       z     vdW  Elec       q    Type
REMARK                         _______ _______ _______ _____ _____    ______ ____
ROOT
ATOM      1  N   UNL     1       0.650  11.960  18.768  0.00  0.00    +0.000 NA
ATOM      2  C   UNL     1       0.423  12.440  20.152  0.00  0.00    +0.000 C 
ATOM      3  C   UNL     1      -0.371  11.424  21.005  0.00  0.00    +0.000 C 
ATOM      4  C   UNL     1       0.232  10.071  20.830  0.00  0.00    +0.000 A 
ATOM      5  S   UNL     1      -0.070   8.763  21.870  0.00  0.00    +0.000 S 
ATOM      6  C   UNL     1       0.956   7.738  20.965  0.00  0.00    +0.000 A 
ATOM      7  N   UNL     1       1.168   6.449  21.313  0.00  0.00    +0.000 NA
ATOM      8  C   UNL     1       1.962   5.782  20.531  0.00  0.00    +0.000 A 
ATOM      9  N   UNL     1       2.596   6.312  19.388  0.00  0.00    +0.000 N 
ATOM     10  C   UNL     1       2.439   7.667  19.046  0.00  0.00    +0.000 A 
ATOM     11  O   UNL     1       2.992   8.234  18.105  0.00  0.00    +0.000 OA
ATOM     12  C   UNL     1       1.518   8.395  19.898  0.00  0.00    +0.000 A 
ATOM     13  C   UNL     1       1.080   9.753  19.790  0.00  0.00    +0.000 A 
ATOM     14  C   UNL     1       1.495  10.742  18.738  0.00  0.00    +0.000 C 
ENDROOT
BRANCH   9  15
ATOM     15  C   UNL     1       3.415   5.526  18.514  0.00  0.00    +0.000 A 
ATOM     16  C   UNL     1       2.825   4.701  17.546  0.00  0.00    +0.000 A 
ATOM     17  C   UNL     1       3.618   3.938  16.686  0.00  0.00    +0.000 A 
ATOM     18  C   UNL     1       5.006   3.976  16.800  0.00  0.00    +0.000 A 
ATOM     19  C   UNL     1       5.602   4.760  17.787  0.00  0.00    +0.000 A 
ATOM     20  C   UNL     1       4.811   5.529  18.644  0.00  0.00    +0.000 A 
ENDBRANCH   9  15
BRANCH   1  22
ATOM     21  C   UNL     1       2.655  13.445  18.406  0.00  0.00    +0.000 C 
ATOM     22  C   UNL     1       1.253  13.037  17.960  0.00  0.00    +0.000 C 
ENDBRANCH   1  22
BRANCH   8  23
ATOM     23  S   UNL     1       2.326   4.112  20.995  0.00  0.00    +0.000 S 
ATOM     24  C   UNL     1       0.887   3.217  20.381  0.00  0.00    +0.000 C 
ENDBRANCH   8  23
TORSDOF 3
ENDMDL
MODEL 6
REMARK VINA RESULT:      -6.1      1.717      6.707
REMARK  Name = 
REMARK  5 active torsions:
REMARK  status: ('A' for Active; 'I' for Inactive)
REMARK    1  A    between atoms: C_1  and  C_2
REMARK    2  A    between atoms: C_2  and  N_3
REMARK    3  A    between atoms: C_10  and  S_11
REMARK    4  A    between atoms: S_11  and  C_12
REMARK    5  A    between atoms: N_13  and  C_14
REMARK                            x       y       z     vdW  Elec       q    Type
REMARK                         _______ _______ _______ _____ _____    ______ ____
ROOT
ATOM      1  N   UNL     1       0.552  11.899  18.905  0.00  0.00    +0.000 NA
ATOM      2  C   UNL     1       0.282  12.327  20.299  0.00  0.00    +0.000 C 
ATOM      3  C   UNL     1      -0.503  11.262  21.099  0.00  0.00    +0.000 C 
ATOM      4  C   UNL     1       0.139   9.932  20.893  0.00  0.00    +0.000 A 
ATOM      5  S   UNL     1      -0.150   8.583  21.883  0.00  0.00    +0.000 S 
ATOM      6  C   UNL     1       0.923   7.615  20.968  0.00  0.00    +0.000 A 
ATOM      7  N   UNL     1       1.161   6.321  21.278  0.00  0.00    +0.000 NA
ATOM      8  C   UNL     1       1.989   5.702  20.492  0.00  0.00    +0.000 A 
ATOM      9  N   UNL     1       2.634   6.286  19.381  0.00  0.00    +0.000 N 
ATOM     10  C   UNL     1       2.448   7.647  19.081  0.00  0.00    +0.000 A 
ATOM     11  O   UNL     1       3.006   8.260  18.172  0.00  0.00    +0.000 OA
ATOM     12  C   UNL     1       1.490   8.322  19.936  0.00  0.00    +0.000 A 
ATOM     13  C   UNL     1       1.018   9.671  19.863  0.00  0.00    +0.000 A 
ATOM     14  C   UNL     1       1.429  10.706  18.853  0.00  0.00    +0.000 C 
ENDROOT
BRANCH   9  15
ATOM     15  C   UNL     1       3.492   5.552  18.501  0.00  0.00    +0.000 A 
ATOM     16  C   UNL     1       4.884   5.690  18.593  0.00  0.00    +0.000 A 
ATOM     17  C   UNL     1       5.726   4.971  17.743  0.00  0.00    +0.000 A 
ATOM     18  C   UNL     1       5.185   4.124  16.778  0.00  0.00    +0.000 A 
ATOM     19  C   UNL     1       3.801   4.011  16.649  0.00  0.00    +0.000 A 
ATOM     20  C   UNL     1       2.958   4.725  17.503  0.00  0.00    +0.000 A 
ENDBRANCH   9  15
BRANCH   1  22
ATOM     21  C   UNL     1       2.669  13.012  18.110  0.00  0.00    +0.000 C 
ATOM     22  C   UNL     1       1.143  13.018  18.147  0.00  0.00    +0.000 C 
ENDBRANCH   1  22
BRANCH   8  23
ATOM     23  S   UNL     1       2.387   4.027  20.909  0.00  0.00    +0.000 S 
ATOM     24  C   UNL     1       1.000   3.113  20.209  0.00  0.00    +0.000 C 
ENDBRANCH   8  23
TORSDOF 3
ENDMDL
MODEL 7
REMARK VINA RESULT:      -5.8      2.729      4.169
REMARK  Name = 
REMARK  5 active torsions:
REMARK  status: ('A' for Active; 'I' for Inactive)
REMARK    1  A    between atoms: C_1  and  C_2
REMARK    2  A    between atoms: C_2  and  N_3
REMARK    3  A    between atoms: C_10  and  S_11
REMARK    4  A    between atoms: S_11  and  C_12
REMARK    5  A    between atoms: N_13  and  C_14
REMARK                            x       y       z     vdW  Elec       q    Type
REMARK                         _______ _______ _______ _____ _____    ______ ____
ROOT
ATOM      1  N   UNL     1       1.815   4.620  20.145  0.00  0.00    +0.000 NA
ATOM      2  C   UNL     1       3.212   4.531  19.655  0.00  0.00    +0.000 C 
ATOM      3  C   UNL     1       3.436   5.356  18.367  0.00  0.00    +0.000 C 
ATOM      4  C   UNL     1       2.852   6.714  18.554  0.00  0.00    +0.000 A 
ATOM      5  S   UNL     1       3.218   8.043  17.562  0.00  0.00    +0.000 S 
ATOM      6  C   UNL     1       2.180   9.065  18.457  0.00  0.00    +0.000 A 
ATOM      7  N   UNL     1       2.022  10.372  18.149  0.00  0.00    +0.000 NA
ATOM      8  C   UNL     1       1.195  11.028  18.905  0.00  0.00    +0.000 A 
ATOM      9  N   UNL     1       0.487  10.475  19.993  0.00  0.00    +0.000 N 
ATOM     10  C   UNL     1       0.687   9.135  20.368  0.00  0.00    +0.000 A 
ATOM     11  O   UNL     1       0.162   8.578  21.332  0.00  0.00    +0.000 OA
ATOM     12  C   UNL     1       1.578   8.396  19.495  0.00  0.00    +0.000 A 
ATOM     13  C   UNL     1       1.940   7.012  19.545  0.00  0.00    +0.000 A 
ATOM     14  C   UNL     1       1.457   6.001  20.547  0.00  0.00    +0.000 C 
ENDROOT
BRANCH   9  15
ATOM     15  C   UNL     1      -0.464  11.217  20.764  0.00  0.00    +0.000 A 
ATOM     16  C   UNL     1      -1.670  11.638  20.183  0.00  0.00    +0.000 A 
ATOM     17  C   UNL     1      -2.605  12.354  20.932  0.00  0.00    +0.000 A 
ATOM     18  C   UNL     1      -2.336  12.677  22.261  0.00  0.00    +0.000 A 
ATOM     19  C   UNL     1      -1.122  12.300  22.835  0.00  0.00    +0.000 A 
ATOM     20  C   UNL     1      -0.188  11.578  22.090  0.00  0.00    +0.000 A 
ENDBRANCH   9  15
BRANCH   1  22
ATOM     21  C   UNL     1       2.772   2.699  21.468  0.00  0.00    +0.000 C 
ATOM     22  C   UNL     1       1.621   3.681  21.266  0.00  0.00    +0.000 C 
ENDBRANCH   1  22
BRANCH   8  23
ATOM     23  S   UNL     1       1.018  12.761  18.582  0.00  0.00    +0.000 S 
ATOM     24  C   UNL     1       2.725  13.286  18.339  0.00  0.00    +0.000 C 
ENDBRANCH   8  23
TORSDOF 3
ENDMDL
MODEL 8
REMARK VINA RESULT:      -5.8      2.367      7.652
REMARK  Name = 
REMARK  5 active torsions:
REMARK  status: ('A' for Active; 'I' for Inactive)
REMARK    1  A    between atoms: C_1  and  C_2
REMARK    2  A    between atoms: C_2  and  N_3
REMARK    3  A    between atoms: C_10  and  S_11
REMARK    4  A    between atoms: S_11  and  C_12
REMARK    5  A    between atoms: N_13  and  C_14
REMARK                            x       y       z     vdW  Elec       q    Type
REMARK                         _______ _______ _______ _____ _____    ______ ____
ROOT
ATOM      1  N   UNL     1       0.340   9.868  21.849  0.00  0.00    +0.000 NA
ATOM      2  C   UNL     1      -0.180  10.829  20.847  0.00  0.00    +0.000 C 
ATOM      3  C   UNL     1       0.882  11.212  19.792  0.00  0.00    +0.000 C 
ATOM      4  C   UNL     1       1.533   9.968  19.288  0.00  0.00    +0.000 A 
ATOM      5  S   UNL     1       2.454   9.897  17.863  0.00  0.00    +0.000 S 
ATOM      6  C   UNL     1       2.758   8.229  18.080  0.00  0.00    +0.000 A 
ATOM      7  N   UNL     1       3.493   7.515  17.198  0.00  0.00    +0.000 NA
ATOM      8  C   UNL     1       3.653   6.260  17.491  0.00  0.00    +0.000 A 
ATOM      9  N   UNL     1       3.116   5.625  18.631  0.00  0.00    +0.000 N 
ATOM     10  C   UNL     1       2.296   6.336  19.525  0.00  0.00    +0.000 A 
ATOM     11  O   UNL     1       1.737   5.860  20.512  0.00  0.00    +0.000 OA
ATOM     12  C   UNL     1       2.156   7.746  19.216  0.00  0.00    +0.000 A 
ATOM     13  C   UNL     1       1.460   8.760  19.948  0.00  0.00    +0.000 A 
ATOM     14  C   UNL     1       0.703   8.570  21.233  0.00  0.00    +0.000 C 
ENDROOT
BRANCH   9  15
ATOM     15  C   UNL     1       3.369   4.253  18.953  0.00  0.00    +0.000 A 
ATOM     16  C   UNL     1       2.483   3.253  18.526  0.00  0.00    +0.000 A 
ATOM     17  C   UNL     1       2.728   1.912  18.829  0.00  0.00    +0.000 A 
ATOM     18  C   UNL     1       3.848   1.561  19.581  0.00  0.00    +0.000 A 
ATOM     19  C   UNL     1       4.712   2.551  20.047  0.00  0.00    +0.000 A 
ATOM     20  C   UNL     1       4.472   3.891  19.739  0.00  0.00    +0.000 A 
ENDBRANCH   9  15
BRANCH   1  22
ATOM     21  C   UNL     1      -1.470  10.928  23.248  0.00  0.00    +0.000 C 
ATOM     22  C   UNL     1      -0.656   9.679  22.921  0.00  0.00    +0.000 C 
ENDBRANCH   1  22
BRANCH   8  23
ATOM     23  S   UNL     1       4.546   5.273  16.323  0.00  0.00    +0.000 S 
ATOM     24  C   UNL     1       6.243   5.835  16.556  0.00  0.00    +0.000 C 
ENDBRANCH   8  23
TORSDOF 3
ENDMDL
MODEL 9
REMARK VINA RESULT:      -5.8      2.719      4.161
REMARK  Name = 
REMARK  5 active torsions:
REMARK  status: ('A' for Active; 'I' for Inactive)
REMARK    1  A    between atoms: C_1  and  C_2
REMARK    2  A    between atoms: C_2  and  N_3
REMARK    3  A    between atoms: C_10  and  S_11
REMARK    4  A    between atoms: S_11  and  C_12
REMARK    5  A    between atoms: N_13  and  C_14
REMARK                            x       y       z     vdW  Elec       q    Type
REMARK                         _______ _______ _______ _____ _____    ______ ____
ROOT
ATOM      1  N   UNL     1       2.028   4.634  20.258  0.00  0.00    +0.000 NA
ATOM      2  C   UNL     1       3.410   4.506  19.738  0.00  0.00    +0.000 C 
ATOM      3  C   UNL     1       3.603   5.239  18.391  0.00  0.00    +0.000 C 
ATOM      4  C   UNL     1       3.027   6.610  18.499  0.00  0.00    +0.000 A 
ATOM      5  S   UNL     1       3.370   7.866  17.409  0.00  0.00    +0.000 S 
ATOM      6  C   UNL     1       2.359   8.951  18.259  0.00  0.00    +0.000 A 
ATOM      7  N   UNL     1       2.196  10.234  17.865  0.00  0.00    +0.000 NA
ATOM      8  C   UNL     1       1.391  10.945  18.596  0.00  0.00    +0.000 A 
ATOM      9  N   UNL     1       0.711  10.471  19.738  0.00  0.00    +0.000 N 
ATOM     10  C   UNL     1       0.918   9.159  20.199  0.00  0.00    +0.000 A 
ATOM     11  O   UNL     1       0.417   8.672  21.212  0.00  0.00    +0.000 OA
ATOM     12  C   UNL     1       1.783   8.358  19.355  0.00  0.00    +0.000 A 
ATOM     13  C   UNL     1       2.143   6.979  19.491  0.00  0.00    +0.000 A 
ATOM     14  C   UNL     1       1.684   6.041  20.573  0.00  0.00    +0.000 C 
ENDROOT
BRANCH   9  15
ATOM     15  C   UNL     1      -0.217  11.268  20.481  0.00  0.00    +0.000 A 
ATOM     16  C   UNL     1       0.142  11.789  21.733  0.00  0.00    +0.000 A 
ATOM     17  C   UNL     1      -0.757  12.573  22.458  0.00  0.00    +0.000 A 
ATOM     18  C   UNL     1      -2.030  12.826  21.951  0.00  0.00    +0.000 A 
ATOM     19  C   UNL     1      -2.412  12.278  20.727  0.00  0.00    +0.000 A 
ATOM     20  C   UNL     1      -1.513  11.499  19.997  0.00  0.00    +0.000 A 
ENDBRANCH   9  15
BRANCH   1  22
ATOM     21  C   UNL     1       2.722   2.515  21.433  0.00  0.00    +0.000 C 
ATOM     22  C   UNL     1       1.861   3.775  21.446  0.00  0.00    +0.000 C 
ENDBRANCH   1  22
BRANCH   8  23
ATOM     23  S   UNL     1       1.210  12.652  18.159  0.00  0.00    +0.000 S 
ATOM     24  C   UNL     1       2.680  13.397  18.889  0.00  0.00    +0.000 C 
ENDBRANCH   8  23
TORSDOF 3
ENDMDL
