MODEL 1
REMARK VINA RESULT:      -7.9      0.000      0.000
REMARK  Name = 
REMARK  6 active torsions:
REMARK  status: ('A' for Active; 'I' for Inactive)
REMARK    1  A    between atoms: C_1  and  O_2
REMARK    2  A    between atoms: O_2  and  C_3
REMARK    3  A    between atoms: C_9  and  C_10
REMARK    4  A    between atoms: N_12  and  C_13
REMARK    5  A    between atoms: C_14  and  C_15
REMARK    6  A    between atoms: C_15  and  C_16
REMARK                            x       y       z     vdW  Elec       q    Type
REMARK                         _______ _______ _______ _____ _____    ______ ____
ROOT
ATOM      1  C   UNL     1       3.135   4.645  19.509  0.00  0.00    +0.000 C 
ATOM      2  C   UNL     1       1.890   5.541  19.730  0.00  0.00    +0.000 C 
ATOM      3  C   UNL     1       1.196   4.271  20.302  0.00  0.00    +0.000 C 
ATOM      4  O   UNL     1       1.413   3.882  21.675  0.00  0.00    +0.000 OA
ATOM      5  C   UNL     1       1.845   2.513  21.683  0.00  0.00    +0.000 C 
ATOM      6  C   UNL     1       2.509   2.253  20.328  0.00  0.00    +0.000 C 
ATOM      7  C   UNL     1       2.155   3.431  19.434  0.00  0.00    +0.000 C 
ENDROOT
BRANCH   1  10
ATOM      8  C   UNL     1       5.163   4.362  18.080  0.00  0.00    +0.000 C 
ATOM      9  O   UNL     1       5.726   3.750  18.981  0.00  0.00    +0.000 OA
ATOM     10  N   UNL     1       3.884   4.870  18.259  0.00  0.00    +0.000 N 
ATOM     11  H   UNL     1       3.447   5.311  17.453  0.00  0.00    +0.000 HD
BRANCH   8  18
ATOM     12  C   UNL     1       7.055   5.253  16.579  0.00  0.00    +0.000 A 
ATOM     13  C   UNL     1       7.595   5.390  15.286  0.00  0.00    +0.000 A 
ATOM     14  C   UNL     1       6.923   4.893  14.170  0.00  0.00    +0.000 A 
ATOM     15  C   UNL     1       5.710   4.239  14.335  0.00  0.00    +0.000 A 
ATOM     16  C   UNL     1       5.179   4.077  15.615  0.00  0.00    +0.000 A 
ATOM     17  F   UNL     1       4.013   3.418  15.697  0.00  0.00    +0.000 F 
ATOM     18  C   UNL     1       5.832   4.570  16.756  0.00  0.00    +0.000 A 
BRANCH  12  20
ATOM     19  C   UNL     1       7.682   7.155  17.871  0.00  0.00    +0.000 C 
ATOM     20  O   UNL     1       7.700   5.740  17.692  0.00  0.00    +0.000 OA
ENDBRANCH  12  20
ENDBRANCH   8  18
ENDBRANCH   1  10
BRANCH   2  21
ATOM     21  C   UNL     1       2.065   6.746  20.643  0.00  0.00    +0.000 C 
BRANCH  21  22
ATOM     22  C   UNL     1       1.761   8.012  19.876  0.00  0.00    +0.000 A 
ATOM     23  C   UNL     1       0.995   9.031  20.458  0.00  0.00    +0.000 A 
ATOM     24  C   UNL     1       0.660  10.170  19.726  0.00  0.00    +0.000 A 
ATOM     25  C   UNL     1       1.088  10.305  18.405  0.00  0.00    +0.000 A 
ATOM     26  C   UNL     1       1.859   9.304  17.818  0.00  0.00    +0.000 A 
ATOM     27  C   UNL     1       2.195   8.163  18.550  0.00  0.00    +0.000 A 
ENDBRANCH  21  22
ENDBRANCH   2  21
TORSDOF 5
ENDMDL
MODEL 2
REMARK VINA RESULT:      -7.7      2.719      6.553
REMARK  Name = 
REMARK  6 active torsions:
REMARK  status: ('A' for Active; 'I' for Inactive)
REMARK    1  A    between atoms: C_1  and  O_2
REMARK    2  A    between atoms: O_2  and  C_3
REMARK    3  A    between atoms: C_9  and  C_10
REMARK    4  A    between atoms: N_12  and  C_13
REMARK    5  A    between atoms: C_14  and  C_15
REMARK    6  A    between atoms: C_15  and  C_16
REMARK                            x       y       z     vdW  Elec       q    Type
REMARK                         _______ _______ _______ _____ _____    ______ ____
ROOT
ATOM      1  C   UNL     1       2.256   5.706  19.447  0.00  0.00    +0.000 C 
ATOM      2  C   UNL     1       3.749   5.293  19.390  0.00  0.00    +0.000 C 
ATOM      3  C   UNL     1       3.299   3.937  20.008  0.00  0.00    +0.000 C 
ATOM      4  O   UNL     1       2.766   2.896  19.162  0.00  0.00    +0.000 OA
ATOM      5  C   UNL     1       1.496   2.497  19.698  0.00  0.00    +0.000 C 
ATOM      6  C   UNL     1       0.948   3.700  20.472  0.00  0.00    +0.000 C 
ATOM      7  C   UNL     1       2.097   4.686  20.619  0.00  0.00    +0.000 C 
ENDROOT
BRANCH   1  10
ATOM      8  C   UNL     1       1.737   8.085  18.898  0.00  0.00    +0.000 C 
ATOM      9  O   UNL     1       1.791   7.832  17.699  0.00  0.00    +0.000 OA
ATOM     10  N   UNL     1       1.983   7.100  19.843  0.00  0.00    +0.000 N 
ATOM     11  H   UNL     1       1.860   7.357  20.819  0.00  0.00    +0.000 HD
BRANCH   8  18
ATOM     12  C   UNL     1       0.700   9.740  20.575  0.00  0.00    +0.000 A 
ATOM     13  C   UNL     1       0.433  11.076  20.931  0.00  0.00    +0.000 A 
ATOM     14  C   UNL     1       0.812  12.131  20.102  0.00  0.00    +0.000 A 
ATOM     15  C   UNL     1       1.479  11.863  18.913  0.00  0.00    +0.000 A 
ATOM     16  C   UNL     1       1.769  10.544  18.564  0.00  0.00    +0.000 A 
ATOM     17  F   UNL     1       2.432  10.366  17.412  0.00  0.00    +0.000 F 
ATOM     18  C   UNL     1       1.396   9.463  19.379  0.00  0.00    +0.000 A 
BRANCH  12  20
ATOM     19  C   UNL     1      -0.422   9.007  22.545  0.00  0.00    +0.000 C 
ATOM     20  O   UNL     1       0.330   8.686  21.377  0.00  0.00    +0.000 OA
ENDBRANCH  12  20
ENDBRANCH   8  18
ENDBRANCH   1  10
BRANCH   2  21
ATOM     21  C   UNL     1       4.406   5.282  18.017  0.00  0.00    +0.000 C 
BRANCH  21  22
ATOM     22  C   UNL     1       5.769   5.930  18.102  0.00  0.00    +0.000 A 
ATOM     23  C   UNL     1       6.716   5.478  19.030  0.00  0.00    +0.000 A 
ATOM     24  C   UNL     1       7.949   6.120  19.151  0.00  0.00    +0.000 A 
ATOM     25  C   UNL     1       8.250   7.218  18.346  0.00  0.00    +0.000 A 
ATOM     26  C   UNL     1       7.321   7.670  17.411  0.00  0.00    +0.000 A 
ATOM     27  C   UNL     1       6.086   7.029  17.289  0.00  0.00    +0.000 A 
ENDBRANCH  21  22
ENDBRANCH   2  21
TORSDOF 5
ENDMDL
MODEL 3
REMARK VINA RESULT:      -7.7      2.362      6.551
REMARK  Name = 
REMARK  6 active torsions:
REMARK  status: ('A' for Active; 'I' for Inactive)
REMARK    1  A    between atoms: C_1  and  O_2
REMARK    2  A    between atoms: O_2  and  C_3
REMARK    3  A    between atoms: C_9  and  C_10
REMARK    4  A    between atoms: N_12  and  C_13
REMARK    5  A    between atoms: C_14  and  C_15
REMARK    6  A    between atoms: C_15  and  C_16
REMARK                            x       y       z     vdW  Elec       q    Type
REMARK                         _______ _______ _______ _____ _____    ______ ____
ROOT
ATOM      1  C   UNL     1       4.755   5.375  18.014  0.00  0.00    +0.000 C 
ATOM      2  C   UNL     1       3.927   4.252  17.340  0.00  0.00    +0.000 C 
ATOM      3  C   UNL     1       4.849   4.446  16.102  0.00  0.00    +0.000 C 
ATOM      4  O   UNL     1       6.141   3.805  16.051  0.00  0.00    +0.000 OA
ATOM      5  C   UNL     1       7.124   4.813  15.776  0.00  0.00    +0.000 C 
ATOM      6  C   UNL     1       6.551   6.138  16.289  0.00  0.00    +0.000 C 
ATOM      7  C   UNL     1       5.078   5.895  16.577  0.00  0.00    +0.000 C 
ENDROOT
BRANCH   1  10
ATOM      8  C   UNL     1       2.687   6.678  18.520  0.00  0.00    +0.000 C 
ATOM      9  O   UNL     1       2.139   6.216  17.525  0.00  0.00    +0.000 OA
ATOM     10  N   UNL     1       3.997   6.341  18.830  0.00  0.00    +0.000 N 
ATOM     11  H   UNL     1       4.372   6.706  19.702  0.00  0.00    +0.000 HD
BRANCH   8  18
ATOM     12  C   UNL     1       1.625   8.946  19.118  0.00  0.00    +0.000 A 
ATOM     13  C   UNL     1       0.935   9.735  20.058  0.00  0.00    +0.000 A 
ATOM     14  C   UNL     1       0.604   9.231  21.315  0.00  0.00    +0.000 A 
ATOM     15  C   UNL     1       0.945   7.926  21.642  0.00  0.00    +0.000 A 
ATOM     16  C   UNL     1       1.608   7.129  20.709  0.00  0.00    +0.000 A 
ATOM     17  F   UNL     1       1.887   5.873  21.091  0.00  0.00    +0.000 F 
ATOM     18  C   UNL     1       1.956   7.612  19.437  0.00  0.00    +0.000 A 
BRANCH  12  20
ATOM     19  C   UNL     1       2.274  10.815  17.791  0.00  0.00    +0.000 C 
ATOM     20  O   UNL     1       1.965   9.426  17.875  0.00  0.00    +0.000 OA
ENDBRANCH  12  20
ENDBRANCH   8  18
ENDBRANCH   1  10
BRANCH   2  21
ATOM     21  C   UNL     1       3.918   2.896  18.033  0.00  0.00    +0.000 C 
BRANCH  21  22
ATOM     22  C   UNL     1       2.956   2.928  19.198  0.00  0.00    +0.000 A 
ATOM     23  C   UNL     1       3.409   2.685  20.502  0.00  0.00    +0.000 A 
ATOM     24  C   UNL     1       2.509   2.651  21.568  0.00  0.00    +0.000 A 
ATOM     25  C   UNL     1       1.148   2.860  21.343  0.00  0.00    +0.000 A 
ATOM     26  C   UNL     1       0.687   3.114  20.053  0.00  0.00    +0.000 A 
ATOM     27  C   UNL     1       1.587   3.149  18.986  0.00  0.00    +0.000 A 
ENDBRANCH  21  22
ENDBRANCH   2  21
TORSDOF 5
ENDMDL
MODEL 4
REMARK VINA RESULT:      -7.5      3.058      7.349
REMARK  Name = 
REMARK  6 active torsions:
REMARK  status: ('A' for Active; 'I' for Inactive)
REMARK    1  A    between atoms: C_1  and  O_2
REMARK    2  A    between atoms: O_2  and  C_3
REMARK    3  A    between atoms: C_9  and  C_10
REMARK    4  A    between atoms: N_12  and  C_13
REMARK    5  A    between atoms: C_14  and  C_15
REMARK    6  A    between atoms: C_15  and  C_16
REMARK                            x       y       z     vdW  Elec       q    Type
REMARK                         _______ _______ _______ _____ _____    ______ ____
ROOT
ATOM      1  C   UNL     1       2.026   6.852  19.328  0.00  0.00    +0.000 C 
ATOM      2  C   UNL     1       3.493   6.550  18.931  0.00  0.00    +0.000 C 
ATOM      3  C   UNL     1       3.255   5.124  19.505  0.00  0.00    +0.000 C 
ATOM      4  O   UNL     1       2.614   4.114  18.697  0.00  0.00    +0.000 OA
ATOM      5  C   UNL     1       1.508   3.588  19.445  0.00  0.00    +0.000 C 
ATOM      6  C   UNL     1       1.071   4.687  20.417  0.00  0.00    +0.000 C 
ATOM      7  C   UNL     1       2.170   5.737  20.413  0.00  0.00    +0.000 C 
ENDROOT
BRANCH   1  10
ATOM      8  C   UNL     1       1.263   9.218  19.112  0.00  0.00    +0.000 C 
ATOM      9  O   UNL     1       1.064   9.057  17.913  0.00  0.00    +0.000 OA
ATOM     10  N   UNL     1       1.767   8.189  19.893  0.00  0.00    +0.000 N 
ATOM     11  H   UNL     1       1.848   8.365  20.891  0.00  0.00    +0.000 HD
BRANCH   8  18
ATOM     12  C   UNL     1       0.155  10.673  20.925  0.00  0.00    +0.000 A 
ATOM     13  C   UNL     1      -0.066  11.955  21.462  0.00  0.00    +0.000 A 
ATOM     14  C   UNL     1       0.467  13.091  20.855  0.00  0.00    +0.000 A 
ATOM     15  C   UNL     1       1.241  12.958  19.710  0.00  0.00    +0.000 A 
ATOM     16  C   UNL     1       1.485  11.690  19.184  0.00  0.00    +0.000 A 
ATOM     17  F   UNL     1       2.256  11.638  18.087  0.00  0.00    +0.000 F 
ATOM     18  C   UNL     1       0.957  10.529  19.773  0.00  0.00    +0.000 A 
BRANCH  12  20
ATOM     19  C   UNL     1      -0.335   9.482  22.930  0.00  0.00    +0.000 C 
ATOM     20  O   UNL     1      -0.367   9.541  21.505  0.00  0.00    +0.000 OA
ENDBRANCH  12  20
ENDBRANCH   8  18
ENDBRANCH   1  10
BRANCH   2  21
ATOM     21  C   UNL     1       3.847   6.690  17.456  0.00  0.00    +0.000 C 
BRANCH  21  22
ATOM     22  C   UNL     1       5.125   5.936  17.168  0.00  0.00    +0.000 A 
ATOM     23  C   UNL     1       5.163   4.953  16.170  0.00  0.00    +0.000 A 
ATOM     24  C   UNL     1       6.325   4.214  15.950  0.00  0.00    +0.000 A 
ATOM     25  C   UNL     1       7.463   4.449  16.722  0.00  0.00    +0.000 A 
ATOM     26  C   UNL     1       7.441   5.432  17.710  0.00  0.00    +0.000 A 
ATOM     27  C   UNL     1       6.278   6.172  17.931  0.00  0.00    +0.000 A 
ENDBRANCH  21  22
ENDBRANCH   2  21
TORSDOF 5
ENDMDL
MODEL 5
REMARK VINA RESULT:      -7.4      2.286      6.500
REMARK  Name = 
REMARK  6 active torsions:
REMARK  status: ('A' for Active; 'I' for Inactive)
REMARK    1  A    between atoms: C_1  and  O_2
REMARK    2  A    between atoms: O_2  and  C_3
REMARK    3  A    between atoms: C_9  and  C_10
REMARK    4  A    between atoms: N_12  and  C_13
REMARK    5  A    between atoms: C_14  and  C_15
REMARK    6  A    between atoms: C_15  and  C_16
REMARK                            x       y       z     vdW  Elec       q    Type
REMARK                         _______ _______ _______ _____ _____    ______ ____
ROOT
ATOM      1  C   UNL     1       4.337   5.288  17.373  0.00  0.00    +0.000 C 
ATOM      2  C   UNL     1       3.857   3.931  16.797  0.00  0.00    +0.000 C 
ATOM      3  C   UNL     1       4.918   4.140  15.678  0.00  0.00    +0.000 C 
ATOM      4  O   UNL     1       6.298   3.785  15.912  0.00  0.00    +0.000 OA
ATOM      5  C   UNL     1       7.107   4.930  15.602  0.00  0.00    +0.000 C 
ATOM      6  C   UNL     1       6.219   6.162  15.799  0.00  0.00    +0.000 C 
ATOM      7  C   UNL     1       4.790   5.656  15.925  0.00  0.00    +0.000 C 
ENDROOT
BRANCH   1  10
ATOM      8  C   UNL     1       3.167   6.426  19.261  0.00  0.00    +0.000 C 
ATOM      9  O   UNL     1       3.905   5.872  20.068  0.00  0.00    +0.000 OA
ATOM     10  N   UNL     1       3.286   6.177  17.902  0.00  0.00    +0.000 N 
ATOM     11  H   UNL     1       2.689   6.716  17.280  0.00  0.00    +0.000 HD
BRANCH   8  18
ATOM     12  C   UNL     1       1.839   8.625  19.079  0.00  0.00    +0.000 A 
ATOM     13  C   UNL     1       0.832   9.462  19.595  0.00  0.00    +0.000 A 
ATOM     14  C   UNL     1       0.129   9.115  20.748  0.00  0.00    +0.000 A 
ATOM     15  C   UNL     1       0.415   7.919  21.391  0.00  0.00    +0.000 A 
ATOM     16  C   UNL     1       1.395   7.072  20.875  0.00  0.00    +0.000 A 
ATOM     17  F   UNL     1       1.601   5.925  21.540  0.00  0.00    +0.000 F 
ATOM     18  C   UNL     1       2.120   7.397  19.717  0.00  0.00    +0.000 A 
BRANCH  12  20
ATOM     19  C   UNL     1       2.598  10.334  17.602  0.00  0.00    +0.000 C 
ATOM     20  O   UNL     1       2.548   8.951  17.947  0.00  0.00    +0.000 OA
ENDBRANCH  12  20
ENDBRANCH   8  18
ENDBRANCH   1  10
BRANCH   2  21
ATOM     21  C   UNL     1       3.988   2.715  17.704  0.00  0.00    +0.000 C 
BRANCH  21  22
ATOM     22  C   UNL     1       2.947   2.784  18.797  0.00  0.00    +0.000 A 
ATOM     23  C   UNL     1       1.616   3.105  18.495  0.00  0.00    +0.000 A 
ATOM     24  C   UNL     1       0.671   3.232  19.513  0.00  0.00    +0.000 A 
ATOM     25  C   UNL     1       1.043   3.038  20.844  0.00  0.00    +0.000 A 
ATOM     26  C   UNL     1       2.360   2.707  21.156  0.00  0.00    +0.000 A 
ATOM     27  C   UNL     1       3.307   2.580  20.137  0.00  0.00    +0.000 A 
ENDBRANCH  21  22
ENDBRANCH   2  21
TORSDOF 5
ENDMDL
MODEL 6
REMARK VINA RESULT:      -7.3      2.486      6.559
REMARK  Name = 
REMARK  6 active torsions:
REMARK  status: ('A' for Active; 'I' for Inactive)
REMARK    1  A    between atoms: C_1  and  O_2
REMARK    2  A    between atoms: O_2  and  C_3
REMARK    3  A    between atoms: C_9  and  C_10
REMARK    4  A    between atoms: N_12  and  C_13
REMARK    5  A    between atoms: C_14  and  C_15
REMARK    6  A    between atoms: C_15  and  C_16
REMARK                            x       y       z     vdW  Elec       q    Type
REMARK                         _______ _______ _______ _____ _____    ______ ____
ROOT
ATOM      1  C   UNL     1       4.492   5.569  18.652  0.00  0.00    +0.000 C 
ATOM      2  C   UNL     1       3.913   5.015  17.325  0.00  0.00    +0.000 C 
ATOM      3  C   UNL     1       5.350   5.163  16.747  0.00  0.00    +0.000 C 
ATOM      4  O   UNL     1       6.337   4.136  16.983  0.00  0.00    +0.000 OA
ATOM      5  C   UNL     1       7.501   4.763  17.542  0.00  0.00    +0.000 C 
ATOM      6  C   UNL     1       7.021   6.037  18.243  0.00  0.00    +0.000 C 
ATOM      7  C   UNL     1       5.588   6.273  17.791  0.00  0.00    +0.000 C 
ENDROOT
BRANCH   1  10
ATOM      8  C   UNL     1       2.633   7.232  18.753  0.00  0.00    +0.000 C 
ATOM      9  O   UNL     1       2.469   7.140  17.542  0.00  0.00    +0.000 OA
ATOM     10  N   UNL     1       3.633   6.512  19.391  0.00  0.00    +0.000 N 
ATOM     11  H   UNL     1       3.676   6.582  20.405  0.00  0.00    +0.000 HD
BRANCH   8  18
ATOM     12  C   UNL     1       1.352   9.418  19.212  0.00  0.00    +0.000 A 
ATOM     13  C   UNL     1       0.522  10.162  20.071  0.00  0.00    +0.000 A 
ATOM     14  C   UNL     1       0.116   9.649  21.302  0.00  0.00    +0.000 A 
ATOM     15  C   UNL     1       0.524   8.378  21.682  0.00  0.00    +0.000 A 
ATOM     16  C   UNL     1       1.328   7.623  20.828  0.00  0.00    +0.000 A 
ATOM     17  F   UNL     1       1.665   6.397  21.255  0.00  0.00    +0.000 F 
ATOM     18  C   UNL     1       1.753   8.117  19.584  0.00  0.00    +0.000 A 
BRANCH  12  20
ATOM     19  C   UNL     1       2.279  11.240  17.986  0.00  0.00    +0.000 C 
ATOM     20  O   UNL     1       1.768   9.909  17.996  0.00  0.00    +0.000 OA
ENDBRANCH  12  20
ENDBRANCH   8  18
ENDBRANCH   1  10
BRANCH   2  21
ATOM     21  C   UNL     1       3.290   3.626  17.375  0.00  0.00    +0.000 C 
BRANCH  21  22
ATOM     22  C   UNL     1       2.640   3.410  18.722  0.00  0.00    +0.000 A 
ATOM     23  C   UNL     1       1.319   3.817  18.949  0.00  0.00    +0.000 A 
ATOM     24  C   UNL     1       0.743   3.676  20.212  0.00  0.00    +0.000 A 
ATOM     25  C   UNL     1       1.479   3.125  21.261  0.00  0.00    +0.000 A 
ATOM     26  C   UNL     1       2.790   2.706  21.044  0.00  0.00    +0.000 A 
ATOM     27  C   UNL     1       3.368   2.847  19.781  0.00  0.00    +0.000 A 
ENDBRANCH  21  22
ENDBRANCH   2  21
TORSDOF 5
ENDMDL
MODEL 7
REMARK VINA RESULT:      -7.2      3.313      7.227
REMARK  Name = 
REMARK  6 active torsions:
REMARK  status: ('A' for Active; 'I' for Inactive)
REMARK    1  A    between atoms: C_1  and  O_2
REMARK    2  A    between atoms: O_2  and  C_3
REMARK    3  A    between atoms: C_9  and  C_10
REMARK    4  A    between atoms: N_12  and  C_13
REMARK    5  A    between atoms: C_14  and  C_15
REMARK    6  A    between atoms: C_15  and  C_16
REMARK                            x       y       z     vdW  Elec       q    Type
REMARK                         _______ _______ _______ _____ _____    ______ ____
ROOT
ATOM      1  C   UNL     1       1.986   6.749  19.464  0.00  0.00    +0.000 C 
ATOM      2  C   UNL     1       3.463   6.535  19.046  0.00  0.00    +0.000 C 
ATOM      3  C   UNL     1       3.302   5.080  19.575  0.00  0.00    +0.000 C 
ATOM      4  O   UNL     1       2.705   4.066  18.739  0.00  0.00    +0.000 OA
ATOM      5  C   UNL     1       1.633   3.461  19.476  0.00  0.00    +0.000 C 
ATOM      6  C   UNL     1       1.151   4.505  20.488  0.00  0.00    +0.000 C 
ATOM      7  C   UNL     1       2.196   5.609  20.511  0.00  0.00    +0.000 C 
ENDROOT
BRANCH   1  10
ATOM      8  C   UNL     1       1.182   9.107  19.316  0.00  0.00    +0.000 C 
ATOM      9  O   UNL     1       1.053   8.999  18.101  0.00  0.00    +0.000 OA
ATOM     10  N   UNL     1       1.666   8.052  20.075  0.00  0.00    +0.000 N 
ATOM     11  H   UNL     1       1.688   8.182  21.083  0.00  0.00    +0.000 HD
BRANCH   8  18
ATOM     12  C   UNL     1       1.245  11.663  19.627  0.00  0.00    +0.000 A 
ATOM     13  C   UNL     1       0.834  12.790  20.361  0.00  0.00    +0.000 A 
ATOM     14  C   UNL     1       0.030  12.658  21.493  0.00  0.00    +0.000 A 
ATOM     15  C   UNL     1      -0.384  11.395  21.896  0.00  0.00    +0.000 A 
ATOM     16  C   UNL     1      -0.001  10.274  21.160  0.00  0.00    +0.000 A 
ATOM     17  F   UNL     1      -0.455   9.090  21.599  0.00  0.00    +0.000 F 
ATOM     18  C   UNL     1       0.810  10.378  20.018  0.00  0.00    +0.000 A 
BRANCH  12  20
ATOM     19  C   UNL     1       2.684  13.028  18.307  0.00  0.00    +0.000 C 
ATOM     20  O   UNL     1       2.042  11.772  18.511  0.00  0.00    +0.000 OA
ENDBRANCH  12  20
ENDBRANCH   8  18
ENDBRANCH   1  10
BRANCH   2  21
ATOM     21  C   UNL     1       3.797   6.740  17.575  0.00  0.00    +0.000 C 
BRANCH  21  22
ATOM     22  C   UNL     1       5.065   5.993  17.233  0.00  0.00    +0.000 A 
ATOM     23  C   UNL     1       5.061   4.998  16.247  0.00  0.00    +0.000 A 
ATOM     24  C   UNL     1       6.217   4.264  15.979  0.00  0.00    +0.000 A 
ATOM     25  C   UNL     1       7.390   4.518  16.691  0.00  0.00    +0.000 A 
ATOM     26  C   UNL     1       7.409   5.514  17.666  0.00  0.00    +0.000 A 
ATOM     27  C   UNL     1       6.252   6.249  17.935  0.00  0.00    +0.000 A 
ENDBRANCH  21  22
ENDBRANCH   2  21
TORSDOF 5
ENDMDL
MODEL 8
REMARK VINA RESULT:      -7.2      1.465      1.745
REMARK  Name = 
REMARK  6 active torsions:
REMARK  status: ('A' for Active; 'I' for Inactive)
REMARK    1  A    between atoms: C_1  and  O_2
REMARK    2  A    between atoms: O_2  and  C_3
REMARK    3  A    between atoms: C_9  and  C_10
REMARK    4  A    between atoms: N_12  and  C_13
REMARK    5  A    between atoms: C_14  and  C_15
REMARK    6  A    between atoms: C_15  and  C_16
REMARK                            x       y       z     vdW  Elec       q    Type
REMARK                         _______ _______ _______ _____ _____    ______ ____
ROOT
ATOM      1  C   UNL     1       3.531   4.434  17.786  0.00  0.00    +0.000 C 
ATOM      2  C   UNL     1       2.492   5.509  18.197  0.00  0.00    +0.000 C 
ATOM      3  C   UNL     1       1.471   4.341  18.313  0.00  0.00    +0.000 C 
ATOM      4  O   UNL     1       1.418   3.538  19.512  0.00  0.00    +0.000 OA
ATOM      5  C   UNL     1       1.538   2.161  19.126  0.00  0.00    +0.000 C 
ATOM      6  C   UNL     1       2.298   2.140  17.797  0.00  0.00    +0.000 C 
ATOM      7  C   UNL     1       2.328   3.572  17.287  0.00  0.00    +0.000 C 
ENDROOT
BRANCH   1  10
ATOM      8  C   UNL     1       5.306   3.879  16.122  0.00  0.00    +0.000 C 
ATOM      9  O   UNL     1       5.328   2.718  16.516  0.00  0.00    +0.000 OA
ATOM     10  N   UNL     1       4.466   4.813  16.711  0.00  0.00    +0.000 N 
ATOM     11  H   UNL     1       4.447   5.741  16.297  0.00  0.00    +0.000 HD
BRANCH   8  18
ATOM     12  C   UNL     1       7.330   5.124  15.130  0.00  0.00    +0.000 A 
ATOM     13  C   UNL     1       8.076   5.482  13.992  0.00  0.00    +0.000 A 
ATOM     14  C   UNL     1       7.674   5.088  12.716  0.00  0.00    +0.000 A 
ATOM     15  C   UNL     1       6.529   4.317  12.565  0.00  0.00    +0.000 A 
ATOM     16  C   UNL     1       5.797   3.938  13.689  0.00  0.00    +0.000 A 
ATOM     17  F   UNL     1       4.714   3.178  13.466  0.00  0.00    +0.000 F 
ATOM     18  C   UNL     1       6.177   4.323  14.986  0.00  0.00    +0.000 A 
BRANCH  12  20
ATOM     19  C   UNL     1       7.318   6.815  16.809  0.00  0.00    +0.000 C 
ATOM     20  O   UNL     1       7.706   5.506  16.397  0.00  0.00    +0.000 OA
ENDBRANCH  12  20
ENDBRANCH   8  18
ENDBRANCH   1  10
BRANCH   2  21
ATOM     21  C   UNL     1       2.806   6.325  19.444  0.00  0.00    +0.000 C 
BRANCH  21  22
ATOM     22  C   UNL     1       2.129   7.673  19.351  0.00  0.00    +0.000 A 
ATOM     23  C   UNL     1       1.484   8.224  20.467  0.00  0.00    +0.000 A 
ATOM     24  C   UNL     1       0.805   9.439  20.361  0.00  0.00    +0.000 A 
ATOM     25  C   UNL     1       0.763  10.116  19.142  0.00  0.00    +0.000 A 
ATOM     26  C   UNL     1       1.411   9.583  18.029  0.00  0.00    +0.000 A 
ATOM     27  C   UNL     1       2.091   8.368  18.133  0.00  0.00    +0.000 A 
ENDBRANCH  21  22
ENDBRANCH   2  21
TORSDOF 5
ENDMDL
MODEL 9
REMARK VINA RESULT:      -7.1      1.581      4.332
REMARK  Name = 
REMARK  6 active torsions:
REMARK  status: ('A' for Active; 'I' for Inactive)
REMARK    1  A    between atoms: C_1  and  O_2
REMARK    2  A    between atoms: O_2  and  C_3
REMARK    3  A    between atoms: C_9  and  C_10
REMARK    4  A    between atoms: N_12  and  C_13
REMARK    5  A    between atoms: C_14  and  C_15
REMARK    6  A    between atoms: C_15  and  C_16
REMARK                            x       y       z     vdW  Elec       q    Type
REMARK                         _______ _______ _______ _____ _____    ______ ____
ROOT
ATOM      1  C   UNL     1       1.949   7.085  18.566  0.00  0.00    +0.000 C 
ATOM      2  C   UNL     1       2.189   6.710  20.051  0.00  0.00    +0.000 C 
ATOM      3  C   UNL     1       1.818   8.184  20.384  0.00  0.00    +0.000 C 
ATOM      4  O   UNL     1       0.432   8.576  20.494  0.00  0.00    +0.000 OA
ATOM      5  C   UNL     1       0.220   9.697  19.625  0.00  0.00    +0.000 C 
ATOM      6  C   UNL     1       1.271   9.599  18.514  0.00  0.00    +0.000 C 
ATOM      7  C   UNL     1       2.285   8.558  18.962  0.00  0.00    +0.000 C 
ENDROOT
BRANCH   1  10
ATOM      8  C   UNL     1       4.169   6.113  17.967  0.00  0.00    +0.000 C 
ATOM      9  O   UNL     1       4.563   6.274  19.117  0.00  0.00    +0.000 OA
ATOM     10  N   UNL     1       2.894   6.511  17.590  0.00  0.00    +0.000 N 
ATOM     11  H   UNL     1       2.605   6.292  16.641  0.00  0.00    +0.000 HD
BRANCH   8  18
ATOM     12  C   UNL     1       6.222   6.055  16.415  0.00  0.00    +0.000 A 
ATOM     13  C   UNL     1       6.973   5.362  15.447  0.00  0.00    +0.000 A 
ATOM     14  C   UNL     1       6.556   4.121  14.966  0.00  0.00    +0.000 A 
ATOM     15  C   UNL     1       5.390   3.552  15.459  0.00  0.00    +0.000 A 
ATOM     16  C   UNL     1       4.652   4.220  16.436  0.00  0.00    +0.000 A 
ATOM     17  F   UNL     1       3.548   3.599  16.877  0.00  0.00    +0.000 F 
ATOM     18  C   UNL     1       5.047   5.472  16.935  0.00  0.00    +0.000 A 
BRANCH  12  20
ATOM     19  C   UNL     1       7.713   7.288  17.806  0.00  0.00    +0.000 C 
ATOM     20  O   UNL     1       6.614   7.282  16.898  0.00  0.00    +0.000 OA
ENDBRANCH  12  20
ENDBRANCH   8  18
ENDBRANCH   1  10
BRANCH   2  21
ATOM     21  C   UNL     1       1.326   5.596  20.626  0.00  0.00    +0.000 C 
BRANCH  21  22
ATOM     22  C   UNL     1       1.772   4.267  20.063  0.00  0.00    +0.000 A 
ATOM     23  C   UNL     1       0.934   3.536  19.210  0.00  0.00    +0.000 A 
ATOM     24  C   UNL     1       1.321   2.279  18.744  0.00  0.00    +0.000 A 
ATOM     25  C   UNL     1       2.551   1.739  19.123  0.00  0.00    +0.000 A 
ATOM     26  C   UNL     1       3.398   2.461  19.961  0.00  0.00    +0.000 A 
ATOM     27  C   UNL     1       3.011   3.719  20.428  0.00  0.00    +0.000 A 
ENDBRANCH  21  22
ENDBRANCH   2  21
TORSDOF 5
ENDMDL
