MODEL 1
REMARK VINA RESULT:      -8.5      0.000      0.000
REMARK  Name = 
REMARK  4 active torsions:
REMARK  status: ('A' for Active; 'I' for Inactive)
REMARK    1  A    between atoms: C_2  and  C_15
REMARK    2  A    between atoms: C_6  and  C_7
REMARK    3  A    between atoms: C_18  and  S_19
REMARK    4  A    between atoms: S_19  and  N_22
REMARK                            x       y       z     vdW  Elec       q    Type
REMARK                         _______ _______ _______ _____ _____    ______ ____
ROOT
ATOM      1  O   UNL     1       2.202   8.434  19.273  0.00  0.00    +0.000 OA
ATOM      2  C   UNL     1       1.606   8.062  20.278  0.00  0.00    +0.000 C 
ATOM      3  N   UNL     1       1.679   6.811  20.855  0.00  0.00    +0.000 N 
ATOM      4  C   UNL     1       2.453   5.824  20.311  0.00  0.00    +0.000 A 
ATOM      5  N   UNL     1       3.327   5.907  19.347  0.00  0.00    +0.000 NA
ATOM      6  C   UNL     1       3.840   4.657  19.055  0.00  0.00    +0.000 A 
ATOM      7  C   UNL     1       3.319   3.634  19.826  0.00  0.00    +0.000 A 
ATOM      8  S   UNL     1       2.220   4.277  20.987  0.00  0.00    +0.000 S 
ATOM      9  H   UNL     1       1.150   6.553  21.669  0.00  0.00    +0.000 HD
ENDROOT
BRANCH   6  10
ATOM     10  C   UNL     1       4.846   4.513  18.006  0.00  0.00    +0.000 A 
ATOM     11  C   UNL     1       6.182   4.804  18.307  0.00  0.00    +0.000 A 
ATOM     12  C   UNL     1       7.138   4.666  17.317  0.00  0.00    +0.000 A 
ATOM     13  N   UNL     1       6.858   4.263  16.060  0.00  0.00    +0.000 NA
ATOM     14  C   UNL     1       5.565   3.994  15.785  0.00  0.00    +0.000 A 
ATOM     15  C   UNL     1       4.536   4.101  16.709  0.00  0.00    +0.000 A 
ENDBRANCH   6  10
BRANCH   2  16
ATOM     16  C   UNL     1       0.715   9.050  20.960  0.00  0.00    +0.000 A 
ATOM     17  C   UNL     1       0.423   9.000  22.330  0.00  0.00    +0.000 A 
ATOM     18  C   UNL     1      -0.390   9.977  22.912  0.00  0.00    +0.000 A 
ATOM     19  C   UNL     1      -0.927  10.998  22.124  0.00  0.00    +0.000 A 
ATOM     20  C   UNL     1      -0.685  11.037  20.749  0.00  0.00    +0.000 A 
ATOM     21  C   UNL     1       0.136  10.063  20.173  0.00  0.00    +0.000 A 
BRANCH  19  22
ATOM     22  S   UNL     1      -1.959  12.232  22.876  0.00  0.00    +0.000 S 
ATOM     23  O   UNL     1      -2.954  11.530  23.653  0.00  0.00    +0.000 OA
ATOM     24  O   UNL     1      -1.089  13.206  23.494  0.00  0.00    +0.000 OA
BRANCH  22  25
ATOM     25  N   UNL     1      -2.744  12.991  21.569  0.00  0.00    +0.000 NA
ATOM     26  C   UNL     1      -2.392  14.412  21.261  0.00  0.00    +0.000 C 
ATOM     27  C   UNL     1      -3.110  15.404  22.183  0.00  0.00    +0.000 C 
ATOM     28  O   UNL     1      -4.531  15.211  22.164  0.00  0.00    +0.000 OA
ATOM     29  C   UNL     1      -4.880  13.872  22.544  0.00  0.00    +0.000 C 
ATOM     30  C   UNL     1      -4.241  12.848  21.598  0.00  0.00    +0.000 C 
ENDBRANCH  22  25
ENDBRANCH  19  22
ENDBRANCH   2  16
TORSDOF 4
ENDMDL
MODEL 2
REMARK VINA RESULT:      -8.4      2.859     11.081
REMARK  Name = 
REMARK  4 active torsions:
REMARK  status: ('A' for Active; 'I' for Inactive)
REMARK    1  A    between atoms: C_2  and  C_15
REMARK    2  A    between atoms: C_6  and  C_7
REMARK    3  A    between atoms: C_18  and  S_19
REMARK    4  A    between atoms: S_19  and  N_22
REMARK                            x       y       z     vdW  Elec       q    Type
REMARK                         _______ _______ _______ _____ _____    ______ ____
ROOT
ATOM      1  O   UNL     1       0.870   9.568  21.585  0.00  0.00    +0.000 OA
ATOM      2  C   UNL     1       0.745   9.398  20.377  0.00  0.00    +0.000 C 
ATOM      3  N   UNL     1      -0.104  10.090  19.539  0.00  0.00    +0.000 N 
ATOM      4  C   UNL     1      -0.935  11.065  20.019  0.00  0.00    +0.000 A 
ATOM      5  N   UNL     1      -0.960  11.607  21.204  0.00  0.00    +0.000 NA
ATOM      6  C   UNL     1      -2.004  12.509  21.297  0.00  0.00    +0.000 A 
ATOM      7  C   UNL     1      -2.763  12.620  20.146  0.00  0.00    +0.000 A 
ATOM      8  S   UNL     1      -2.099  11.625  18.907  0.00  0.00    +0.000 S 
ATOM      9  H   UNL     1      -0.182   9.894  18.556  0.00  0.00    +0.000 HD
ENDROOT
BRANCH   6  10
ATOM     10  C   UNL     1      -2.219  13.243  22.541  0.00  0.00    +0.000 A 
ATOM     11  C   UNL     1      -3.474  13.173  23.158  0.00  0.00    +0.000 A 
ATOM     12  C   UNL     1      -3.680  13.864  24.338  0.00  0.00    +0.000 A 
ATOM     13  N   UNL     1      -2.733  14.613  24.941  0.00  0.00    +0.000 NA
ATOM     14  C   UNL     1      -1.532  14.674  24.329  0.00  0.00    +0.000 A 
ATOM     15  C   UNL     1      -1.228  14.017  23.146  0.00  0.00    +0.000 A 
ENDBRANCH   6  10
BRANCH   2  16
ATOM     16  C   UNL     1       1.592   8.348  19.734  0.00  0.00    +0.000 A 
ATOM     17  C   UNL     1       2.154   8.492  18.457  0.00  0.00    +0.000 A 
ATOM     18  C   UNL     1       2.968   7.485  17.929  0.00  0.00    +0.000 A 
ATOM     19  C   UNL     1       3.210   6.324  18.667  0.00  0.00    +0.000 A 
ATOM     20  C   UNL     1       2.620   6.143  19.921  0.00  0.00    +0.000 A 
ATOM     21  C   UNL     1       1.815   7.156  20.449  0.00  0.00    +0.000 A 
BRANCH  19  22
ATOM     22  S   UNL     1       4.243   5.053  17.983  0.00  0.00    +0.000 S 
ATOM     23  O   UNL     1       4.877   4.383  19.096  0.00  0.00    +0.000 OA
ATOM     24  O   UNL     1       3.447   4.313  17.032  0.00  0.00    +0.000 OA
BRANCH  22  25
ATOM     25  N   UNL     1       5.443   5.894  17.116  0.00  0.00    +0.000 NA
ATOM     26  C   UNL     1       5.710   5.485  15.702  0.00  0.00    +0.000 C 
ATOM     27  C   UNL     1       6.608   4.246  15.612  0.00  0.00    +0.000 C 
ATOM     28  O   UNL     1       7.833   4.425  16.335  0.00  0.00    +0.000 OA
ATOM     29  C   UNL     1       7.583   4.731  17.715  0.00  0.00    +0.000 C 
ATOM     30  C   UNL     1       6.750   6.011  17.851  0.00  0.00    +0.000 C 
ENDBRANCH  22  25
ENDBRANCH  19  22
ENDBRANCH   2  16
TORSDOF 4
ENDMDL
MODEL 3
REMARK VINA RESULT:      -8.3      2.852     10.994
REMARK  Name = 
REMARK  4 active torsions:
REMARK  status: ('A' for Active; 'I' for Inactive)
REMARK    1  A    between atoms: C_2  and  C_15
REMARK    2  A    between atoms: C_6  and  C_7
REMARK    3  A    between atoms: C_18  and  S_19
REMARK    4  A    between atoms: S_19  and  N_22
REMARK                            x       y       z     vdW  Elec       q    Type
REMARK                         _______ _______ _______ _____ _____    ______ ____
ROOT
ATOM      1  O   UNL     1       0.744   9.294  21.759  0.00  0.00    +0.000 OA
ATOM      2  C   UNL     1       0.736   9.165  20.539  0.00  0.00    +0.000 C 
ATOM      3  N   UNL     1       0.006   9.918  19.643  0.00  0.00    +0.000 N 
ATOM      4  C   UNL     1      -0.827  10.915  20.069  0.00  0.00    +0.000 A 
ATOM      5  N   UNL     1      -0.949  11.424  21.263  0.00  0.00    +0.000 NA
ATOM      6  C   UNL     1      -1.959  12.370  21.280  0.00  0.00    +0.000 A 
ATOM      7  C   UNL     1      -2.591  12.548  20.062  0.00  0.00    +0.000 A 
ATOM      8  S   UNL     1      -1.847  11.559  18.864  0.00  0.00    +0.000 S 
ATOM      9  H   UNL     1       0.020   9.753  18.652  0.00  0.00    +0.000 HD
ENDROOT
BRANCH   6  10
ATOM     10  C   UNL     1      -2.268  13.078  22.519  0.00  0.00    +0.000 A 
ATOM     11  C   UNL     1      -1.309  13.942  23.060  0.00  0.00    +0.000 A 
ATOM     12  C   UNL     1      -1.601  14.617  24.233  0.00  0.00    +0.000 A 
ATOM     13  N   UNL     1      -2.768  14.490  24.897  0.00  0.00    +0.000 NA
ATOM     14  C   UNL     1      -3.677  13.648  24.365  0.00  0.00    +0.000 A 
ATOM     15  C   UNL     1      -3.480  12.929  23.195  0.00  0.00    +0.000 A 
ENDBRANCH   6  10
BRANCH   2  16
ATOM     16  C   UNL     1       1.599   8.095  19.951  0.00  0.00    +0.000 A 
ATOM     17  C   UNL     1       1.867   6.883  20.602  0.00  0.00    +0.000 A 
ATOM     18  C   UNL     1       2.653   5.909  19.980  0.00  0.00    +0.000 A 
ATOM     19  C   UNL     1       3.188   6.149  18.711  0.00  0.00    +0.000 A 
ATOM     20  C   UNL     1       2.970   7.370  18.068  0.00  0.00    +0.000 A 
ATOM     21  C   UNL     1       2.175   8.337  18.691  0.00  0.00    +0.000 A 
BRANCH  19  22
ATOM     22  S   UNL     1       4.186   4.905  17.933  0.00  0.00    +0.000 S 
ATOM     23  O   UNL     1       4.903   4.222  18.986  0.00  0.00    +0.000 OA
ATOM     24  O   UNL     1       3.335   4.173  17.024  0.00  0.00    +0.000 OA
BRANCH  22  25
ATOM     25  N   UNL     1       5.314   5.777  17.002  0.00  0.00    +0.000 NA
ATOM     26  C   UNL     1       5.571   5.327  15.599  0.00  0.00    +0.000 C 
ATOM     27  C   UNL     1       6.538   4.139  15.535  0.00  0.00    +0.000 C 
ATOM     28  O   UNL     1       7.767   4.419  16.219  0.00  0.00    +0.000 OA
ATOM     29  C   UNL     1       7.532   4.766  17.591  0.00  0.00    +0.000 C 
ATOM     30  C   UNL     1       6.628   6.000  17.698  0.00  0.00    +0.000 C 
ENDBRANCH  22  25
ENDBRANCH  19  22
ENDBRANCH   2  16
TORSDOF 4
ENDMDL
MODEL 4
REMARK VINA RESULT:      -8.2      0.198      1.268
REMARK  Name = 
REMARK  4 active torsions:
REMARK  status: ('A' for Active; 'I' for Inactive)
REMARK    1  A    between atoms: C_2  and  C_15
REMARK    2  A    between atoms: C_6  and  C_7
REMARK    3  A    between atoms: C_18  and  S_19
REMARK    4  A    between atoms: S_19  and  N_22
REMARK                            x       y       z     vdW  Elec       q    Type
REMARK                         _______ _______ _______ _____ _____    ______ ____
ROOT
ATOM      1  O   UNL     1       2.239   8.576  19.163  0.00  0.00    +0.000 OA
ATOM      2  C   UNL     1       1.606   8.239  20.158  0.00  0.00    +0.000 C 
ATOM      3  N   UNL     1       1.636   7.002  20.766  0.00  0.00    +0.000 N 
ATOM      4  C   UNL     1       2.407   5.987  20.269  0.00  0.00    +0.000 A 
ATOM      5  N   UNL     1       3.311   6.031  19.331  0.00  0.00    +0.000 NA
ATOM      6  C   UNL     1       3.808   4.764  19.084  0.00  0.00    +0.000 A 
ATOM      7  C   UNL     1       3.243   3.770  19.863  0.00  0.00    +0.000 A 
ATOM      8  S   UNL     1       2.123   4.461  20.974  0.00  0.00    +0.000 S 
ATOM      9  H   UNL     1       1.078   6.773  21.570  0.00  0.00    +0.000 HD
ENDROOT
BRANCH   6  10
ATOM     10  C   UNL     1       4.842   4.576  18.070  0.00  0.00    +0.000 A 
ATOM     11  C   UNL     1       4.469   4.116  16.802  0.00  0.00    +0.000 A 
ATOM     12  C   UNL     1       5.445   3.940  15.838  0.00  0.00    +0.000 A 
ATOM     13  N   UNL     1       6.755   4.188  16.048  0.00  0.00    +0.000 NA
ATOM     14  C   UNL     1       7.097   4.625  17.277  0.00  0.00    +0.000 A 
ATOM     15  C   UNL     1       6.193   4.833  18.308  0.00  0.00    +0.000 A 
ENDBRANCH   6  10
BRANCH   2  16
ATOM     16  C   UNL     1       0.714   9.260  20.789  0.00  0.00    +0.000 A 
ATOM     17  C   UNL     1       0.086  10.282  20.062  0.00  0.00    +0.000 A 
ATOM     18  C   UNL     1      -0.766  11.183  20.708  0.00  0.00    +0.000 A 
ATOM     19  C   UNL     1      -0.980  11.076  22.084  0.00  0.00    +0.000 A 
ATOM     20  C   UNL     1      -0.326  10.094  22.832  0.00  0.00    +0.000 A 
ATOM     21  C   UNL     1       0.518   9.190  22.180  0.00  0.00    +0.000 A 
BRANCH  19  22
ATOM     22  S   UNL     1      -2.063  12.229  22.892  0.00  0.00    +0.000 S 
ATOM     23  O   UNL     1      -2.967  11.454  23.709  0.00  0.00    +0.000 OA
ATOM     24  O   UNL     1      -1.237  13.260  23.478  0.00  0.00    +0.000 OA
BRANCH  22  25
ATOM     25  N   UNL     1      -2.960  12.935  21.629  0.00  0.00    +0.000 NA
ATOM     26  C   UNL     1      -2.689  14.365  21.283  0.00  0.00    +0.000 C 
ATOM     27  C   UNL     1      -3.390  15.339  22.237  0.00  0.00    +0.000 C 
ATOM     28  O   UNL     1      -4.800  15.087  22.310  0.00  0.00    +0.000 OA
ATOM     29  C   UNL     1      -5.066  13.740  22.727  0.00  0.00    +0.000 C 
ATOM     30  C   UNL     1      -4.444  12.730  21.754  0.00  0.00    +0.000 C 
ENDBRANCH  22  25
ENDBRANCH  19  22
ENDBRANCH   2  16
TORSDOF 4
ENDMDL
MODEL 5
REMARK VINA RESULT:      -8.2      2.860     11.129
REMARK  Name = 
REMARK  4 active torsions:
REMARK  status: ('A' for Active; 'I' for Inactive)
REMARK    1  A    between atoms: C_2  and  C_15
REMARK    2  A    between atoms: C_6  and  C_7
REMARK    3  A    between atoms: C_18  and  S_19
REMARK    4  A    between atoms: S_19  and  N_22
REMARK                            x       y       z     vdW  Elec       q    Type
REMARK                         _______ _______ _______ _____ _____    ______ ____
ROOT
ATOM      1  O   UNL     1      -0.199   9.123  21.047  0.00  0.00    +0.000 OA
ATOM      2  C   UNL     1       0.594   9.468  20.178  0.00  0.00    +0.000 C 
ATOM      3  N   UNL     1       0.734  10.738  19.658  0.00  0.00    +0.000 N 
ATOM      4  C   UNL     1      -0.057  11.769  20.083  0.00  0.00    +0.000 A 
ATOM      5  N   UNL     1      -0.889  11.801  21.086  0.00  0.00    +0.000 NA
ATOM      6  C   UNL     1      -1.544  13.019  21.128  0.00  0.00    +0.000 A 
ATOM      7  C   UNL     1      -1.179  13.895  20.120  0.00  0.00    +0.000 A 
ATOM      8  S   UNL     1       0.063  13.193  19.154  0.00  0.00    +0.000 S 
ATOM      9  H   UNL     1       1.388  10.961  18.928  0.00  0.00    +0.000 HD
ENDROOT
BRANCH   6  10
ATOM     10  C   UNL     1      -2.522  13.280  22.180  0.00  0.00    +0.000 A 
ATOM     11  C   UNL     1      -3.109  14.549  22.256  0.00  0.00    +0.000 A 
ATOM     12  C   UNL     1      -4.039  14.798  23.249  0.00  0.00    +0.000 A 
ATOM     13  N   UNL     1      -4.421  13.882  24.162  0.00  0.00    +0.000 NA
ATOM     14  C   UNL     1      -3.840  12.667  24.078  0.00  0.00    +0.000 A 
ATOM     15  C   UNL     1      -2.899  12.320  23.119  0.00  0.00    +0.000 A 
ENDBRANCH   6  10
BRANCH   2  16
ATOM     16  C   UNL     1       1.509   8.425  19.621  0.00  0.00    +0.000 A 
ATOM     17  C   UNL     1       2.138   8.544  18.374  0.00  0.00    +0.000 A 
ATOM     18  C   UNL     1       3.011   7.548  17.928  0.00  0.00    +0.000 A 
ATOM     19  C   UNL     1       3.245   6.420  18.719  0.00  0.00    +0.000 A 
ATOM     20  C   UNL     1       2.591   6.262  19.943  0.00  0.00    +0.000 A 
ATOM     21  C   UNL     1       1.726   7.266  20.389  0.00  0.00    +0.000 A 
BRANCH  19  22
ATOM     22  S   UNL     1       4.355   5.161  18.139  0.00  0.00    +0.000 S 
ATOM     23  O   UNL     1       4.911   4.520  19.309  0.00  0.00    +0.000 OA
ATOM     24  O   UNL     1       3.651   4.391  17.140  0.00  0.00    +0.000 OA
BRANCH  22  25
ATOM     25  N   UNL     1       5.603   6.014  17.357  0.00  0.00    +0.000 NA
ATOM     26  C   UNL     1       5.793   5.799  15.888  0.00  0.00    +0.000 C 
ATOM     27  C   UNL     1       6.570   4.513  15.582  0.00  0.00    +0.000 C 
ATOM     28  O   UNL     1       7.826   4.475  16.275  0.00  0.00    +0.000 OA
ATOM     29  C   UNL     1       7.643   4.593  17.693  0.00  0.00    +0.000 C 
ATOM     30  C   UNL     1       6.934   5.906  18.048  0.00  0.00    +0.000 C 
ENDBRANCH  22  25
ENDBRANCH  19  22
ENDBRANCH   2  16
TORSDOF 4
ENDMDL
MODEL 6
REMARK VINA RESULT:      -8.2      2.817     11.054
REMARK  Name = 
REMARK  4 active torsions:
REMARK  status: ('A' for Active; 'I' for Inactive)
REMARK    1  A    between atoms: C_2  and  C_15
REMARK    2  A    between atoms: C_6  and  C_7
REMARK    3  A    between atoms: C_18  and  S_19
REMARK    4  A    between atoms: S_19  and  N_22
REMARK                            x       y       z     vdW  Elec       q    Type
REMARK                         _______ _______ _______ _____ _____    ______ ____
ROOT
ATOM      1  O   UNL     1      -0.338   8.955  21.103  0.00  0.00    +0.000 OA
ATOM      2  C   UNL     1       0.551   9.301  20.332  0.00  0.00    +0.000 C 
ATOM      3  N   UNL     1       0.786  10.583  19.880  0.00  0.00    +0.000 N 
ATOM      4  C   UNL     1      -0.009  11.627  20.263  0.00  0.00    +0.000 A 
ATOM      5  N   UNL     1      -0.937  11.655  21.178  0.00  0.00    +0.000 NA
ATOM      6  C   UNL     1      -1.551  12.894  21.201  0.00  0.00    +0.000 A 
ATOM      7  C   UNL     1      -1.056  13.791  20.271  0.00  0.00    +0.000 A 
ATOM      8  S   UNL     1       0.254  13.078  19.408  0.00  0.00    +0.000 S 
ATOM      9  H   UNL     1       1.519  10.807  19.228  0.00  0.00    +0.000 HD
ENDROOT
BRANCH   6  10
ATOM     10  C   UNL     1      -2.623  13.154  22.158  0.00  0.00    +0.000 A 
ATOM     11  C   UNL     1      -2.822  12.253  23.211  0.00  0.00    +0.000 A 
ATOM     12  C   UNL     1      -3.834  12.498  24.121  0.00  0.00    +0.000 A 
ATOM     13  N   UNL     1      -4.654  13.568  24.056  0.00  0.00    +0.000 NA
ATOM     14  C   UNL     1      -4.452  14.422  23.032  0.00  0.00    +0.000 A 
ATOM     15  C   UNL     1      -3.464  14.264  22.071  0.00  0.00    +0.000 A 
ENDBRANCH   6  10
BRANCH   2  16
ATOM     16  C   UNL     1       1.481   8.244  19.830  0.00  0.00    +0.000 A 
ATOM     17  C   UNL     1       1.812   7.100  20.570  0.00  0.00    +0.000 A 
ATOM     18  C   UNL     1       2.660   6.132  20.025  0.00  0.00    +0.000 A 
ATOM     19  C   UNL     1       3.195   6.311  18.747  0.00  0.00    +0.000 A 
ATOM     20  C   UNL     1       2.914   7.467  18.015  0.00  0.00    +0.000 A 
ATOM     21  C   UNL     1       2.058   8.428  18.559  0.00  0.00    +0.000 A 
BRANCH  19  22
ATOM     22  S   UNL     1       4.273   5.074  18.069  0.00  0.00    +0.000 S 
ATOM     23  O   UNL     1       4.871   4.380  19.186  0.00  0.00    +0.000 OA
ATOM     24  O   UNL     1       3.526   4.352  17.065  0.00  0.00    +0.000 OA
BRANCH  22  25
ATOM     25  N   UNL     1       5.495   5.956  17.276  0.00  0.00    +0.000 NA
ATOM     26  C   UNL     1       5.743   5.675  15.828  0.00  0.00    +0.000 C 
ATOM     27  C   UNL     1       6.601   4.422  15.615  0.00  0.00    +0.000 C 
ATOM     28  O   UNL     1       7.834   4.495  16.343  0.00  0.00    +0.000 OA
ATOM     29  C   UNL     1       7.601   4.677  17.746  0.00  0.00    +0.000 C 
ATOM     30  C   UNL     1       6.808   5.964  18.009  0.00  0.00    +0.000 C 
ENDBRANCH  22  25
ENDBRANCH  19  22
ENDBRANCH   2  16
TORSDOF 4
ENDMDL
MODEL 7
REMARK VINA RESULT:      -8.1      1.335      1.658
REMARK  Name = 
REMARK  4 active torsions:
REMARK  status: ('A' for Active; 'I' for Inactive)
REMARK    1  A    between atoms: C_2  and  C_15
REMARK    2  A    between atoms: C_6  and  C_7
REMARK    3  A    between atoms: C_18  and  S_19
REMARK    4  A    between atoms: S_19  and  N_22
REMARK                            x       y       z     vdW  Elec       q    Type
REMARK                         _______ _______ _______ _____ _____    ______ ____
ROOT
ATOM      1  O   UNL     1       2.330   8.413  19.047  0.00  0.00    +0.000 OA
ATOM      2  C   UNL     1       1.710   8.045  20.039  0.00  0.00    +0.000 C 
ATOM      3  N   UNL     1       1.789   6.805  20.638  0.00  0.00    +0.000 N 
ATOM      4  C   UNL     1       2.600   5.826  20.135  0.00  0.00    +0.000 A 
ATOM      5  N   UNL     1       3.502   5.912  19.197  0.00  0.00    +0.000 NA
ATOM      6  C   UNL     1       4.049   4.668  18.942  0.00  0.00    +0.000 A 
ATOM      7  C   UNL     1       3.524   3.646  19.714  0.00  0.00    +0.000 A 
ATOM      8  S   UNL     1       2.376   4.285  20.829  0.00  0.00    +0.000 S 
ATOM      9  H   UNL     1       1.240   6.549  21.440  0.00  0.00    +0.000 HD
ENDROOT
BRANCH   6  10
ATOM     10  C   UNL     1       5.090   4.528  17.927  0.00  0.00    +0.000 A 
ATOM     11  C   UNL     1       6.419   4.787  18.283  0.00  0.00    +0.000 A 
ATOM     12  C   UNL     1       7.408   4.653  17.326  0.00  0.00    +0.000 A 
ATOM     13  N   UNL     1       7.167   4.282  16.051  0.00  0.00    +0.000 NA
ATOM     14  C   UNL     1       5.881   4.043  15.724  0.00  0.00    +0.000 A 
ATOM     15  C   UNL     1       4.820   4.150  16.611  0.00  0.00    +0.000 A 
ENDBRANCH   6  10
BRANCH   2  16
ATOM     16  C   UNL     1       0.778   9.026  20.676  0.00  0.00    +0.000 A 
ATOM     17  C   UNL     1       0.538   9.068  22.057  0.00  0.00    +0.000 A 
ATOM     18  C   UNL     1      -0.318  10.035  22.592  0.00  0.00    +0.000 A 
ATOM     19  C   UNL     1      -0.950  10.952  21.749  0.00  0.00    +0.000 A 
ATOM     20  C   UNL     1      -0.760  10.894  20.366  0.00  0.00    +0.000 A 
ATOM     21  C   UNL     1       0.105   9.931  19.836  0.00  0.00    +0.000 A 
BRANCH  19  22
ATOM     22  S   UNL     1      -2.037  12.173  22.442  0.00  0.00    +0.000 S 
ATOM     23  O   UNL     1      -2.739  12.785  21.338  0.00  0.00    +0.000 OA
ATOM     24  O   UNL     1      -2.762  11.544  23.521  0.00  0.00    +0.000 OA
BRANCH  22  25
ATOM     25  N   UNL     1      -0.997  13.337  23.122  0.00  0.00    +0.000 NA
ATOM     26  C   UNL     1      -1.595  14.394  23.996  0.00  0.00    +0.000 C 
ATOM     27  C   UNL     1      -2.230  15.531  23.187  0.00  0.00    +0.000 C 
ATOM     28  O   UNL     1      -1.301  16.100  22.254  0.00  0.00    +0.000 OA
ATOM     29  C   UNL     1      -0.790  15.105  21.355  0.00  0.00    +0.000 C 
ATOM     30  C   UNL     1      -0.078  13.984  22.123  0.00  0.00    +0.000 C 
ENDBRANCH  22  25
ENDBRANCH  19  22
ENDBRANCH   2  16
TORSDOF 4
ENDMDL
MODEL 8
REMARK VINA RESULT:      -8.0      2.865     11.031
REMARK  Name = 
REMARK  4 active torsions:
REMARK  status: ('A' for Active; 'I' for Inactive)
REMARK    1  A    between atoms: C_2  and  C_15
REMARK    2  A    between atoms: C_6  and  C_7
REMARK    3  A    between atoms: C_18  and  S_19
REMARK    4  A    between atoms: S_19  and  N_22
REMARK                            x       y       z     vdW  Elec       q    Type
REMARK                         _______ _______ _______ _____ _____    ______ ____
ROOT
ATOM      1  O   UNL     1       0.741   9.855  21.302  0.00  0.00    +0.000 OA
ATOM      2  C   UNL     1       0.623   9.473  20.142  0.00  0.00    +0.000 C 
ATOM      3  N   UNL     1      -0.275   9.952  19.211  0.00  0.00    +0.000 N 
ATOM      4  C   UNL     1      -1.168  10.936  19.531  0.00  0.00    +0.000 A 
ATOM      5  N   UNL     1      -1.227  11.670  20.606  0.00  0.00    +0.000 NA
ATOM      6  C   UNL     1      -2.330  12.503  20.560  0.00  0.00    +0.000 A 
ATOM      7  C   UNL     1      -3.099  12.364  19.418  0.00  0.00    +0.000 A 
ATOM      8  S   UNL     1      -2.372  11.218  18.357  0.00  0.00    +0.000 S 
ATOM      9  H   UNL     1      -0.342   9.585  18.278  0.00  0.00    +0.000 HD
ENDROOT
BRANCH   6  10
ATOM     10  C   UNL     1      -2.591  13.423  21.664  0.00  0.00    +0.000 A 
ATOM     11  C   UNL     1      -2.846  12.897  22.935  0.00  0.00    +0.000 A 
ATOM     12  C   UNL     1      -3.090  13.765  23.984  0.00  0.00    +0.000 A 
ATOM     13  N   UNL     1      -3.098  15.108  23.854  0.00  0.00    +0.000 NA
ATOM     14  C   UNL     1      -2.857  15.598  22.621  0.00  0.00    +0.000 A 
ATOM     15  C   UNL     1      -2.601  14.810  21.508  0.00  0.00    +0.000 A 
ENDBRANCH   6  10
BRANCH   2  16
ATOM     16  C   UNL     1       1.539   8.387  19.675  0.00  0.00    +0.000 A 
ATOM     17  C   UNL     1       1.823   7.245  20.437  0.00  0.00    +0.000 A 
ATOM     18  C   UNL     1       2.660   6.248  19.925  0.00  0.00    +0.000 A 
ATOM     19  C   UNL     1       3.228   6.397  18.658  0.00  0.00    +0.000 A 
ATOM     20  C   UNL     1       2.994   7.550  17.904  0.00  0.00    +0.000 A 
ATOM     21  C   UNL     1       2.149   8.539  18.417  0.00  0.00    +0.000 A 
BRANCH  19  22
ATOM     22  S   UNL     1       4.291   5.125  18.021  0.00  0.00    +0.000 S 
ATOM     23  O   UNL     1       4.899   4.477  19.160  0.00  0.00    +0.000 OA
ATOM     24  O   UNL     1       3.527   4.365  17.059  0.00  0.00    +0.000 OA
BRANCH  22  25
ATOM     25  N   UNL     1       5.507   5.964  17.175  0.00  0.00    +0.000 NA
ATOM     26  C   UNL     1       5.745   5.608  15.742  0.00  0.00    +0.000 C 
ATOM     27  C   UNL     1       6.601   4.346  15.588  0.00  0.00    +0.000 C 
ATOM     28  O   UNL     1       7.840   4.456  16.303  0.00  0.00    +0.000 OA
ATOM     29  C   UNL     1       7.616   4.710  17.697  0.00  0.00    +0.000 C 
ATOM     30  C   UNL     1       6.825   6.009  17.898  0.00  0.00    +0.000 C 
ENDBRANCH  22  25
ENDBRANCH  19  22
ENDBRANCH   2  16
TORSDOF 4
ENDMDL
MODEL 9
REMARK VINA RESULT:      -7.9      3.794     10.862
REMARK  Name = 
REMARK  4 active torsions:
REMARK  status: ('A' for Active; 'I' for Inactive)
REMARK    1  A    between atoms: C_2  and  C_15
REMARK    2  A    between atoms: C_6  and  C_7
REMARK    3  A    between atoms: C_18  and  S_19
REMARK    4  A    between atoms: S_19  and  N_22
REMARK                            x       y       z     vdW  Elec       q    Type
REMARK                         _______ _______ _______ _____ _____    ______ ____
ROOT
ATOM      1  O   UNL     1      -0.197  11.618  19.008  0.00  0.00    +0.000 OA
ATOM      2  C   UNL     1       1.004  11.369  18.998  0.00  0.00    +0.000 C 
ATOM      3  N   UNL     1       2.028  12.289  18.921  0.00  0.00    +0.000 N 
ATOM      4  C   UNL     1       1.771  13.629  18.827  0.00  0.00    +0.000 A 
ATOM      5  N   UNL     1       0.636  14.255  18.962  0.00  0.00    +0.000 NA
ATOM      6  C   UNL     1       0.802  15.607  18.721  0.00  0.00    +0.000 A 
ATOM      7  C   UNL     1       2.097  15.972  18.397  0.00  0.00    +0.000 A 
ATOM      8  S   UNL     1       3.130  14.595  18.471  0.00  0.00    +0.000 S 
ATOM      9  H   UNL     1       2.998  12.027  18.894  0.00  0.00    +0.000 HD
ENDROOT
BRANCH   6  10
ATOM     10  C   UNL     1      -0.343  16.507  18.823  0.00  0.00    +0.000 A 
ATOM     11  C   UNL     1      -0.496  17.516  17.864  0.00  0.00    +0.000 A 
ATOM     12  C   UNL     1      -1.582  18.368  17.956  0.00  0.00    +0.000 A 
ATOM     13  N   UNL     1      -2.516  18.287  18.926  0.00  0.00    +0.000 NA
ATOM     14  C   UNL     1      -2.349  17.314  19.845  0.00  0.00    +0.000 A 
ATOM     15  C   UNL     1      -1.296  16.410  19.838  0.00  0.00    +0.000 A 
ENDBRANCH   6  10
BRANCH   2  16
ATOM     16  C   UNL     1       1.414   9.933  19.082  0.00  0.00    +0.000 A 
ATOM     17  C   UNL     1       1.968   9.231  18.003  0.00  0.00    +0.000 A 
ATOM     18  C   UNL     1       2.364   7.899  18.160  0.00  0.00    +0.000 A 
ATOM     19  C   UNL     1       2.193   7.260  19.390  0.00  0.00    +0.000 A 
ATOM     20  C   UNL     1       1.599   7.930  20.463  0.00  0.00    +0.000 A 
ATOM     21  C   UNL     1       1.213   9.265  20.304  0.00  0.00    +0.000 A 
BRANCH  19  22
ATOM     22  S   UNL     1       2.698   5.568  19.575  0.00  0.00    +0.000 S 
ATOM     23  O   UNL     1       4.139   5.570  19.688  0.00  0.00    +0.000 OA
ATOM     24  O   UNL     1       1.877   4.982  20.608  0.00  0.00    +0.000 OA
BRANCH  22  25
ATOM     25  N   UNL     1       2.282   4.831  18.098  0.00  0.00    +0.000 NA
ATOM     26  C   UNL     1       1.194   3.805  18.102  0.00  0.00    +0.000 C 
ATOM     27  C   UNL     1       1.688   2.432  18.571  0.00  0.00    +0.000 C 
ATOM     28  O   UNL     1       2.815   1.984  17.805  0.00  0.00    +0.000 OA
ATOM     29  C   UNL     1       3.896   2.924  17.869  0.00  0.00    +0.000 C 
ATOM     30  C   UNL     1       3.463   4.296  17.336  0.00  0.00    +0.000 C 
ENDBRANCH  22  25
ENDBRANCH  19  22
ENDBRANCH   2  16
TORSDOF 4
ENDMDL
