MODEL 1
REMARK VINA RESULT:      -7.9      0.000      0.000
REMARK  Name = 
REMARK  9 active torsions:
REMARK  status: ('A' for Active; 'I' for Inactive)
REMARK    1  A    between atoms: C_1  and  C_2
REMARK    2  A    between atoms: C_3  and  C_4
REMARK    3  A    between atoms: C_4  and  C_5
REMARK    4  A    between atoms: C_6  and  N_7
REMARK    5  A    between atoms: N_7  and  C_8
REMARK    6  A    between atoms: C_8  and  C_9
REMARK    7  A    between atoms: C_14  and  N_15
REMARK    8  A    between atoms: N_18  and  C_19
REMARK    9  A    between atoms: N_24  and  C_25
REMARK                            x       y       z     vdW  Elec       q    Type
REMARK                         _______ _______ _______ _____ _____    ______ ____
ROOT
ATOM      1  N   UNL     1       1.891   7.612  20.020  0.00  0.00    +0.000 N 
ATOM      2  H   UNL     1       2.739   7.970  19.578  0.00  0.00    +0.000 HD
ENDROOT
BRANCH   1   4
ATOM      3  C   UNL     1       0.722   9.807  20.057  0.00  0.00    +0.000 A 
ATOM      4  C   UNL     1       1.215   8.677  20.608  0.00  0.00    +0.000 A 
ATOM      5  C   UNL     1       0.864   8.483  22.044  0.00  0.00    +0.000 A 
ATOM      6  N   UNL     1       0.163   9.270  22.796  0.00  0.00    +0.000 NA
ATOM      7  N   UNL     1      -0.291  10.425  22.217  0.00  0.00    +0.000 N 
ATOM      8  C   UNL     1      -1.094  11.305  23.042  0.00  0.00    +0.000 C 
ATOM      9  C   UNL     1      -0.047  10.786  20.900  0.00  0.00    +0.000 A 
ATOM     10  O   UNL     1      -0.442  11.849  20.422  0.00  0.00    +0.000 OA
BRANCH   3  11
ATOM     11  C   UNL     1       0.900  10.262  18.629  0.00  0.00    +0.000 C 
BRANCH  11  14
ATOM     12  C   UNL     1      -2.455   9.743  16.625  0.00  0.00    +0.000 C 
ATOM     13  C   UNL     1      -1.450  10.205  17.627  0.00  0.00    +0.000 C 
ATOM     14  C   UNL     1      -0.169   9.800  17.660  0.00  0.00    +0.000 C 
ENDBRANCH  11  14
ENDBRANCH   3  11
ENDBRANCH   1   4
BRANCH   1  15
ATOM     15  C   UNL     1       2.254   6.306  20.633  0.00  0.00    +0.000 C 
BRANCH  15  16
ATOM     16  C   UNL     1       2.011   5.003  19.873  0.00  0.00    +0.000 A 
ATOM     17  C   UNL     1       0.897   4.204  20.195  0.00  0.00    +0.000 A 
ATOM     18  C   UNL     1       0.689   2.951  19.625  0.00  0.00    +0.000 A 
ATOM     19  C   UNL     1       1.626   2.430  18.754  0.00  0.00    +0.000 A 
ATOM     20  C   UNL     1       2.765   3.168  18.445  0.00  0.00    +0.000 A 
ATOM     21  C   UNL     1       2.985   4.457  18.982  0.00  0.00    +0.000 A 
BRANCH  21  22
ATOM     22  N   UNL     1       4.154   5.172  18.661  0.00  0.00    +0.000 N 
ATOM     23  C   UNL     1       5.478   4.608  19.050  0.00  0.00    +0.000 C 
ATOM     24  C   UNL     1       6.581   5.686  18.859  0.00  0.00    +0.000 C 
ATOM     25  N   UNL     1       6.598   6.325  17.520  0.00  0.00    +0.000 NA
ATOM     26  C   UNL     1       7.461   7.508  17.516  0.00  0.00    +0.000 C 
ATOM     27  C   UNL     1       5.228   6.713  17.105  0.00  0.00    +0.000 C 
ATOM     28  C   UNL     1       4.208   5.565  17.234  0.00  0.00    +0.000 C 
ENDBRANCH  21  22
ENDBRANCH  15  16
ENDBRANCH   1  15
TORSDOF 6
ENDMDL
MODEL 2
REMARK VINA RESULT:      -7.8      1.231      1.673
REMARK  Name = 
REMARK  9 active torsions:
REMARK  status: ('A' for Active; 'I' for Inactive)
REMARK    1  A    between atoms: C_1  and  C_2
REMARK    2  A    between atoms: C_3  and  C_4
REMARK    3  A    between atoms: C_4  and  C_5
REMARK    4  A    between atoms: C_6  and  N_7
REMARK    5  A    between atoms: N_7  and  C_8
REMARK    6  A    between atoms: C_8  and  C_9
REMARK    7  A    between atoms: C_14  and  N_15
REMARK    8  A    between atoms: N_18  and  C_19
REMARK    9  A    between atoms: N_24  and  C_25
REMARK                            x       y       z     vdW  Elec       q    Type
REMARK                         _______ _______ _______ _____ _____    ______ ____
ROOT
ATOM      1  N   UNL     1       1.985   7.956  21.198  0.00  0.00    +0.000 N 
ATOM      2  H   UNL     1       1.906   7.257  21.940  0.00  0.00    +0.000 HD
ENDROOT
BRANCH   1   4
ATOM      3  C   UNL     1       0.367   9.750  20.606  0.00  0.00    +0.000 A 
ATOM      4  C   UNL     1       1.079   8.980  21.457  0.00  0.00    +0.000 A 
ATOM      5  C   UNL     1       0.743   9.172  22.897  0.00  0.00    +0.000 A 
ATOM      6  N   UNL     1      -0.131   9.985  23.399  0.00  0.00    +0.000 NA
ATOM      7  N   UNL     1      -0.811  10.776  22.513  0.00  0.00    +0.000 N 
ATOM      8  C   UNL     1      -1.807  11.675  23.060  0.00  0.00    +0.000 C 
ATOM      9  C   UNL     1      -0.618  10.753  21.139  0.00  0.00    +0.000 A 
ATOM     10  O   UNL     1      -1.223  11.504  20.374  0.00  0.00    +0.000 OA
BRANCH   3  11
ATOM     11  C   UNL     1       0.476   9.764  19.101  0.00  0.00    +0.000 C 
BRANCH  11  14
ATOM     12  C   UNL     1       2.777  12.786  18.044  0.00  0.00    +0.000 C 
ATOM     13  C   UNL     1       1.646  11.977  18.587  0.00  0.00    +0.000 C 
ATOM     14  C   UNL     1       1.579  10.636  18.537  0.00  0.00    +0.000 C 
ENDBRANCH  11  14
ENDBRANCH   3  11
ENDBRANCH   1   4
BRANCH   1  15
ATOM     15  C   UNL     1       2.182   7.204  19.930  0.00  0.00    +0.000 C 
BRANCH  15  16
ATOM     16  C   UNL     1       2.174   5.676  19.930  0.00  0.00    +0.000 A 
ATOM     17  C   UNL     1       1.092   4.983  20.506  0.00  0.00    +0.000 A 
ATOM     18  C   UNL     1       1.083   3.598  20.644  0.00  0.00    +0.000 A 
ATOM     19  C   UNL     1       2.189   2.864  20.262  0.00  0.00    +0.000 A 
ATOM     20  C   UNL     1       3.299   3.515  19.732  0.00  0.00    +0.000 A 
ATOM     21  C   UNL     1       3.322   4.917  19.548  0.00  0.00    +0.000 A 
BRANCH  21  22
ATOM     22  N   UNL     1       4.465   5.548  19.021  0.00  0.00    +0.000 N 
ATOM     23  C   UNL     1       5.803   4.936  19.257  0.00  0.00    +0.000 C 
ATOM     24  C   UNL     1       6.916   5.939  18.844  0.00  0.00    +0.000 C 
ATOM     25  N   UNL     1       6.771   6.497  17.477  0.00  0.00    +0.000 NA
ATOM     26  C   UNL     1       7.677   7.629  17.276  0.00  0.00    +0.000 C 
ATOM     27  C   UNL     1       5.375   6.935  17.233  0.00  0.00    +0.000 C 
ATOM     28  C   UNL     1       4.332   5.853  17.578  0.00  0.00    +0.000 C 
ENDBRANCH  21  22
ENDBRANCH  15  16
ENDBRANCH   1  15
TORSDOF 6
ENDMDL
MODEL 3
REMARK VINA RESULT:      -7.8      1.178      1.269
REMARK  Name = 
REMARK  9 active torsions:
REMARK  status: ('A' for Active; 'I' for Inactive)
REMARK    1  A    between atoms: C_1  and  C_2
REMARK    2  A    between atoms: C_3  and  C_4
REMARK    3  A    between atoms: C_4  and  C_5
REMARK    4  A    between atoms: C_6  and  N_7
REMARK    5  A    between atoms: N_7  and  C_8
REMARK    6  A    between atoms: C_8  and  C_9
REMARK    7  A    between atoms: C_14  and  N_15
REMARK    8  A    between atoms: N_18  and  C_19
REMARK    9  A    between atoms: N_24  and  C_25
REMARK                            x       y       z     vdW  Elec       q    Type
REMARK                         _______ _______ _______ _____ _____    ______ ____
ROOT
ATOM      1  N   UNL     1       1.963   7.790  19.168  0.00  0.00    +0.000 N 
ATOM      2  H   UNL     1       2.441   8.333  18.446  0.00  0.00    +0.000 HD
ENDROOT
BRANCH   1   4
ATOM      3  C   UNL     1       0.521   9.747  19.698  0.00  0.00    +0.000 A 
ATOM      4  C   UNL     1       1.277   8.670  20.001  0.00  0.00    +0.000 A 
ATOM      5  C   UNL     1       1.266   8.290  21.442  0.00  0.00    +0.000 A 
ATOM      6  N   UNL     1       0.632   8.877  22.406  0.00  0.00    +0.000 NA
ATOM      7  N   UNL     1      -0.097   9.987  22.072  0.00  0.00    +0.000 N 
ATOM      8  C   UNL     1      -0.829  10.641  23.137  0.00  0.00    +0.000 C 
ATOM      9  C   UNL     1      -0.188  10.502  20.787  0.00  0.00    +0.000 A 
ATOM     10  O   UNL     1      -0.826  11.523  20.528  0.00  0.00    +0.000 OA
BRANCH   3  11
ATOM     11  C   UNL     1       0.327  10.353  18.329  0.00  0.00    +0.000 C 
BRANCH  11  14
ATOM     12  C   UNL     1      -3.244   9.802  16.754  0.00  0.00    +0.000 C 
ATOM     13  C   UNL     1      -2.113  10.330  17.573  0.00  0.00    +0.000 C 
ATOM     14  C   UNL     1      -0.864   9.835  17.550  0.00  0.00    +0.000 C 
ENDBRANCH  11  14
ENDBRANCH   3  11
ENDBRANCH   1   4
BRANCH   1  15
ATOM     15  C   UNL     1       2.891   6.695  19.555  0.00  0.00    +0.000 C 
BRANCH  15  16
ATOM     16  C   UNL     1       2.387   5.256  19.656  0.00  0.00    +0.000 A 
ATOM     17  C   UNL     1       1.339   4.943  20.543  0.00  0.00    +0.000 A 
ATOM     18  C   UNL     1       0.919   3.635  20.768  0.00  0.00    +0.000 A 
ATOM     19  C   UNL     1       1.578   2.588  20.153  0.00  0.00    +0.000 A 
ATOM     20  C   UNL     1       2.649   2.852  19.304  0.00  0.00    +0.000 A 
ATOM     21  C   UNL     1       3.075   4.171  19.031  0.00  0.00    +0.000 A 
BRANCH  21  22
ATOM     22  N   UNL     1       4.171   4.404  18.179  0.00  0.00    +0.000 N 
ATOM     23  C   UNL     1       5.551   4.313  18.733  0.00  0.00    +0.000 C 
ATOM     24  C   UNL     1       6.566   4.885  17.704  0.00  0.00    +0.000 C 
ATOM     25  N   UNL     1       6.454   4.311  16.340  0.00  0.00    +0.000 NA
ATOM     26  C   UNL     1       7.234   5.094  15.379  0.00  0.00    +0.000 C 
ATOM     27  C   UNL     1       5.038   4.266  15.903  0.00  0.00    +0.000 C 
ATOM     28  C   UNL     1       4.107   3.601  16.936  0.00  0.00    +0.000 C 
ENDBRANCH  21  22
ENDBRANCH  15  16
ENDBRANCH   1  15
TORSDOF 6
ENDMDL
MODEL 4
REMARK VINA RESULT:      -7.4      1.174      1.802
REMARK  Name = 
REMARK  9 active torsions:
REMARK  status: ('A' for Active; 'I' for Inactive)
REMARK    1  A    between atoms: C_1  and  C_2
REMARK    2  A    between atoms: C_3  and  C_4
REMARK    3  A    between atoms: C_4  and  C_5
REMARK    4  A    between atoms: C_6  and  N_7
REMARK    5  A    between atoms: N_7  and  C_8
REMARK    6  A    between atoms: C_8  and  C_9
REMARK    7  A    between atoms: C_14  and  N_15
REMARK    8  A    between atoms: N_18  and  C_19
REMARK    9  A    between atoms: N_24  and  C_25
REMARK                            x       y       z     vdW  Elec       q    Type
REMARK                         _______ _______ _______ _____ _____    ______ ____
ROOT
ATOM      1  N   UNL     1       2.080   7.718  19.582  0.00  0.00    +0.000 N 
ATOM      2  H   UNL     1       2.886   8.191  19.170  0.00  0.00    +0.000 HD
ENDROOT
BRANCH   1   4
ATOM      3  C   UNL     1       0.735   9.791  19.867  0.00  0.00    +0.000 A 
ATOM      4  C   UNL     1       1.332   8.656  20.289  0.00  0.00    +0.000 A 
ATOM      5  C   UNL     1       1.032   8.285  21.701  0.00  0.00    +0.000 A 
ATOM      6  N   UNL     1       0.287   8.927  22.543  0.00  0.00    +0.000 NA
ATOM      7  N   UNL     1      -0.276  10.093  22.096  0.00  0.00    +0.000 N 
ATOM      8  C   UNL     1      -1.129  10.811  23.020  0.00  0.00    +0.000 C 
ATOM      9  C   UNL     1      -0.093  10.608  20.820  0.00  0.00    +0.000 A 
ATOM     10  O   UNL     1      -0.586  11.678  20.462  0.00  0.00    +0.000 OA
BRANCH   3  11
ATOM     11  C   UNL     1       0.840  10.405  18.493  0.00  0.00    +0.000 C 
BRANCH  11  14
ATOM     12  C   UNL     1       3.148  13.589  18.217  0.00  0.00    +0.000 C 
ATOM     13  C   UNL     1       1.963  12.698  18.390  0.00  0.00    +0.000 C 
ATOM     14  C   UNL     1       2.000  11.358  18.291  0.00  0.00    +0.000 C 
ENDBRANCH  11  14
ENDBRANCH   3  11
ENDBRANCH   1   4
BRANCH   1  15
ATOM     15  C   UNL     1       2.563   6.391  20.048  0.00  0.00    +0.000 C 
BRANCH  15  16
ATOM     16  C   UNL     1       2.444   5.166  19.143  0.00  0.00    +0.000 A 
ATOM     17  C   UNL     1       1.326   4.317  19.258  0.00  0.00    +0.000 A 
ATOM     18  C   UNL     1       1.220   3.124  18.549  0.00  0.00    +0.000 A 
ATOM     19  C   UNL     1       2.263   2.711  17.742  0.00  0.00    +0.000 A 
ATOM     20  C   UNL     1       3.406   3.498  17.637  0.00  0.00    +0.000 A 
ATOM     21  C   UNL     1       3.526   4.731  18.318  0.00  0.00    +0.000 A 
BRANCH  21  22
ATOM     22  N   UNL     1       4.701   5.497  18.201  0.00  0.00    +0.000 N 
ATOM     23  C   UNL     1       6.008   4.879  18.564  0.00  0.00    +0.000 C 
ATOM     24  C   UNL     1       7.104   5.979  18.635  0.00  0.00    +0.000 C 
ATOM     25  N   UNL     1       7.191   6.846  17.435  0.00  0.00    +0.000 NA
ATOM     26  C   UNL     1       8.034   8.015  17.695  0.00  0.00    +0.000 C 
ATOM     27  C   UNL     1       5.842   7.296  17.012  0.00  0.00    +0.000 C 
ATOM     28  C   UNL     1       4.834   6.138  16.873  0.00  0.00    +0.000 C 
ENDBRANCH  21  22
ENDBRANCH  15  16
ENDBRANCH   1  15
TORSDOF 6
ENDMDL
MODEL 5
REMARK VINA RESULT:      -7.3      1.894      4.194
REMARK  Name = 
REMARK  9 active torsions:
REMARK  status: ('A' for Active; 'I' for Inactive)
REMARK    1  A    between atoms: C_1  and  C_2
REMARK    2  A    between atoms: C_3  and  C_4
REMARK    3  A    between atoms: C_4  and  C_5
REMARK    4  A    between atoms: C_6  and  N_7
REMARK    5  A    between atoms: N_7  and  C_8
REMARK    6  A    between atoms: C_8  and  C_9
REMARK    7  A    between atoms: C_14  and  N_15
REMARK    8  A    between atoms: N_18  and  C_19
REMARK    9  A    between atoms: N_24  and  C_25
REMARK                            x       y       z     vdW  Elec       q    Type
REMARK                         _______ _______ _______ _____ _____    ______ ____
ROOT
ATOM      1  N   UNL     1       2.592   7.561  18.154  0.00  0.00    +0.000 N 
ATOM      2  H   UNL     1       2.446   8.066  17.278  0.00  0.00    +0.000 HD
ENDROOT
BRANCH   1   4
ATOM      3  C   UNL     1       1.191   9.367  19.136  0.00  0.00    +0.000 A 
ATOM      4  C   UNL     1       1.869   8.199  19.158  0.00  0.00    +0.000 A 
ATOM      5  C   UNL     1       1.706   7.410  20.413  0.00  0.00    +0.000 A 
ATOM      6  N   UNL     1       1.009   7.727  21.456  0.00  0.00    +0.000 NA
ATOM      7  N   UNL     1       0.362   8.933  21.417  0.00  0.00    +0.000 N 
ATOM      8  C   UNL     1      -0.438   9.291  22.570  0.00  0.00    +0.000 C 
ATOM      9  C   UNL     1       0.414   9.812  20.344  0.00  0.00    +0.000 A 
ATOM     10  O   UNL     1      -0.152  10.904  20.356  0.00  0.00    +0.000 OA
BRANCH   3  11
ATOM     11  C   UNL     1       1.152  10.363  18.003  0.00  0.00    +0.000 C 
BRANCH  11  14
ATOM     12  C   UNL     1       3.185  13.722  18.361  0.00  0.00    +0.000 C 
ATOM     13  C   UNL     1       2.074  12.726  18.314  0.00  0.00    +0.000 C 
ATOM     14  C   UNL     1       2.235  11.422  18.030  0.00  0.00    +0.000 C 
ENDBRANCH  11  14
ENDBRANCH   3  11
ENDBRANCH   1   4
BRANCH   1  15
ATOM     15  C   UNL     1       4.022   7.153  18.172  0.00  0.00    +0.000 C 
BRANCH  15  16
ATOM     16  C   UNL     1       4.542   6.120  17.174  0.00  0.00    +0.000 A 
ATOM     17  C   UNL     1       5.252   6.546  16.034  0.00  0.00    +0.000 A 
ATOM     18  C   UNL     1       5.644   5.666  15.029  0.00  0.00    +0.000 A 
ATOM     19  C   UNL     1       5.286   4.334  15.106  0.00  0.00    +0.000 A 
ATOM     20  C   UNL     1       4.545   3.881  16.193  0.00  0.00    +0.000 A 
ATOM     21  C   UNL     1       4.162   4.745  17.244  0.00  0.00    +0.000 A 
BRANCH  21  22
ATOM     22  N   UNL     1       3.400   4.260  18.324  0.00  0.00    +0.000 N 
ATOM     23  C   UNL     1       1.938   4.041  18.138  0.00  0.00    +0.000 C 
ATOM     24  C   UNL     1       1.268   3.789  19.517  0.00  0.00    +0.000 C 
ATOM     25  N   UNL     1       1.909   2.729  20.333  0.00  0.00    +0.000 NA
ATOM     26  C   UNL     1       1.407   2.752  21.708  0.00  0.00    +0.000 C 
ATOM     27  C   UNL     1       3.383   2.893  20.344  0.00  0.00    +0.000 C 
ATOM     28  C   UNL     1       3.986   3.044  18.934  0.00  0.00    +0.000 C 
ENDBRANCH  21  22
ENDBRANCH  15  16
ENDBRANCH   1  15
TORSDOF 6
ENDMDL
MODEL 6
REMARK VINA RESULT:      -7.3      1.608      2.177
REMARK  Name = 
REMARK  9 active torsions:
REMARK  status: ('A' for Active; 'I' for Inactive)
REMARK    1  A    between atoms: C_1  and  C_2
REMARK    2  A    between atoms: C_3  and  C_4
REMARK    3  A    between atoms: C_4  and  C_5
REMARK    4  A    between atoms: C_6  and  N_7
REMARK    5  A    between atoms: N_7  and  C_8
REMARK    6  A    between atoms: C_8  and  C_9
REMARK    7  A    between atoms: C_14  and  N_15
REMARK    8  A    between atoms: N_18  and  C_19
REMARK    9  A    between atoms: N_24  and  C_25
REMARK                            x       y       z     vdW  Elec       q    Type
REMARK                         _______ _______ _______ _____ _____    ______ ____
ROOT
ATOM      1  N   UNL     1       2.433   7.549  19.369  0.00  0.00    +0.000 N 
ATOM      2  H   UNL     1       3.260   7.336  19.930  0.00  0.00    +0.000 HD
ENDROOT
BRANCH   1   4
ATOM      3  C   UNL     1       0.985   9.551  19.662  0.00  0.00    +0.000 A 
ATOM      4  C   UNL     1       1.637   8.444  20.079  0.00  0.00    +0.000 A 
ATOM      5  C   UNL     1       1.352   8.049  21.489  0.00  0.00    +0.000 A 
ATOM      6  N   UNL     1       0.573   8.649  22.331  0.00  0.00    +0.000 NA
ATOM      7  N   UNL     1      -0.045   9.788  21.890  0.00  0.00    +0.000 N 
ATOM      8  C   UNL     1      -0.935  10.458  22.815  0.00  0.00    +0.000 C 
ATOM      9  C   UNL     1       0.116  10.320  20.618  0.00  0.00    +0.000 A 
ATOM     10  O   UNL     1      -0.429  11.366  20.265  0.00  0.00    +0.000 OA
BRANCH   3  11
ATOM     11  C   UNL     1       1.064  10.177  18.292  0.00  0.00    +0.000 C 
BRANCH  11  14
ATOM     12  C   UNL     1       3.167  13.509  18.152  0.00  0.00    +0.000 C 
ATOM     13  C   UNL     1       2.046  12.536  18.312  0.00  0.00    +0.000 C 
ATOM     14  C   UNL     1       2.155  11.212  18.109  0.00  0.00    +0.000 C 
ENDBRANCH  11  14
ENDBRANCH   3  11
ENDBRANCH   1   4
BRANCH   1  15
ATOM     15  C   UNL     1       2.025   6.276  18.719  0.00  0.00    +0.000 C 
BRANCH  15  16
ATOM     16  C   UNL     1       2.156   4.950  19.467  0.00  0.00    +0.000 A 
ATOM     17  C   UNL     1       1.243   4.631  20.490  0.00  0.00    +0.000 A 
ATOM     18  C   UNL     1       1.382   3.499  21.287  0.00  0.00    +0.000 A 
ATOM     19  C   UNL     1       2.479   2.676  21.124  0.00  0.00    +0.000 A 
ATOM     20  C   UNL     1       3.431   2.981  20.155  0.00  0.00    +0.000 A 
ATOM     21  C   UNL     1       3.298   4.105  19.309  0.00  0.00    +0.000 A 
BRANCH  21  22
ATOM     22  N   UNL     1       4.284   4.395  18.348  0.00  0.00    +0.000 N 
ATOM     23  C   UNL     1       5.688   4.616  18.796  0.00  0.00    +0.000 C 
ATOM     24  C   UNL     1       6.525   5.197  17.622  0.00  0.00    +0.000 C 
ATOM     25  N   UNL     1       6.439   4.425  16.358  0.00  0.00    +0.000 NA
ATOM     26  C   UNL     1       7.013   5.183  15.244  0.00  0.00    +0.000 C 
ATOM     27  C   UNL     1       5.031   4.082  16.046  0.00  0.00    +0.000 C 
ATOM     28  C   UNL     1       4.292   3.424  17.229  0.00  0.00    +0.000 C 
ENDBRANCH  21  22
ENDBRANCH  15  16
ENDBRANCH   1  15
TORSDOF 6
ENDMDL
MODEL 7
REMARK VINA RESULT:      -7.2      2.279      3.440
REMARK  Name = 
REMARK  9 active torsions:
REMARK  status: ('A' for Active; 'I' for Inactive)
REMARK    1  A    between atoms: C_1  and  C_2
REMARK    2  A    between atoms: C_3  and  C_4
REMARK    3  A    between atoms: C_4  and  C_5
REMARK    4  A    between atoms: C_6  and  N_7
REMARK    5  A    between atoms: N_7  and  C_8
REMARK    6  A    between atoms: C_8  and  C_9
REMARK    7  A    between atoms: C_14  and  N_15
REMARK    8  A    between atoms: N_18  and  C_19
REMARK    9  A    between atoms: N_24  and  C_25
REMARK                            x       y       z     vdW  Elec       q    Type
REMARK                         _______ _______ _______ _____ _____    ______ ____
ROOT
ATOM      1  N   UNL     1       1.682   8.817  17.806  0.00  0.00    +0.000 N 
ATOM      2  H   UNL     1       1.497   8.715  16.806  0.00  0.00    +0.000 HD
ENDROOT
BRANCH   1   4
ATOM      3  C   UNL     1       0.595  10.741  18.948  0.00  0.00    +0.000 A 
ATOM      4  C   UNL     1       1.515  10.155  18.152  0.00  0.00    +0.000 A 
ATOM      5  C   UNL     1       2.596  11.066  17.677  0.00  0.00    +0.000 A 
ATOM      6  N   UNL     1       2.731  12.328  17.936  0.00  0.00    +0.000 NA
ATOM      7  N   UNL     1       1.762  12.900  18.716  0.00  0.00    +0.000 N 
ATOM      8  C   UNL     1       1.913  14.306  19.031  0.00  0.00    +0.000 C 
ATOM      9  C   UNL     1       0.671  12.216  19.232  0.00  0.00    +0.000 A 
ATOM     10  O   UNL     1      -0.200  12.769  19.902  0.00  0.00    +0.000 OA
BRANCH   3  11
ATOM     11  C   UNL     1      -0.597  10.072  19.587  0.00  0.00    +0.000 C 
BRANCH  11  14
ATOM     12  C   UNL     1      -0.071   9.414  23.438  0.00  0.00    +0.000 C 
ATOM     13  C   UNL     1      -0.288  10.087  22.123  0.00  0.00    +0.000 C 
ATOM     14  C   UNL     1      -0.345   9.446  20.943  0.00  0.00    +0.000 C 
ENDBRANCH  11  14
ENDBRANCH   3  11
ENDBRANCH   1   4
BRANCH   1  15
ATOM     15  C   UNL     1       2.833   7.927  18.113  0.00  0.00    +0.000 C 
BRANCH  15  16
ATOM     16  C   UNL     1       2.635   6.680  18.973  0.00  0.00    +0.000 A 
ATOM     17  C   UNL     1       1.752   6.719  20.070  0.00  0.00    +0.000 A 
ATOM     18  C   UNL     1       1.621   5.657  20.960  0.00  0.00    +0.000 A 
ATOM     19  C   UNL     1       2.418   4.538  20.813  0.00  0.00    +0.000 A 
ATOM     20  C   UNL     1       3.337   4.478  19.770  0.00  0.00    +0.000 A 
ATOM     21  C   UNL     1       3.467   5.527  18.831  0.00  0.00    +0.000 A 
BRANCH  21  22
ATOM     22  N   UNL     1       4.415   5.442  17.795  0.00  0.00    +0.000 N 
ATOM     23  C   UNL     1       5.831   5.812  18.077  0.00  0.00    +0.000 C 
ATOM     24  C   UNL     1       6.619   5.920  16.742  0.00  0.00    +0.000 C 
ATOM     25  N   UNL     1       6.499   4.738  15.854  0.00  0.00    +0.000 NA
ATOM     26  C   UNL     1       7.022   5.031  14.518  0.00  0.00    +0.000 C 
ATOM     27  C   UNL     1       5.085   4.304  15.744  0.00  0.00    +0.000 C 
ATOM     28  C   UNL     1       4.397   4.128  17.112  0.00  0.00    +0.000 C 
ENDBRANCH  21  22
ENDBRANCH  15  16
ENDBRANCH   1  15
TORSDOF 6
ENDMDL
MODEL 8
REMARK VINA RESULT:      -7.2      2.286      3.010
REMARK  Name = 
REMARK  9 active torsions:
REMARK  status: ('A' for Active; 'I' for Inactive)
REMARK    1  A    between atoms: C_1  and  C_2
REMARK    2  A    between atoms: C_3  and  C_4
REMARK    3  A    between atoms: C_4  and  C_5
REMARK    4  A    between atoms: C_6  and  N_7
REMARK    5  A    between atoms: N_7  and  C_8
REMARK    6  A    between atoms: C_8  and  C_9
REMARK    7  A    between atoms: C_14  and  N_15
REMARK    8  A    between atoms: N_18  and  C_19
REMARK    9  A    between atoms: N_24  and  C_25
REMARK                            x       y       z     vdW  Elec       q    Type
REMARK                         _______ _______ _______ _____ _____    ______ ____
ROOT
ATOM      1  N   UNL     1       1.796   9.200  17.562  0.00  0.00    +0.000 N 
ATOM      2  H   UNL     1       1.819   9.292  16.544  0.00  0.00    +0.000 HD
ENDROOT
BRANCH   1   4
ATOM      3  C   UNL     1       0.501  10.860  18.887  0.00  0.00    +0.000 A 
ATOM      4  C   UNL     1       1.528  10.451  18.112  0.00  0.00    +0.000 A 
ATOM      5  C   UNL     1       2.607  11.463  17.927  0.00  0.00    +0.000 A 
ATOM      6  N   UNL     1       2.652  12.663  18.412  0.00  0.00    +0.000 NA
ATOM      7  N   UNL     1       1.579  13.059  19.164  0.00  0.00    +0.000 N 
ATOM      8  C   UNL     1       1.627  14.392  19.730  0.00  0.00    +0.000 C 
ATOM      9  C   UNL     1       0.474  12.263  19.426  0.00  0.00    +0.000 A 
ATOM     10  O   UNL     1      -0.490  12.664  20.079  0.00  0.00    +0.000 OA
BRANCH   3  11
ATOM     11  C   UNL     1      -0.719  10.054  19.261  0.00  0.00    +0.000 C 
BRANCH  11  14
ATOM     12  C   UNL     1      -3.081   9.969  16.106  0.00  0.00    +0.000 C 
ATOM     13  C   UNL     1      -1.885   9.877  16.994  0.00  0.00    +0.000 C 
ATOM     14  C   UNL     1      -1.891  10.164  18.307  0.00  0.00    +0.000 C 
ENDBRANCH  11  14
ENDBRANCH   3  11
ENDBRANCH   1   4
BRANCH   1  15
ATOM     15  C   UNL     1       2.884   8.253  17.924  0.00  0.00    +0.000 C 
BRANCH  15  16
ATOM     16  C   UNL     1       2.604   7.081  18.863  0.00  0.00    +0.000 A 
ATOM     17  C   UNL     1       1.708   7.243  19.937  0.00  0.00    +0.000 A 
ATOM     18  C   UNL     1       1.505   6.254  20.895  0.00  0.00    +0.000 A 
ATOM     19  C   UNL     1       2.241   5.086  20.841  0.00  0.00    +0.000 A 
ATOM     20  C   UNL     1       3.172   4.905  19.822  0.00  0.00    +0.000 A 
ATOM     21  C   UNL     1       3.374   5.878  18.817  0.00  0.00    +0.000 A 
BRANCH  21  22
ATOM     22  N   UNL     1       4.333   5.671  17.807  0.00  0.00    +0.000 N 
ATOM     23  C   UNL     1       5.757   6.011  18.081  0.00  0.00    +0.000 C 
ATOM     24  C   UNL     1       6.567   5.977  16.754  0.00  0.00    +0.000 C 
ATOM     25  N   UNL     1       6.414   4.729  15.968  0.00  0.00    +0.000 NA
ATOM     26  C   UNL     1       6.967   4.889  14.621  0.00  0.00    +0.000 C 
ATOM     27  C   UNL     1       4.986   4.340  15.870  0.00  0.00    +0.000 C 
ATOM     28  C   UNL     1       4.274   4.305  17.237  0.00  0.00    +0.000 C 
ENDBRANCH  21  22
ENDBRANCH  15  16
ENDBRANCH   1  15
TORSDOF 6
ENDMDL
MODEL 9
REMARK VINA RESULT:      -7.1      1.796      2.813
REMARK  Name = 
REMARK  9 active torsions:
REMARK  status: ('A' for Active; 'I' for Inactive)
REMARK    1  A    between atoms: C_1  and  C_2
REMARK    2  A    between atoms: C_3  and  C_4
REMARK    3  A    between atoms: C_4  and  C_5
REMARK    4  A    between atoms: C_6  and  N_7
REMARK    5  A    between atoms: N_7  and  C_8
REMARK    6  A    between atoms: C_8  and  C_9
REMARK    7  A    between atoms: C_14  and  N_15
REMARK    8  A    between atoms: N_18  and  C_19
REMARK    9  A    between atoms: N_24  and  C_25
REMARK                            x       y       z     vdW  Elec       q    Type
REMARK                         _______ _______ _______ _____ _____    ______ ____
ROOT
ATOM      1  N   UNL     1       1.513   6.824  20.984  0.00  0.00    +0.000 N 
ATOM      2  H   UNL     1       0.578   6.415  20.920  0.00  0.00    +0.000 HD
ENDROOT
BRANCH   1   4
ATOM      3  C   UNL     1       1.197   9.287  20.839  0.00  0.00    +0.000 A 
ATOM      4  C   UNL     1       1.498   8.064  20.352  0.00  0.00    +0.000 A 
ATOM      5  C   UNL     1       2.021   8.063  18.956  0.00  0.00    +0.000 A 
ATOM      6  N   UNL     1       2.200   9.086  18.183  0.00  0.00    +0.000 NA
ATOM      7  N   UNL     1       1.852  10.308  18.693  0.00  0.00    +0.000 N 
ATOM      8  C   UNL     1       2.068  11.463  17.846  0.00  0.00    +0.000 C 
ATOM      9  C   UNL     1       1.329  10.502  19.964  0.00  0.00    +0.000 A 
ATOM     10  O   UNL     1       0.995  11.612  20.379  0.00  0.00    +0.000 OA
BRANCH   3  11
ATOM     11  C   UNL     1       0.665   9.600  22.216  0.00  0.00    +0.000 C 
BRANCH  11  14
ATOM     12  C   UNL     1      -2.432  11.874  23.098  0.00  0.00    +0.000 C 
ATOM     13  C   UNL     1      -1.094  11.213  23.129  0.00  0.00    +0.000 C 
ATOM     14  C   UNL     1      -0.690  10.276  22.254  0.00  0.00    +0.000 C 
ENDBRANCH  11  14
ENDBRANCH   3  11
ENDBRANCH   1   4
BRANCH   1  15
ATOM     15  C   UNL     1       2.475   5.707  20.790  0.00  0.00    +0.000 C 
BRANCH  15  16
ATOM     16  C   UNL     1       2.164   4.584  19.801  0.00  0.00    +0.000 A 
ATOM     17  C   UNL     1       1.067   3.732  20.033  0.00  0.00    +0.000 A 
ATOM     18  C   UNL     1       0.806   2.621  19.237  0.00  0.00    +0.000 A 
ATOM     19  C   UNL     1       1.673   2.291  18.214  0.00  0.00    +0.000 A 
ATOM     20  C   UNL     1       2.795   3.080  17.980  0.00  0.00    +0.000 A 
ATOM     21  C   UNL     1       3.067   4.234  18.750  0.00  0.00    +0.000 A 
BRANCH  21  22
ATOM     22  N   UNL     1       4.218   5.004  18.498  0.00  0.00    +0.000 N 
ATOM     23  C   UNL     1       5.548   4.474  18.913  0.00  0.00    +0.000 C 
ATOM     24  C   UNL     1       6.615   5.599  18.802  0.00  0.00    +0.000 C 
ATOM     25  N   UNL     1       6.654   6.289  17.489  0.00  0.00    +0.000 NA
ATOM     26  C   UNL     1       7.470   7.503  17.561  0.00  0.00    +0.000 C 
ATOM     27  C   UNL     1       5.285   6.642  17.040  0.00  0.00    +0.000 C 
ATOM     28  C   UNL     1       4.306   5.453  17.090  0.00  0.00    +0.000 C 
ENDBRANCH  21  22
ENDBRANCH  15  16
ENDBRANCH   1  15
TORSDOF 6
ENDMDL
