MODEL 1
REMARK VINA RESULT:      -7.9      0.000      0.000
REMARK  Name = 
REMARK  14 active torsions:
REMARK  status: ('A' for Active; 'I' for Inactive)
REMARK    1  A    between atoms: C_1  and  C_2
REMARK    2  A    between atoms: C_2  and  C_3
REMARK    3  A    between atoms: C_2  and  C_4
REMARK    4  A    between atoms: C_2  and  O_5
REMARK    5  A    between atoms: O_5  and  C_6
REMARK    6  A    between atoms: N_8  and  C_9
REMARK    7  A    between atoms: C_9  and  C_10
REMARK    8  A    between atoms: C_9  and  C_19
REMARK    9  A    between atoms: C_10  and  C_11
REMARK   10  A    between atoms: C_11  and  O_13
REMARK   11  A    between atoms: O_13  and  C_14
REMARK   12  A    between atoms: C_19  and  O_21
REMARK   13  A    between atoms: O_21  and  C_22
REMARK   14  A    between atoms: C_22  and  C_23
REMARK                            x       y       z     vdW  Elec       q    Type
REMARK                         _______ _______ _______ _____ _____    ______ ____
ROOT
ATOM      1  C   UNL     1       5.376   4.288  17.940  0.00  0.00    +0.000 C 
ENDROOT
BRANCH   1   4
ATOM      2  C   UNL     1       3.974   2.628  19.101  0.00  0.00    +0.000 C 
ATOM      3  O   UNL     1       4.780   2.510  20.013  0.00  0.00    +0.000 OA
ATOM      4  N   UNL     1       4.166   3.478  18.054  0.00  0.00    +0.000 N 
ATOM      5  H   UNL     1       3.493   3.464  17.294  0.00  0.00    +0.000 HD
BRANCH   2   6
ATOM      6  O   UNL     1       2.802   1.961  18.977  0.00  0.00    +0.000 OA
BRANCH   6   8
ATOM      7  C   UNL     1       0.344   1.775  18.926  0.00  0.00    +0.000 C 
ATOM      8  C   UNL     1       1.555   2.704  19.098  0.00  0.00    +0.000 C 
ATOM      9  C   UNL     1       1.509   3.893  18.128  0.00  0.00    +0.000 C 
ATOM     10  C   UNL     1       1.519   3.263  20.533  0.00  0.00    +0.000 C 
ENDBRANCH   6   8
ENDBRANCH   2   6
ENDBRANCH   1   4
BRANCH   1  11
ATOM     11  C   UNL     1       5.444   5.475  18.905  0.00  0.00    +0.000 C 
ATOM     12  O   UNL     1       6.292   5.570  19.786  0.00  0.00    +0.000 OA
BRANCH  11  13
ATOM     13  O   UNL     1       4.456   6.376  18.671  0.00  0.00    +0.000 OA
BRANCH  13  14
ATOM     14  C   UNL     1       3.305   6.284  19.518  0.00  0.00    +0.000 C 
BRANCH  14  15
ATOM     15  C   UNL     1       2.437   7.495  19.296  0.00  0.00    +0.000 A 
ATOM     16  C   UNL     1       1.702   8.046  20.356  0.00  0.00    +0.000 A 
ATOM     17  C   UNL     1       0.900   9.172  20.154  0.00  0.00    +0.000 A 
ATOM     18  C   UNL     1       0.829   9.751  18.889  0.00  0.00    +0.000 A 
ATOM     19 CL   UNL     1      -0.156  11.139  18.638  0.00  0.00    +0.000 Cl
ATOM     20  C   UNL     1       1.550   9.213  17.825  0.00  0.00    +0.000 A 
ATOM     21  C   UNL     1       2.349   8.085  18.027  0.00  0.00    +0.000 A 
ENDBRANCH  14  15
ENDBRANCH  13  14
ENDBRANCH  11  13
ENDBRANCH   1  11
BRANCH   1  22
ATOM     22  C   UNL     1       5.661   4.756  16.511  0.00  0.00    +0.000 C 
BRANCH  22  23
ATOM     23  C   UNL     1       7.137   4.732  16.188  0.00  0.00    +0.000 C 
ATOM     24  O   UNL     1       8.001   4.343  16.957  0.00  0.00    +0.000 OA
BRANCH  23  25
ATOM     25  O   UNL     1       7.362   5.271  14.957  0.00  0.00    +0.000 OA
BRANCH  25  26
ATOM     26  C   UNL     1       7.306   4.360  13.856  0.00  0.00    +0.000 C 
ATOM     27  C   UNL     1       5.915   3.808  13.567  0.00  0.00    +0.000 C 
ATOM     28  C   UNL     1       6.022   3.304  12.133  0.00  0.00    +0.000 C 
ATOM     29  C   UNL     1       7.066   4.192  11.457  0.00  0.00    +0.000 C 
ATOM     30  C   UNL     1       7.626   5.092  12.555  0.00  0.00    +0.000 C 
ENDBRANCH  25  26
ENDBRANCH  23  25
ENDBRANCH  22  23
ENDBRANCH   1  22
TORSDOF 11
ENDMDL
MODEL 2
REMARK VINA RESULT:      -7.9      0.489      1.317
REMARK  Name = 
REMARK  14 active torsions:
REMARK  status: ('A' for Active; 'I' for Inactive)
REMARK    1  A    between atoms: C_1  and  C_2
REMARK    2  A    between atoms: C_2  and  C_3
REMARK    3  A    between atoms: C_2  and  C_4
REMARK    4  A    between atoms: C_2  and  O_5
REMARK    5  A    between atoms: O_5  and  C_6
REMARK    6  A    between atoms: N_8  and  C_9
REMARK    7  A    between atoms: C_9  and  C_10
REMARK    8  A    between atoms: C_9  and  C_19
REMARK    9  A    between atoms: C_10  and  C_11
REMARK   10  A    between atoms: C_11  and  O_13
REMARK   11  A    between atoms: O_13  and  C_14
REMARK   12  A    between atoms: C_19  and  O_21
REMARK   13  A    between atoms: O_21  and  C_22
REMARK   14  A    between atoms: C_22  and  C_23
REMARK                            x       y       z     vdW  Elec       q    Type
REMARK                         _______ _______ _______ _____ _____    ______ ____
ROOT
ATOM      1  C   UNL     1       5.311   4.422  17.733  0.00  0.00    +0.000 C 
ENDROOT
BRANCH   1   4
ATOM      2  C   UNL     1       3.976   2.728  18.925  0.00  0.00    +0.000 C 
ATOM      3  O   UNL     1       4.828   2.590  19.791  0.00  0.00    +0.000 OA
ATOM      4  N   UNL     1       4.110   3.604  17.891  0.00  0.00    +0.000 N 
ATOM      5  H   UNL     1       3.398   3.607  17.168  0.00  0.00    +0.000 HD
BRANCH   2   6
ATOM      6  O   UNL     1       2.800   2.061  18.847  0.00  0.00    +0.000 OA
BRANCH   6   8
ATOM      7  C   UNL     1       1.417   3.912  17.988  0.00  0.00    +0.000 C 
ATOM      8  C   UNL     1       1.558   2.799  19.036  0.00  0.00    +0.000 C 
ATOM      9  C   UNL     1       1.435   3.339  20.468  0.00  0.00    +0.000 C 
ATOM     10  C   UNL     1       0.414   1.792  18.811  0.00  0.00    +0.000 C 
ENDBRANCH   6   8
ENDBRANCH   2   6
ENDBRANCH   1   4
BRANCH   1  11
ATOM     11  C   UNL     1       5.544   5.436  18.855  0.00  0.00    +0.000 C 
ATOM     12  O   UNL     1       6.433   5.312  19.692  0.00  0.00    +0.000 OA
BRANCH  11  13
ATOM     13  O   UNL     1       4.651   6.458  18.810  0.00  0.00    +0.000 OA
BRANCH  13  14
ATOM     14  C   UNL     1       3.426   6.255  19.525  0.00  0.00    +0.000 C 
BRANCH  14  15
ATOM     15  C   UNL     1       2.527   7.443  19.300  0.00  0.00    +0.000 A 
ATOM     16  C   UNL     1       2.451   8.045  18.034  0.00  0.00    +0.000 A 
ATOM     17  C   UNL     1       1.615   9.143  17.821  0.00  0.00    +0.000 A 
ATOM     18  C   UNL     1       0.854   9.647  18.874  0.00  0.00    +0.000 A 
ATOM     19 CL   UNL     1      -0.177  10.999  18.612  0.00  0.00    +0.000 Cl
ATOM     20  C   UNL     1       0.923   9.064  20.137  0.00  0.00    +0.000 A 
ATOM     21  C   UNL     1       1.760   7.966  20.351  0.00  0.00    +0.000 A 
ENDBRANCH  14  15
ENDBRANCH  13  14
ENDBRANCH  11  13
ENDBRANCH   1  11
BRANCH   1  22
ATOM     22  C   UNL     1       5.400   5.113  16.371  0.00  0.00    +0.000 C 
BRANCH  22  23
ATOM     23  C   UNL     1       6.761   4.949  15.738  0.00  0.00    +0.000 C 
ATOM     24  O   UNL     1       7.789   4.745  16.363  0.00  0.00    +0.000 OA
BRANCH  23  25
ATOM     25  O   UNL     1       6.682   5.134  14.390  0.00  0.00    +0.000 OA
BRANCH  25  26
ATOM     26  C   UNL     1       6.478   3.954  13.608  0.00  0.00    +0.000 C 
ATOM     27  C   UNL     1       5.086   3.839  12.996  0.00  0.00    +0.000 C 
ATOM     28  C   UNL     1       5.275   2.831  11.869  0.00  0.00    +0.000 C 
ATOM     29  C   UNL     1       6.722   2.994  11.404  0.00  0.00    +0.000 C 
ATOM     30  C   UNL     1       7.362   3.992  12.364  0.00  0.00    +0.000 C 
ENDBRANCH  25  26
ENDBRANCH  23  25
ENDBRANCH  22  23
ENDBRANCH   1  22
TORSDOF 11
ENDMDL
MODEL 3
REMARK VINA RESULT:      -7.9      1.514      2.267
REMARK  Name = 
REMARK  14 active torsions:
REMARK  status: ('A' for Active; 'I' for Inactive)
REMARK    1  A    between atoms: C_1  and  C_2
REMARK    2  A    between atoms: C_2  and  C_3
REMARK    3  A    between atoms: C_2  and  C_4
REMARK    4  A    between atoms: C_2  and  O_5
REMARK    5  A    between atoms: O_5  and  C_6
REMARK    6  A    between atoms: N_8  and  C_9
REMARK    7  A    between atoms: C_9  and  C_10
REMARK    8  A    between atoms: C_9  and  C_19
REMARK    9  A    between atoms: C_10  and  C_11
REMARK   10  A    between atoms: C_11  and  O_13
REMARK   11  A    between atoms: O_13  and  C_14
REMARK   12  A    between atoms: C_19  and  O_21
REMARK   13  A    between atoms: O_21  and  C_22
REMARK   14  A    between atoms: C_22  and  C_23
REMARK                            x       y       z     vdW  Elec       q    Type
REMARK                         _______ _______ _______ _____ _____    ______ ____
ROOT
ATOM      1  C   UNL     1       4.538   5.588  17.670  0.00  0.00    +0.000 C 
ENDROOT
BRANCH   1   4
ATOM      2  C   UNL     1       4.072   3.680  19.157  0.00  0.00    +0.000 C 
ATOM      3  O   UNL     1       5.223   3.654  19.569  0.00  0.00    +0.000 OA
ATOM      4  N   UNL     1       3.636   4.592  18.244  0.00  0.00    +0.000 N 
ATOM      5  H   UNL     1       2.689   4.503  17.890  0.00  0.00    +0.000 HD
BRANCH   2   6
ATOM      6  O   UNL     1       3.072   2.841  19.521  0.00  0.00    +0.000 OA
BRANCH   6   8
ATOM      7  C   UNL     1       0.659   3.231  19.842  0.00  0.00    +0.000 C 
ATOM      8  C   UNL     1       2.063   3.316  20.458  0.00  0.00    +0.000 C 
ATOM      9  C   UNL     1       2.383   4.728  20.967  0.00  0.00    +0.000 C 
ATOM     10  C   UNL     1       2.106   2.358  21.665  0.00  0.00    +0.000 C 
ENDBRANCH   6   8
ENDBRANCH   2   6
ENDBRANCH   1   4
BRANCH   1  11
ATOM     11  C   UNL     1       3.878   6.928  17.333  0.00  0.00    +0.000 C 
ATOM     12  O   UNL     1       4.026   7.491  16.254  0.00  0.00    +0.000 OA
BRANCH  11  13
ATOM     13  O   UNL     1       3.137   7.403  18.367  0.00  0.00    +0.000 OA
BRANCH  13  14
ATOM     14  C   UNL     1       2.027   8.238  18.016  0.00  0.00    +0.000 C 
BRANCH  14  15
ATOM     15  C   UNL     1       1.383   8.749  19.278  0.00  0.00    +0.000 A 
ATOM     16  C   UNL     1       0.577   9.897  19.249  0.00  0.00    +0.000 A 
ATOM     17  C   UNL     1      -0.025  10.371  20.417  0.00  0.00    +0.000 A 
ATOM     18  C   UNL     1       0.178   9.699  21.620  0.00  0.00    +0.000 A 
ATOM     19 CL   UNL     1      -0.564  10.280  23.059  0.00  0.00    +0.000 Cl
ATOM     20  C   UNL     1       0.979   8.560  21.666  0.00  0.00    +0.000 A 
ATOM     21  C   UNL     1       1.583   8.088  20.499  0.00  0.00    +0.000 A 
ENDBRANCH  14  15
ENDBRANCH  13  14
ENDBRANCH  11  13
ENDBRANCH   1  11
BRANCH   1  22
ATOM     22  C   UNL     1       5.324   5.071  16.464  0.00  0.00    +0.000 C 
BRANCH  22  23
ATOM     23  C   UNL     1       6.795   5.402  16.559  0.00  0.00    +0.000 C 
ATOM     24  O   UNL     1       7.274   6.166  17.381  0.00  0.00    +0.000 OA
BRANCH  23  25
ATOM     25  O   UNL     1       7.486   4.786  15.559  0.00  0.00    +0.000 OA
BRANCH  25  26
ATOM     26  C   UNL     1       6.906   4.872  14.254  0.00  0.00    +0.000 C 
ATOM     27  C   UNL     1       7.918   5.065  13.130  0.00  0.00    +0.000 C 
ATOM     28  C   UNL     1       7.152   4.637  11.884  0.00  0.00    +0.000 C 
ATOM     29  C   UNL     1       6.148   3.585  12.355  0.00  0.00    +0.000 C 
ATOM     30  C   UNL     1       6.272   3.536  13.875  0.00  0.00    +0.000 C 
ENDBRANCH  25  26
ENDBRANCH  23  25
ENDBRANCH  22  23
ENDBRANCH   1  22
TORSDOF 11
ENDMDL
MODEL 4
REMARK VINA RESULT:      -7.8      2.584      6.444
REMARK  Name = 
REMARK  14 active torsions:
REMARK  status: ('A' for Active; 'I' for Inactive)
REMARK    1  A    between atoms: C_1  and  C_2
REMARK    2  A    between atoms: C_2  and  C_3
REMARK    3  A    between atoms: C_2  and  C_4
REMARK    4  A    between atoms: C_2  and  O_5
REMARK    5  A    between atoms: O_5  and  C_6
REMARK    6  A    between atoms: N_8  and  C_9
REMARK    7  A    between atoms: C_9  and  C_10
REMARK    8  A    between atoms: C_9  and  C_19
REMARK    9  A    between atoms: C_10  and  C_11
REMARK   10  A    between atoms: C_11  and  O_13
REMARK   11  A    between atoms: O_13  and  C_14
REMARK   12  A    between atoms: C_19  and  O_21
REMARK   13  A    between atoms: O_21  and  C_22
REMARK   14  A    between atoms: C_22  and  C_23
REMARK                            x       y       z     vdW  Elec       q    Type
REMARK                         _______ _______ _______ _____ _____    ______ ____
ROOT
ATOM      1  C   UNL     1       5.414   5.078  18.368  0.00  0.00    +0.000 C 
ENDROOT
BRANCH   1   4
ATOM      2  C   UNL     1       3.648   3.428  18.847  0.00  0.00    +0.000 C 
ATOM      3  O   UNL     1       3.306   3.377  17.674  0.00  0.00    +0.000 OA
ATOM      4  N   UNL     1       4.672   4.213  19.283  0.00  0.00    +0.000 N 
ATOM      5  H   UNL     1       4.847   4.265  20.281  0.00  0.00    +0.000 HD
BRANCH   2   6
ATOM      6  O   UNL     1       3.091   2.743  19.873  0.00  0.00    +0.000 OA
BRANCH   6   8
ATOM      7  C   UNL     1       0.689   2.488  19.377  0.00  0.00    +0.000 C 
ATOM      8  C   UNL     1       1.747   3.098  20.309  0.00  0.00    +0.000 C 
ATOM      9  C   UNL     1       1.582   4.618  20.448  0.00  0.00    +0.000 C 
ATOM     10  C   UNL     1       1.562   2.473  21.705  0.00  0.00    +0.000 C 
ENDBRANCH   6   8
ENDBRANCH   2   6
ENDBRANCH   1   4
BRANCH   1  11
ATOM     11  C   UNL     1       6.937   4.949  18.461  0.00  0.00    +0.000 C 
ATOM     12  O   UNL     1       7.568   5.218  19.478  0.00  0.00    +0.000 OA
BRANCH  11  13
ATOM     13  O   UNL     1       7.482   4.522  17.293  0.00  0.00    +0.000 OA
BRANCH  13  14
ATOM     14  C   UNL     1       7.463   5.458  16.210  0.00  0.00    +0.000 C 
BRANCH  14  15
ATOM     15  C   UNL     1       6.865   4.791  14.998  0.00  0.00    +0.000 A 
ATOM     16  C   UNL     1       5.673   4.059  15.107  0.00  0.00    +0.000 A 
ATOM     17  C   UNL     1       5.114   3.443  13.986  0.00  0.00    +0.000 A 
ATOM     18  C   UNL     1       5.747   3.554  12.749  0.00  0.00    +0.000 A 
ATOM     19 CL   UNL     1       5.058   2.797  11.366  0.00  0.00    +0.000 Cl
ATOM     20  C   UNL     1       6.933   4.273  12.626  0.00  0.00    +0.000 A 
ATOM     21  C   UNL     1       7.494   4.887  13.749  0.00  0.00    +0.000 A 
ENDBRANCH  14  15
ENDBRANCH  13  14
ENDBRANCH  11  13
ENDBRANCH   1  11
BRANCH   1  22
ATOM     22  C   UNL     1       5.005   6.550  18.459  0.00  0.00    +0.000 C 
BRANCH  22  23
ATOM     23  C   UNL     1       4.034   6.939  17.368  0.00  0.00    +0.000 C 
ATOM     24  O   UNL     1       4.358   7.182  16.217  0.00  0.00    +0.000 OA
BRANCH  23  25
ATOM     25  O   UNL     1       2.773   7.047  17.873  0.00  0.00    +0.000 OA
BRANCH  25  26
ATOM     26  C   UNL     1       2.432   8.317  18.437  0.00  0.00    +0.000 C 
ATOM     27  C   UNL     1       1.338   9.065  17.684  0.00  0.00    +0.000 C 
ATOM     28  C   UNL     1       0.830  10.076  18.705  0.00  0.00    +0.000 C 
ATOM     29  C   UNL     1       1.044   9.428  20.073  0.00  0.00    +0.000 C 
ATOM     30  C   UNL     1       1.789   8.123  19.808  0.00  0.00    +0.000 C 
ENDBRANCH  25  26
ENDBRANCH  23  25
ENDBRANCH  22  23
ENDBRANCH   1  22
TORSDOF 11
ENDMDL
MODEL 5
REMARK VINA RESULT:      -7.8      1.519      2.148
REMARK  Name = 
REMARK  14 active torsions:
REMARK  status: ('A' for Active; 'I' for Inactive)
REMARK    1  A    between atoms: C_1  and  C_2
REMARK    2  A    between atoms: C_2  and  C_3
REMARK    3  A    between atoms: C_2  and  C_4
REMARK    4  A    between atoms: C_2  and  O_5
REMARK    5  A    between atoms: O_5  and  C_6
REMARK    6  A    between atoms: N_8  and  C_9
REMARK    7  A    between atoms: C_9  and  C_10
REMARK    8  A    between atoms: C_9  and  C_19
REMARK    9  A    between atoms: C_10  and  C_11
REMARK   10  A    between atoms: C_11  and  O_13
REMARK   11  A    between atoms: O_13  and  C_14
REMARK   12  A    between atoms: C_19  and  O_21
REMARK   13  A    between atoms: O_21  and  C_22
REMARK   14  A    between atoms: C_22  and  C_23
REMARK                            x       y       z     vdW  Elec       q    Type
REMARK                         _______ _______ _______ _____ _____    ______ ____
ROOT
ATOM      1  C   UNL     1       5.484   6.165  17.644  0.00  0.00    +0.000 C 
ENDROOT
BRANCH   1   4
ATOM      2  C   UNL     1       4.341   4.617  19.183  0.00  0.00    +0.000 C 
ATOM      3  O   UNL     1       4.282   5.459  20.068  0.00  0.00    +0.000 OA
ATOM      4  N   UNL     1       4.892   4.867  17.963  0.00  0.00    +0.000 N 
ATOM      5  H   UNL     1       4.978   4.098  17.307  0.00  0.00    +0.000 HD
BRANCH   2   6
ATOM      6  O   UNL     1       3.888   3.343  19.259  0.00  0.00    +0.000 OA
BRANCH   6   8
ATOM      7  C   UNL     1       2.563   2.062  17.622  0.00  0.00    +0.000 C 
ATOM      8  C   UNL     1       2.538   3.048  18.798  0.00  0.00    +0.000 C 
ATOM      9  C   UNL     1       1.765   4.329  18.458  0.00  0.00    +0.000 C 
ATOM     10  C   UNL     1       1.817   2.360  19.974  0.00  0.00    +0.000 C 
ENDBRANCH   6   8
ENDBRANCH   2   6
ENDBRANCH   1   4
BRANCH   1  11
ATOM     11  C   UNL     1       4.529   7.153  16.968  0.00  0.00    +0.000 C 
ATOM     12  O   UNL     1       4.451   7.276  15.751  0.00  0.00    +0.000 OA
BRANCH  11  13
ATOM     13  O   UNL     1       3.811   7.865  17.874  0.00  0.00    +0.000 OA
BRANCH  13  14
ATOM     14  C   UNL     1       2.393   7.888  17.676  0.00  0.00    +0.000 C 
BRANCH  14  15
ATOM     15  C   UNL     1       1.740   8.491  18.893  0.00  0.00    +0.000 A 
ATOM     16  C   UNL     1       1.790   7.826  20.128  0.00  0.00    +0.000 A 
ATOM     17  C   UNL     1       1.190   8.384  21.258  0.00  0.00    +0.000 A 
ATOM     18  C   UNL     1       0.536   9.610  21.159  0.00  0.00    +0.000 A 
ATOM     19 CL   UNL     1      -0.202  10.301  22.552  0.00  0.00    +0.000 Cl
ATOM     20  C   UNL     1       0.474  10.281  19.940  0.00  0.00    +0.000 A 
ATOM     21  C   UNL     1       1.072   9.721  18.808  0.00  0.00    +0.000 A 
ENDBRANCH  14  15
ENDBRANCH  13  14
ENDBRANCH  11  13
ENDBRANCH   1  11
BRANCH   1  22
ATOM     22  C   UNL     1       6.784   6.059  16.845  0.00  0.00    +0.000 C 
BRANCH  22  23
ATOM     23  C   UNL     1       7.246   4.628  16.696  0.00  0.00    +0.000 C 
ATOM     24  O   UNL     1       8.193   4.147  17.296  0.00  0.00    +0.000 OA
BRANCH  23  25
ATOM     25  O   UNL     1       6.503   3.987  15.751  0.00  0.00    +0.000 OA
BRANCH  25  26
ATOM     26  C   UNL     1       6.489   4.587  14.453  0.00  0.00    +0.000 C 
ATOM     27  C   UNL     1       7.856   5.045  13.957  0.00  0.00    +0.000 C 
ATOM     28  C   UNL     1       7.667   5.167  12.451  0.00  0.00    +0.000 C 
ATOM     29  C   UNL     1       6.599   4.137  12.081  0.00  0.00    +0.000 C 
ATOM     30  C   UNL     1       6.110   3.548  13.401  0.00  0.00    +0.000 C 
ENDBRANCH  25  26
ENDBRANCH  23  25
ENDBRANCH  22  23
ENDBRANCH   1  22
TORSDOF 11
ENDMDL
MODEL 6
REMARK VINA RESULT:      -7.8      1.546      2.141
REMARK  Name = 
REMARK  14 active torsions:
REMARK  status: ('A' for Active; 'I' for Inactive)
REMARK    1  A    between atoms: C_1  and  C_2
REMARK    2  A    between atoms: C_2  and  C_3
REMARK    3  A    between atoms: C_2  and  C_4
REMARK    4  A    between atoms: C_2  and  O_5
REMARK    5  A    between atoms: O_5  and  C_6
REMARK    6  A    between atoms: N_8  and  C_9
REMARK    7  A    between atoms: C_9  and  C_10
REMARK    8  A    between atoms: C_9  and  C_19
REMARK    9  A    between atoms: C_10  and  C_11
REMARK   10  A    between atoms: C_11  and  O_13
REMARK   11  A    between atoms: O_13  and  C_14
REMARK   12  A    between atoms: C_19  and  O_21
REMARK   13  A    between atoms: O_21  and  C_22
REMARK   14  A    between atoms: C_22  and  C_23
REMARK                            x       y       z     vdW  Elec       q    Type
REMARK                         _______ _______ _______ _____ _____    ______ ____
ROOT
ATOM      1  C   UNL     1       4.549   5.553  18.120  0.00  0.00    +0.000 C 
ENDROOT
BRANCH   1   4
ATOM      2  C   UNL     1       4.169   3.828  19.838  0.00  0.00    +0.000 C 
ATOM      3  O   UNL     1       5.136   3.176  19.471  0.00  0.00    +0.000 OA
ATOM      4  N   UNL     1       3.810   5.006  19.256  0.00  0.00    +0.000 N 
ATOM      5  H   UNL     1       2.950   5.451  19.561  0.00  0.00    +0.000 HD
BRANCH   2   6
ATOM      6  O   UNL     1       3.322   3.506  20.845  0.00  0.00    +0.000 OA
BRANCH   6   8
ATOM      7  C   UNL     1       1.313   2.390  21.737  0.00  0.00    +0.000 C 
ATOM      8  C   UNL     1       1.984   3.033  20.515  0.00  0.00    +0.000 C 
ATOM      9  C   UNL     1       2.003   2.088  19.306  0.00  0.00    +0.000 C 
ATOM     10  C   UNL     1       1.165   4.279  20.128  0.00  0.00    +0.000 C 
ENDBRANCH   6   8
ENDBRANCH   2   6
ENDBRANCH   1   4
BRANCH   1  11
ATOM     11  C   UNL     1       3.920   6.798  17.489  0.00  0.00    +0.000 C 
ATOM     12  O   UNL     1       4.476   7.455  16.616  0.00  0.00    +0.000 OA
BRANCH  11  13
ATOM     13  O   UNL     1       2.704   7.078  18.023  0.00  0.00    +0.000 OA
BRANCH  13  14
ATOM     14  C   UNL     1       2.273   8.441  17.928  0.00  0.00    +0.000 C 
BRANCH  14  15
ATOM     15  C   UNL     1       1.557   8.816  19.200  0.00  0.00    +0.000 A 
ATOM     16  C   UNL     1       0.732   9.951  19.242  0.00  0.00    +0.000 A 
ATOM     17  C   UNL     1       0.064  10.297  20.418  0.00  0.00    +0.000 A 
ATOM     18  C   UNL     1       0.219   9.512  21.558  0.00  0.00    +0.000 A 
ATOM     19 CL   UNL     1      -0.606   9.937  23.007  0.00  0.00    +0.000 Cl
ATOM     20  C   UNL     1       1.037   8.385  21.533  0.00  0.00    +0.000 A 
ATOM     21  C   UNL     1       1.708   8.039  20.357  0.00  0.00    +0.000 A 
ENDBRANCH  14  15
ENDBRANCH  13  14
ENDBRANCH  11  13
ENDBRANCH   1  11
BRANCH   1  22
ATOM     22  C   UNL     1       4.857   4.514  17.039  0.00  0.00    +0.000 C 
BRANCH  22  23
ATOM     23  C   UNL     1       6.278   4.620  16.538  0.00  0.00    +0.000 C 
ATOM     24  O   UNL     1       7.262   4.336  17.201  0.00  0.00    +0.000 OA
BRANCH  23  25
ATOM     25  O   UNL     1       6.299   5.141  15.279  0.00  0.00    +0.000 OA
BRANCH  25  26
ATOM     26  C   UNL     1       6.558   4.213  14.222  0.00  0.00    +0.000 C 
ATOM     27  C   UNL     1       5.318   3.778  13.449  0.00  0.00    +0.000 C 
ATOM     28  C   UNL     1       5.883   3.234  12.143  0.00  0.00    +0.000 C 
ATOM     29  C   UNL     1       7.175   4.012  11.894  0.00  0.00    +0.000 C 
ATOM     30  C   UNL     1       7.385   4.885  13.129  0.00  0.00    +0.000 C 
ENDBRANCH  25  26
ENDBRANCH  23  25
ENDBRANCH  22  23
ENDBRANCH   1  22
TORSDOF 11
ENDMDL
MODEL 7
REMARK VINA RESULT:      -7.6      1.707      2.463
REMARK  Name = 
REMARK  14 active torsions:
REMARK  status: ('A' for Active; 'I' for Inactive)
REMARK    1  A    between atoms: C_1  and  C_2
REMARK    2  A    between atoms: C_2  and  C_3
REMARK    3  A    between atoms: C_2  and  C_4
REMARK    4  A    between atoms: C_2  and  O_5
REMARK    5  A    between atoms: O_5  and  C_6
REMARK    6  A    between atoms: N_8  and  C_9
REMARK    7  A    between atoms: C_9  and  C_10
REMARK    8  A    between atoms: C_9  and  C_19
REMARK    9  A    between atoms: C_10  and  C_11
REMARK   10  A    between atoms: C_11  and  O_13
REMARK   11  A    between atoms: O_13  and  C_14
REMARK   12  A    between atoms: C_19  and  O_21
REMARK   13  A    between atoms: O_21  and  C_22
REMARK   14  A    between atoms: C_22  and  C_23
REMARK                            x       y       z     vdW  Elec       q    Type
REMARK                         _______ _______ _______ _____ _____    ______ ____
ROOT
ATOM      1  C   UNL     1       3.883   6.410  17.733  0.00  0.00    +0.000 C 
ENDROOT
BRANCH   1   4
ATOM      2  C   UNL     1       3.442   4.372  19.046  0.00  0.00    +0.000 C 
ATOM      3  O   UNL     1       4.076   4.790  20.005  0.00  0.00    +0.000 OA
ATOM      4  N   UNL     1       3.278   5.090  17.901  0.00  0.00    +0.000 N 
ATOM      5  H   UNL     1       2.808   4.647  17.118  0.00  0.00    +0.000 HD
BRANCH   2   6
ATOM      6  O   UNL     1       2.821   3.171  18.960  0.00  0.00    +0.000 OA
BRANCH   6   8
ATOM      7  C   UNL     1       1.977   2.273  21.095  0.00  0.00    +0.000 C 
ATOM      8  C   UNL     1       1.624   2.940  19.757  0.00  0.00    +0.000 C 
ATOM      9  C   UNL     1       0.571   2.141  18.977  0.00  0.00    +0.000 C 
ATOM     10  C   UNL     1       1.032   4.328  20.065  0.00  0.00    +0.000 C 
ENDBRANCH   6   8
ENDBRANCH   2   6
ENDBRANCH   1   4
BRANCH   1  11
ATOM     11  C   UNL     1       2.904   7.581  17.849  0.00  0.00    +0.000 C 
ATOM     12  O   UNL     1       3.021   8.614  17.199  0.00  0.00    +0.000 OA
BRANCH  11  13
ATOM     13  O   UNL     1       1.922   7.334  18.754  0.00  0.00    +0.000 OA
BRANCH  13  14
ATOM     14  C   UNL     1       2.232   7.642  20.119  0.00  0.00    +0.000 C 
BRANCH  14  15
ATOM     15  C   UNL     1       1.261   8.681  20.616  0.00  0.00    +0.000 A 
ATOM     16  C   UNL     1       0.753   9.655  19.742  0.00  0.00    +0.000 A 
ATOM     17  C   UNL     1      -0.150  10.616  20.199  0.00  0.00    +0.000 A 
ATOM     18  C   UNL     1      -0.550  10.609  21.534  0.00  0.00    +0.000 A 
ATOM     19 CL   UNL     1      -1.665  11.791  22.098  0.00  0.00    +0.000 Cl
ATOM     20  C   UNL     1      -0.052   9.651  22.415  0.00  0.00    +0.000 A 
ATOM     21  C   UNL     1       0.854   8.691  21.958  0.00  0.00    +0.000 A 
ENDBRANCH  14  15
ENDBRANCH  13  14
ENDBRANCH  11  13
ENDBRANCH   1  11
BRANCH   1  22
ATOM     22  C   UNL     1       4.710   6.540  16.453  0.00  0.00    +0.000 C 
BRANCH  22  23
ATOM     23  C   UNL     1       5.942   5.665  16.479  0.00  0.00    +0.000 C 
ATOM     24  O   UNL     1       6.234   4.921  17.400  0.00  0.00    +0.000 OA
BRANCH  23  25
ATOM     25  O   UNL     1       6.702   5.884  15.370  0.00  0.00    +0.000 OA
BRANCH  25  26
ATOM     26  C   UNL     1       6.861   4.768  14.490  0.00  0.00    +0.000 C 
ATOM     27  C   UNL     1       5.552   4.193  13.962  0.00  0.00    +0.000 C 
ATOM     28  C   UNL     1       5.979   3.404  12.731  0.00  0.00    +0.000 C 
ATOM     29  C   UNL     1       7.219   4.117  12.191  0.00  0.00    +0.000 C 
ATOM     30  C   UNL     1       7.547   5.212  13.201  0.00  0.00    +0.000 C 
ENDBRANCH  25  26
ENDBRANCH  23  25
ENDBRANCH  22  23
ENDBRANCH   1  22
TORSDOF 11
ENDMDL
MODEL 8
REMARK VINA RESULT:      -7.6      3.800      7.035
REMARK  Name = 
REMARK  14 active torsions:
REMARK  status: ('A' for Active; 'I' for Inactive)
REMARK    1  A    between atoms: C_1  and  C_2
REMARK    2  A    between atoms: C_2  and  C_3
REMARK    3  A    between atoms: C_2  and  C_4
REMARK    4  A    between atoms: C_2  and  O_5
REMARK    5  A    between atoms: O_5  and  C_6
REMARK    6  A    between atoms: N_8  and  C_9
REMARK    7  A    between atoms: C_9  and  C_10
REMARK    8  A    between atoms: C_9  and  C_19
REMARK    9  A    between atoms: C_10  and  C_11
REMARK   10  A    between atoms: C_11  and  O_13
REMARK   11  A    between atoms: O_13  and  C_14
REMARK   12  A    between atoms: C_19  and  O_21
REMARK   13  A    between atoms: O_21  and  C_22
REMARK   14  A    between atoms: C_22  and  C_23
REMARK                            x       y       z     vdW  Elec       q    Type
REMARK                         _______ _______ _______ _____ _____    ______ ____
ROOT
ATOM      1  C   UNL     1       5.910   6.027  16.099  0.00  0.00    +0.000 C 
ENDROOT
BRANCH   1   4
ATOM      2  C   UNL     1       6.662   4.605  14.231  0.00  0.00    +0.000 C 
ATOM      3  O   UNL     1       7.455   5.450  13.840  0.00  0.00    +0.000 OA
ATOM      4  N   UNL     1       5.876   4.785  15.329  0.00  0.00    +0.000 N 
ATOM      5  H   UNL     1       5.185   4.074  15.547  0.00  0.00    +0.000 HD
BRANCH   2   6
ATOM      6  O   UNL     1       6.435   3.396  13.664  0.00  0.00    +0.000 OA
BRANCH   6   8
ATOM      7  C   UNL     1       4.720   3.785  11.936  0.00  0.00    +0.000 C 
ATOM      8  C   UNL     1       6.156   3.331  12.236  0.00  0.00    +0.000 C 
ATOM      9  C   UNL     1       6.448   1.935  11.667  0.00  0.00    +0.000 C 
ATOM     10  C   UNL     1       7.117   4.327  11.559  0.00  0.00    +0.000 C 
ENDBRANCH   6   8
ENDBRANCH   2   6
ENDBRANCH   1   4
BRANCH   1  11
ATOM     11  C   UNL     1       7.172   6.219  16.945  0.00  0.00    +0.000 C 
ATOM     12  O   UNL     1       7.809   5.281  17.412  0.00  0.00    +0.000 OA
BRANCH  11  13
ATOM     13  O   UNL     1       7.473   7.531  17.115  0.00  0.00    +0.000 OA
BRANCH  13  14
ATOM     14  C   UNL     1       8.105   7.877  18.354  0.00  0.00    +0.000 C 
BRANCH  14  15
ATOM     15  C   UNL     1       8.467   9.339  18.325  0.00  0.00    +0.000 A 
ATOM     16  C   UNL     1       7.804  10.218  17.454  0.00  0.00    +0.000 A 
ATOM     17  C   UNL     1       8.134  11.574  17.429  0.00  0.00    +0.000 A 
ATOM     18  C   UNL     1       9.132  12.058  18.273  0.00  0.00    +0.000 A 
ATOM     19 CL   UNL     1       9.539  13.730  18.244  0.00  0.00    +0.000 Cl
ATOM     20  C   UNL     1       9.802  11.198  19.140  0.00  0.00    +0.000 A 
ATOM     21  C   UNL     1       9.473   9.841  19.164  0.00  0.00    +0.000 A 
ENDBRANCH  14  15
ENDBRANCH  13  14
ENDBRANCH  11  13
ENDBRANCH   1  11
BRANCH   1  22
ATOM     22  C   UNL     1       4.663   6.244  16.958  0.00  0.00    +0.000 C 
BRANCH  22  23
ATOM     23  C   UNL     1       4.390   5.071  17.870  0.00  0.00    +0.000 C 
ATOM     24  O   UNL     1       4.992   4.011  17.824  0.00  0.00    +0.000 OA
BRANCH  23  25
ATOM     25  O   UNL     1       3.337   5.344  18.691  0.00  0.00    +0.000 OA
BRANCH  25  26
ATOM     26  C   UNL     1       2.713   4.213  19.305  0.00  0.00    +0.000 C 
ATOM     27  C   UNL     1       1.907   4.543  20.557  0.00  0.00    +0.000 C 
ATOM     28  C   UNL     1       0.985   3.341  20.714  0.00  0.00    +0.000 C 
ATOM     29  C   UNL     1       0.742   2.815  19.299  0.00  0.00    +0.000 C 
ATOM     30  C   UNL     1       1.637   3.646  18.384  0.00  0.00    +0.000 C 
ENDBRANCH  25  26
ENDBRANCH  23  25
ENDBRANCH  22  23
ENDBRANCH   1  22
TORSDOF 11
ENDMDL
MODEL 9
REMARK VINA RESULT:      -7.6      4.967      9.840
REMARK  Name = 
REMARK  14 active torsions:
REMARK  status: ('A' for Active; 'I' for Inactive)
REMARK    1  A    between atoms: C_1  and  C_2
REMARK    2  A    between atoms: C_2  and  C_3
REMARK    3  A    between atoms: C_2  and  C_4
REMARK    4  A    between atoms: C_2  and  O_5
REMARK    5  A    between atoms: O_5  and  C_6
REMARK    6  A    between atoms: N_8  and  C_9
REMARK    7  A    between atoms: C_9  and  C_10
REMARK    8  A    between atoms: C_9  and  C_19
REMARK    9  A    between atoms: C_10  and  C_11
REMARK   10  A    between atoms: C_11  and  O_13
REMARK   11  A    between atoms: O_13  and  C_14
REMARK   12  A    between atoms: C_19  and  O_21
REMARK   13  A    between atoms: O_21  and  C_22
REMARK   14  A    between atoms: C_22  and  C_23
REMARK                            x       y       z     vdW  Elec       q    Type
REMARK                         _______ _______ _______ _____ _____    ______ ____
ROOT
ATOM      1  C   UNL     1       0.481  10.161  19.087  0.00  0.00    +0.000 C 
ENDROOT
BRANCH   1   4
ATOM      2  C   UNL     1      -1.086  11.700  17.970  0.00  0.00    +0.000 C 
ATOM      3  O   UNL     1      -0.567  12.681  18.483  0.00  0.00    +0.000 OA
ATOM      4  N   UNL     1      -0.639  10.431  18.188  0.00  0.00    +0.000 N 
ATOM      5  H   UNL     1      -1.167   9.661  17.792  0.00  0.00    +0.000 HD
BRANCH   2   6
ATOM      6  O   UNL     1      -2.149  11.702  17.131  0.00  0.00    +0.000 OA
BRANCH   6   8
ATOM      7  C   UNL     1      -3.798  11.842  18.959  0.00  0.00    +0.000 C 
ATOM      8  C   UNL     1      -3.427  11.198  17.615  0.00  0.00    +0.000 C 
ATOM      9  C   UNL     1      -3.437   9.665  17.691  0.00  0.00    +0.000 C 
ATOM     10  C   UNL     1      -4.485  11.627  16.580  0.00  0.00    +0.000 C 
ENDBRANCH   6   8
ENDBRANCH   2   6
ENDBRANCH   1   4
BRANCH   1  11
ATOM     11  C   UNL     1       1.559   9.243  18.504  0.00  0.00    +0.000 C 
ATOM     12  O   UNL     1       1.992   9.364  17.363  0.00  0.00    +0.000 OA
BRANCH  11  13
ATOM     13  O   UNL     1       1.951   8.292  19.391  0.00  0.00    +0.000 OA
BRANCH  13  14
ATOM     14  C   UNL     1       2.940   7.366  18.927  0.00  0.00    +0.000 C 
BRANCH  14  15
ATOM     15  C   UNL     1       2.352   5.979  18.940  0.00  0.00    +0.000 A 
ATOM     16  C   UNL     1       1.909   5.406  20.142  0.00  0.00    +0.000 A 
ATOM     17  C   UNL     1       1.360   4.123  20.156  0.00  0.00    +0.000 A 
ATOM     18  C   UNL     1       1.253   3.404  18.967  0.00  0.00    +0.000 A 
ATOM     19 CL   UNL     1       0.574   1.823  18.983  0.00  0.00    +0.000 Cl
ATOM     20  C   UNL     1       1.692   3.957  17.766  0.00  0.00    +0.000 A 
ATOM     21  C   UNL     1       2.243   5.240  17.753  0.00  0.00    +0.000 A 
ENDBRANCH  14  15
ENDBRANCH  13  14
ENDBRANCH  11  13
ENDBRANCH   1  11
BRANCH   1  22
ATOM     22  C   UNL     1       0.047   9.654  20.463  0.00  0.00    +0.000 C 
BRANCH  22  23
ATOM     23  C   UNL     1       0.740  10.390  21.586  0.00  0.00    +0.000 C 
ATOM     24  O   UNL     1       1.524   9.873  22.364  0.00  0.00    +0.000 OA
BRANCH  23  25
ATOM     25  O   UNL     1       0.308  11.681  21.643  0.00  0.00    +0.000 OA
BRANCH  25  26
ATOM     26  C   UNL     1      -1.098  11.863  21.830  0.00  0.00    +0.000 C 
ATOM     27  C   UNL     1      -1.616  11.401  23.187  0.00  0.00    +0.000 C 
ATOM     28  C   UNL     1      -2.949  12.126  23.326  0.00  0.00    +0.000 C 
ATOM     29  C   UNL     1      -2.797  13.428  22.540  0.00  0.00    +0.000 C 
ATOM     30  C   UNL     1      -1.432  13.352  21.861  0.00  0.00    +0.000 C 
ENDBRANCH  25  26
ENDBRANCH  23  25
ENDBRANCH  22  23
ENDBRANCH   1  22
TORSDOF 11
ENDMDL
