MODEL 1
REMARK VINA RESULT:      -8.4      0.000      0.000
REMARK  Name = 
REMARK  7 active torsions:
REMARK  status: ('A' for Active; 'I' for Inactive)
REMARK    1  A    between atoms: C_1  and  C_2
REMARK    2  A    between atoms: C_7  and  C_8
REMARK    3  A    between atoms: C_11  and  C_12
REMARK    4  A    between atoms: C_12  and  S_13
REMARK    5  A    between atoms: S_13  and  C_14
REMARK    6  A    between atoms: C_17  and  C_18
REMARK    7  A    between atoms: N_24  and  C_25
REMARK                            x       y       z     vdW  Elec       q    Type
REMARK                         _______ _______ _______ _____ _____    ______ ____
ROOT
ATOM      1  C   UNL     1       5.726   5.536  18.084  0.00  0.00    +0.000 A 
ATOM      2  N   UNL     1       6.310   4.385  18.331  0.00  0.00    +0.000 NA
ATOM      3  N   UNL     1       5.399   3.588  18.977  0.00  0.00    +0.000 NA
ATOM      4  C   UNL     1       4.253   4.241  19.081  0.00  0.00    +0.000 A 
ATOM      5  N   UNL     1       4.434   5.543  18.594  0.00  0.00    +0.000 N 
ENDROOT
BRANCH   5   6
ATOM      6  C   UNL     1       3.504   6.632  18.640  0.00  0.00    +0.000 A 
ATOM      7  C   UNL     1       2.759   6.875  19.808  0.00  0.00    +0.000 A 
ATOM      8  C   UNL     1       1.820   7.911  19.842  0.00  0.00    +0.000 A 
ATOM      9  C   UNL     1       1.657   8.729  18.733  0.00  0.00    +0.000 A 
ATOM     10  F   UNL     1       0.767   9.730  18.770  0.00  0.00    +0.000 F 
ATOM     11  C   UNL     1       2.398   8.518  17.579  0.00  0.00    +0.000 A 
ATOM     12  C   UNL     1       3.303   7.457  17.525  0.00  0.00    +0.000 A 
ENDBRANCH   5   6
BRANCH   4  13
ATOM     13  C   UNL     1       2.992   3.628  19.547  0.00  0.00    +0.000 A 
ATOM     14  C   UNL     1       2.745   3.468  20.914  0.00  0.00    +0.000 A 
ATOM     15  C   UNL     1       1.534   2.915  21.315  0.00  0.00    +0.000 A 
ATOM     16  N   UNL     1       0.568   2.525  20.459  0.00  0.00    +0.000 NA
ATOM     17  C   UNL     1       0.834   2.654  19.146  0.00  0.00    +0.000 A 
ATOM     18  C   UNL     1       2.022   3.163  18.651  0.00  0.00    +0.000 A 
ENDBRANCH   4  13
BRANCH   1  19
ATOM     19  S   UNL     1       6.526   6.929  17.424  0.00  0.00    +0.000 S 
BRANCH  19  20
ATOM     20  C   UNL     1       7.973   7.194  18.485  0.00  0.00    +0.000 C 
BRANCH  20  24
ATOM     21  C   UNL     1       9.168  10.573  18.566  0.00  0.00    +0.000 A 
ATOM     22  N   UNL     1       8.144  10.726  17.706  0.00  0.00    +0.000 NA
ATOM     23  O   UNL     1       7.624   9.434  17.567  0.00  0.00    +0.000 OA
ATOM     24  C   UNL     1       8.378   8.624  18.367  0.00  0.00    +0.000 A 
ATOM     25  N   UNL     1       9.333   9.271  18.992  0.00  0.00    +0.000 NA
BRANCH  21  32
ATOM     26  C   UNL     1       8.886  11.692  21.340  0.00  0.00    +0.000 C 
ATOM     27  C   UNL     1       9.884  12.217  20.340  0.00  0.00    +0.000 A 
ATOM     28  C   UNL     1      10.707  13.290  20.730  0.00  0.00    +0.000 A 
ATOM     29  C   UNL     1      11.665  13.812  19.865  0.00  0.00    +0.000 A 
ATOM     30  C   UNL     1      11.818  13.270  18.594  0.00  0.00    +0.000 A 
ATOM     31  C   UNL     1      11.004  12.205  18.187  0.00  0.00    +0.000 A 
ATOM     32  C   UNL     1      10.022  11.668  19.043  0.00  0.00    +0.000 A 
ENDBRANCH  21  32
ENDBRANCH  20  24
ENDBRANCH  19  20
ENDBRANCH   1  19
TORSDOF 6
ENDMDL
MODEL 2
REMARK VINA RESULT:      -8.4      5.060      8.351
REMARK  Name = 
REMARK  7 active torsions:
REMARK  status: ('A' for Active; 'I' for Inactive)
REMARK    1  A    between atoms: C_1  and  C_2
REMARK    2  A    between atoms: C_7  and  C_8
REMARK    3  A    between atoms: C_11  and  C_12
REMARK    4  A    between atoms: C_12  and  S_13
REMARK    5  A    between atoms: S_13  and  C_14
REMARK    6  A    between atoms: C_17  and  C_18
REMARK    7  A    between atoms: N_24  and  C_25
REMARK                            x       y       z     vdW  Elec       q    Type
REMARK                         _______ _______ _______ _____ _____    ______ ____
ROOT
ATOM      1  C   UNL     1       0.914   9.032  21.299  0.00  0.00    +0.000 A 
ATOM      2  N   UNL     1       1.323   9.010  22.547  0.00  0.00    +0.000 NA
ATOM      3  N   UNL     1       0.703  10.043  23.204  0.00  0.00    +0.000 NA
ATOM      4  C   UNL     1      -0.112  10.660  22.364  0.00  0.00    +0.000 A 
ATOM      5  N   UNL     1       0.050  10.098  21.090  0.00  0.00    +0.000 N 
ENDROOT
BRANCH   5   6
ATOM      6  C   UNL     1      -0.527  10.545  19.857  0.00  0.00    +0.000 A 
ATOM      7  C   UNL     1      -0.172  11.797  19.323  0.00  0.00    +0.000 A 
ATOM      8  C   UNL     1      -0.766  12.254  18.142  0.00  0.00    +0.000 A 
ATOM      9  C   UNL     1      -1.674  11.448  17.472  0.00  0.00    +0.000 A 
ATOM     10  F   UNL     1      -2.233  11.879  16.333  0.00  0.00    +0.000 F 
ATOM     11  C   UNL     1      -2.021  10.200  17.970  0.00  0.00    +0.000 A 
ATOM     12  C   UNL     1      -1.466   9.760  19.173  0.00  0.00    +0.000 A 
ENDBRANCH   5   6
BRANCH   4  13
ATOM     13  C   UNL     1      -1.084  11.696  22.768  0.00  0.00    +0.000 A 
ATOM     14  C   UNL     1      -2.348  11.334  23.245  0.00  0.00    +0.000 A 
ATOM     15  C   UNL     1      -3.225  12.336  23.645  0.00  0.00    +0.000 A 
ATOM     16  N   UNL     1      -2.926  13.651  23.610  0.00  0.00    +0.000 NA
ATOM     17  C   UNL     1      -1.720  13.986  23.118  0.00  0.00    +0.000 A 
ATOM     18  C   UNL     1      -0.793  13.062  22.665  0.00  0.00    +0.000 A 
ENDBRANCH   4  13
BRANCH   1  19
ATOM     19  S   UNL     1       1.542   8.017  20.036  0.00  0.00    +0.000 S 
BRANCH  19  20
ATOM     20  C   UNL     1       1.525   6.338  20.720  0.00  0.00    +0.000 C 
BRANCH  20  24
ATOM     21  C   UNL     1       4.109   4.748  18.812  0.00  0.00    +0.000 A 
ATOM     22  N   UNL     1       3.804   3.738  19.648  0.00  0.00    +0.000 NA
ATOM     23  O   UNL     1       2.816   4.275  20.481  0.00  0.00    +0.000 OA
ATOM     24  C   UNL     1       2.610   5.557  20.060  0.00  0.00    +0.000 A 
ATOM     25  N   UNL     1       3.376   5.892  19.050  0.00  0.00    +0.000 NA
BRANCH  21  32
ATOM     26  C   UNL     1       6.982   5.514  19.239  0.00  0.00    +0.000 C 
ATOM     27  C   UNL     1       6.448   5.037  17.914  0.00  0.00    +0.000 A 
ATOM     28  C   UNL     1       7.343   4.964  16.830  0.00  0.00    +0.000 A 
ATOM     29  C   UNL     1       6.923   4.512  15.581  0.00  0.00    +0.000 A 
ATOM     30  C   UNL     1       5.601   4.125  15.394  0.00  0.00    +0.000 A 
ATOM     31  C   UNL     1       4.696   4.196  16.461  0.00  0.00    +0.000 A 
ATOM     32  C   UNL     1       5.097   4.659  17.729  0.00  0.00    +0.000 A 
ENDBRANCH  21  32
ENDBRANCH  20  24
ENDBRANCH  19  20
ENDBRANCH   1  19
TORSDOF 6
ENDMDL
MODEL 3
REMARK VINA RESULT:      -8.3      0.400      1.495
REMARK  Name = 
REMARK  7 active torsions:
REMARK  status: ('A' for Active; 'I' for Inactive)
REMARK    1  A    between atoms: C_1  and  C_2
REMARK    2  A    between atoms: C_7  and  C_8
REMARK    3  A    between atoms: C_11  and  C_12
REMARK    4  A    between atoms: C_12  and  S_13
REMARK    5  A    between atoms: S_13  and  C_14
REMARK    6  A    between atoms: C_17  and  C_18
REMARK    7  A    between atoms: N_24  and  C_25
REMARK                            x       y       z     vdW  Elec       q    Type
REMARK                         _______ _______ _______ _____ _____    ______ ____
ROOT
ATOM      1  C   UNL     1       5.828   5.589  18.097  0.00  0.00    +0.000 A 
ATOM      2  N   UNL     1       6.426   4.448  18.356  0.00  0.00    +0.000 NA
ATOM      3  N   UNL     1       5.521   3.645  19.003  0.00  0.00    +0.000 NA
ATOM      4  C   UNL     1       4.366   4.284  19.097  0.00  0.00    +0.000 A 
ATOM      5  N   UNL     1       4.534   5.584  18.600  0.00  0.00    +0.000 N 
ENDROOT
BRANCH   5   6
ATOM      6  C   UNL     1       3.589   6.661  18.633  0.00  0.00    +0.000 A 
ATOM      7  C   UNL     1       2.827   6.897  19.791  0.00  0.00    +0.000 A 
ATOM      8  C   UNL     1       1.875   7.922  19.811  0.00  0.00    +0.000 A 
ATOM      9  C   UNL     1       1.716   8.736  18.699  0.00  0.00    +0.000 A 
ATOM     10  F   UNL     1       0.813   9.725  18.723  0.00  0.00    +0.000 F 
ATOM     11  C   UNL     1       2.473   8.532  17.555  0.00  0.00    +0.000 A 
ATOM     12  C   UNL     1       3.392   7.482  17.514  0.00  0.00    +0.000 A 
ENDBRANCH   5   6
BRANCH   4  13
ATOM     13  C   UNL     1       3.112   3.658  19.561  0.00  0.00    +0.000 A 
ATOM     14  C   UNL     1       2.111   3.314  18.647  0.00  0.00    +0.000 A 
ATOM     15  C   UNL     1       0.957   2.698  19.118  0.00  0.00    +0.000 A 
ATOM     16  N   UNL     1       0.743   2.400  20.416  0.00  0.00    +0.000 NA
ATOM     17  C   UNL     1       1.699   2.768  21.288  0.00  0.00    +0.000 A 
ATOM     18  C   UNL     1       2.866   3.414  20.918  0.00  0.00    +0.000 A 
ENDBRANCH   4  13
BRANCH   1  19
ATOM     19  S   UNL     1       6.614   6.987  17.430  0.00  0.00    +0.000 S 
BRANCH  19  20
ATOM     20  C   UNL     1       8.067   7.265  18.481  0.00  0.00    +0.000 C 
BRANCH  20  24
ATOM     21  C   UNL     1       8.996  10.713  18.786  0.00  0.00    +0.000 A 
ATOM     22  N   UNL     1       8.204  10.797  17.700  0.00  0.00    +0.000 NA
ATOM     23  O   UNL     1       7.814   9.474  17.464  0.00  0.00    +0.000 OA
ATOM     24  C   UNL     1       8.399   8.717  18.437  0.00  0.00    +0.000 A 
ATOM     25  N   UNL     1       9.132   9.426  19.263  0.00  0.00    +0.000 NA
BRANCH  21  32
ATOM     26  C   UNL     1      11.295  12.157  17.499  0.00  0.00    +0.000 C 
ATOM     27  C   UNL     1      10.737  12.537  18.845  0.00  0.00    +0.000 A 
ATOM     28  C   UNL     1      11.337  13.612  19.529  0.00  0.00    +0.000 A 
ATOM     29  C   UNL     1      10.860  14.030  20.769  0.00  0.00    +0.000 A 
ATOM     30  C   UNL     1       9.774  13.383  21.347  0.00  0.00    +0.000 A 
ATOM     31  C   UNL     1       9.168  12.309  20.683  0.00  0.00    +0.000 A 
ATOM     32  C   UNL     1       9.640  11.863  19.434  0.00  0.00    +0.000 A 
ENDBRANCH  21  32
ENDBRANCH  20  24
ENDBRANCH  19  20
ENDBRANCH   1  19
TORSDOF 6
ENDMDL
MODEL 4
REMARK VINA RESULT:      -8.2      6.089     10.050
REMARK  Name = 
REMARK  7 active torsions:
REMARK  status: ('A' for Active; 'I' for Inactive)
REMARK    1  A    between atoms: C_1  and  C_2
REMARK    2  A    between atoms: C_7  and  C_8
REMARK    3  A    between atoms: C_11  and  C_12
REMARK    4  A    between atoms: C_12  and  S_13
REMARK    5  A    between atoms: S_13  and  C_14
REMARK    6  A    between atoms: C_17  and  C_18
REMARK    7  A    between atoms: N_24  and  C_25
REMARK                            x       y       z     vdW  Elec       q    Type
REMARK                         _______ _______ _______ _____ _____    ______ ____
ROOT
ATOM      1  C   UNL     1       0.061  11.162  20.899  0.00  0.00    +0.000 A 
ATOM      2  N   UNL     1       1.041  11.772  21.525  0.00  0.00    +0.000 NA
ATOM      3  N   UNL     1       1.013  13.092  21.151  0.00  0.00    +0.000 NA
ATOM      4  C   UNL     1      -0.009  13.286  20.333  0.00  0.00    +0.000 A 
ATOM      5  N   UNL     1      -0.610  12.048  20.068  0.00  0.00    +0.000 N 
ENDROOT
BRANCH   5   6
ATOM      6  C   UNL     1      -1.659  11.768  19.132  0.00  0.00    +0.000 A 
ATOM      7  C   UNL     1      -2.995  12.061  19.460  0.00  0.00    +0.000 A 
ATOM      8  C   UNL     1      -4.024  11.750  18.565  0.00  0.00    +0.000 A 
ATOM      9  C   UNL     1      -3.720  11.193  17.332  0.00  0.00    +0.000 A 
ATOM     10  F   UNL     1      -4.704  10.907  16.470  0.00  0.00    +0.000 F 
ATOM     11  C   UNL     1      -2.406  10.915  16.982  0.00  0.00    +0.000 A 
ATOM     12  C   UNL     1      -1.380  11.182  17.890  0.00  0.00    +0.000 A 
ENDBRANCH   5   6
BRANCH   4  13
ATOM     13  C   UNL     1      -0.464  14.617  19.882  0.00  0.00    +0.000 A 
ATOM     14  C   UNL     1      -1.435  15.317  20.604  0.00  0.00    +0.000 A 
ATOM     15  C   UNL     1      -1.815  16.581  20.166  0.00  0.00    +0.000 A 
ATOM     16  N   UNL     1      -1.293  17.185  19.078  0.00  0.00    +0.000 NA
ATOM     17  C   UNL     1      -0.384  16.486  18.374  0.00  0.00    +0.000 A 
ATOM     18  C   UNL     1       0.033  15.210  18.714  0.00  0.00    +0.000 A 
ENDBRANCH   4  13
BRANCH   1  19
ATOM     19  S   UNL     1      -0.211   9.446  20.926  0.00  0.00    +0.000 S 
BRANCH  19  20
ATOM     20  C   UNL     1       1.394   8.715  21.347  0.00  0.00    +0.000 C 
BRANCH  20  24
ATOM     21  C   UNL     1       2.349   6.136  19.047  0.00  0.00    +0.000 A 
ATOM     22  N   UNL     1       2.545   7.211  18.261  0.00  0.00    +0.000 NA
ATOM     23  O   UNL     1       2.154   8.290  19.061  0.00  0.00    +0.000 OA
ATOM     24  C   UNL     1       1.769   7.765  20.261  0.00  0.00    +0.000 A 
ATOM     25  N   UNL     1       1.866   6.457  20.299  0.00  0.00    +0.000 NA
BRANCH  21  32
ATOM     26  C   UNL     1       0.858   3.814  20.235  0.00  0.00    +0.000 C 
ATOM     27  C   UNL     1       1.956   3.650  19.217  0.00  0.00    +0.000 A 
ATOM     28  C   UNL     1       2.300   2.344  18.822  0.00  0.00    +0.000 A 
ATOM     29  C   UNL     1       3.291   2.119  17.870  0.00  0.00    +0.000 A 
ATOM     30  C   UNL     1       3.956   3.196  17.295  0.00  0.00    +0.000 A 
ATOM     31  C   UNL     1       3.630   4.503  17.681  0.00  0.00    +0.000 A 
ATOM     32  C   UNL     1       2.638   4.753  18.649  0.00  0.00    +0.000 A 
ENDBRANCH  21  32
ENDBRANCH  20  24
ENDBRANCH  19  20
ENDBRANCH   1  19
TORSDOF 6
ENDMDL
MODEL 5
REMARK VINA RESULT:      -8.2      3.329     10.607
REMARK  Name = 
REMARK  7 active torsions:
REMARK  status: ('A' for Active; 'I' for Inactive)
REMARK    1  A    between atoms: C_1  and  C_2
REMARK    2  A    between atoms: C_7  and  C_8
REMARK    3  A    between atoms: C_11  and  C_12
REMARK    4  A    between atoms: C_12  and  S_13
REMARK    5  A    between atoms: S_13  and  C_14
REMARK    6  A    between atoms: C_17  and  C_18
REMARK    7  A    between atoms: N_24  and  C_25
REMARK                            x       y       z     vdW  Elec       q    Type
REMARK                         _______ _______ _______ _____ _____    ______ ____
ROOT
ATOM      1  C   UNL     1      10.375  11.653  18.706  0.00  0.00    +0.000 A 
ATOM      2  N   UNL     1      11.391  11.567  17.876  0.00  0.00    +0.000 NA
ATOM      3  N   UNL     1      11.845  12.841  17.645  0.00  0.00    +0.000 NA
ATOM      4  C   UNL     1      11.134  13.691  18.368  0.00  0.00    +0.000 A 
ATOM      5  N   UNL     1      10.109  12.982  19.010  0.00  0.00    +0.000 N 
ENDROOT
BRANCH   5   6
ATOM      6  C   UNL     1       9.025  13.517  19.780  0.00  0.00    +0.000 A 
ATOM      7  C   UNL     1       7.984  14.216  19.143  0.00  0.00    +0.000 A 
ATOM      8  C   UNL     1       6.947  14.774  19.897  0.00  0.00    +0.000 A 
ATOM      9  C   UNL     1       6.923  14.598  21.272  0.00  0.00    +0.000 A 
ATOM     10  F   UNL     1       5.922  15.122  21.993  0.00  0.00    +0.000 F 
ATOM     11  C   UNL     1       7.930  13.894  21.917  0.00  0.00    +0.000 A 
ATOM     12  C   UNL     1       8.991  13.373  21.174  0.00  0.00    +0.000 A 
ENDBRANCH   5   6
BRANCH   4  13
ATOM     13  C   UNL     1      11.463  15.123  18.520  0.00  0.00    +0.000 A 
ATOM     14  C   UNL     1      11.641  15.932  17.394  0.00  0.00    +0.000 A 
ATOM     15  C   UNL     1      11.919  17.282  17.577  0.00  0.00    +0.000 A 
ATOM     16  N   UNL     1      12.021  17.869  18.788  0.00  0.00    +0.000 NA
ATOM     17  C   UNL     1      11.881  17.071  19.862  0.00  0.00    +0.000 A 
ATOM     18  C   UNL     1      11.635  15.711  19.779  0.00  0.00    +0.000 A 
ENDBRANCH   4  13
BRANCH   1  19
ATOM     19  S   UNL     1       9.364  10.320  19.171  0.00  0.00    +0.000 S 
BRANCH  19  20
ATOM     20  C   UNL     1       8.394   9.918  17.693  0.00  0.00    +0.000 C 
BRANCH  20  24
ATOM     21  C   UNL     1       6.853   6.685  17.840  0.00  0.00    +0.000 A 
ATOM     22  N   UNL     1       7.861   6.484  18.709  0.00  0.00    +0.000 NA
ATOM     23  O   UNL     1       8.565   7.694  18.694  0.00  0.00    +0.000 OA
ATOM     24  C   UNL     1       7.907   8.515  17.825  0.00  0.00    +0.000 A 
ATOM     25  N   UNL     1       6.861   7.944  17.277  0.00  0.00    +0.000 NA
BRANCH  21  32
ATOM     26  C   UNL     1       7.170   4.755  15.559  0.00  0.00    +0.000 C 
ATOM     27  C   UNL     1       5.949   4.791  16.441  0.00  0.00    +0.000 A 
ATOM     28  C   UNL     1       4.909   3.883  16.165  0.00  0.00    +0.000 A 
ATOM     29  C   UNL     1       3.760   3.846  16.951  0.00  0.00    +0.000 A 
ATOM     30  C   UNL     1       3.630   4.716  18.027  0.00  0.00    +0.000 A 
ATOM     31  C   UNL     1       4.653   5.630  18.313  0.00  0.00    +0.000 A 
ATOM     32  C   UNL     1       5.819   5.691  17.525  0.00  0.00    +0.000 A 
ENDBRANCH  21  32
ENDBRANCH  20  24
ENDBRANCH  19  20
ENDBRANCH   1  19
TORSDOF 6
ENDMDL
MODEL 6
REMARK VINA RESULT:      -8.1      5.553      9.722
REMARK  Name = 
REMARK  7 active torsions:
REMARK  status: ('A' for Active; 'I' for Inactive)
REMARK    1  A    between atoms: C_1  and  C_2
REMARK    2  A    between atoms: C_7  and  C_8
REMARK    3  A    between atoms: C_11  and  C_12
REMARK    4  A    between atoms: C_12  and  S_13
REMARK    5  A    between atoms: S_13  and  C_14
REMARK    6  A    between atoms: C_17  and  C_18
REMARK    7  A    between atoms: N_24  and  C_25
REMARK                            x       y       z     vdW  Elec       q    Type
REMARK                         _______ _______ _______ _____ _____    ______ ____
ROOT
ATOM      1  C   UNL     1      -0.422  10.342  18.552  0.00  0.00    +0.000 A 
ATOM      2  N   UNL     1      -0.945   9.644  17.569  0.00  0.00    +0.000 NA
ATOM      3  N   UNL     1      -2.270   9.988  17.477  0.00  0.00    +0.000 NA
ATOM      4  C   UNL     1      -2.537  10.924  18.374  0.00  0.00    +0.000 A 
ATOM      5  N   UNL     1      -1.393  11.130  19.156  0.00  0.00    +0.000 N 
ENDROOT
BRANCH   5   6
ATOM      6  C   UNL     1      -1.269  11.949  20.327  0.00  0.00    +0.000 A 
ATOM      7  C   UNL     1      -1.020  13.327  20.202  0.00  0.00    +0.000 A 
ATOM      8  C   UNL     1      -0.858  14.120  21.342  0.00  0.00    +0.000 A 
ATOM      9  C   UNL     1      -0.990  13.552  22.601  0.00  0.00    +0.000 A 
ATOM     10  F   UNL     1      -0.848  14.313  23.693  0.00  0.00    +0.000 F 
ATOM     11  C   UNL     1      -1.256  12.198  22.745  0.00  0.00    +0.000 A 
ATOM     12  C   UNL     1      -1.374  11.393  21.610  0.00  0.00    +0.000 A 
ENDBRANCH   5   6
BRANCH   4  13
ATOM     13  C   UNL     1      -3.811  11.669  18.436  0.00  0.00    +0.000 A 
ATOM     14  C   UNL     1      -4.611  11.802  17.297  0.00  0.00    +0.000 A 
ATOM     15  C   UNL     1      -5.818  12.483  17.402  0.00  0.00    +0.000 A 
ATOM     16  N   UNL     1      -6.276  13.024  18.550  0.00  0.00    +0.000 NA
ATOM     17  C   UNL     1      -5.480  12.917  19.630  0.00  0.00    +0.000 A 
ATOM     18  C   UNL     1      -4.248  12.286  19.615  0.00  0.00    +0.000 A 
ENDBRANCH   4  13
BRANCH   1  19
ATOM     19  S   UNL     1       1.193  10.138  19.158  0.00  0.00    +0.000 S 
BRANCH  19  20
ATOM     20  C   UNL     1       2.152   9.503  17.756  0.00  0.00    +0.000 C 
BRANCH  20  24
ATOM     21  C   UNL     1       2.691   6.101  18.748  0.00  0.00    +0.000 A 
ATOM     22  N   UNL     1       3.828   6.308  18.057  0.00  0.00    +0.000 NA
ATOM     23  O   UNL     1       3.699   7.617  17.581  0.00  0.00    +0.000 OA
ATOM     24  C   UNL     1       2.500   8.082  18.039  0.00  0.00    +0.000 A 
ATOM     25  N   UNL     1       1.848   7.193  18.751  0.00  0.00    +0.000 NA
BRANCH  21  32
ATOM     26  C   UNL     1       2.124   3.547  17.272  0.00  0.00    +0.000 C 
ATOM     27  C   UNL     1       2.079   3.654  18.773  0.00  0.00    +0.000 A 
ATOM     28  C   UNL     1       1.741   2.502  19.508  0.00  0.00    +0.000 A 
ATOM     29  C   UNL     1       1.700   2.523  20.900  0.00  0.00    +0.000 A 
ATOM     30  C   UNL     1       1.997   3.697  21.583  0.00  0.00    +0.000 A 
ATOM     31  C   UNL     1       2.330   4.855  20.868  0.00  0.00    +0.000 A 
ATOM     32  C   UNL     1       2.368   4.858  19.460  0.00  0.00    +0.000 A 
ENDBRANCH  21  32
ENDBRANCH  20  24
ENDBRANCH  19  20
ENDBRANCH   1  19
TORSDOF 6
ENDMDL
MODEL 7
REMARK VINA RESULT:      -8.1      1.251      1.917
REMARK  Name = 
REMARK  7 active torsions:
REMARK  status: ('A' for Active; 'I' for Inactive)
REMARK    1  A    between atoms: C_1  and  C_2
REMARK    2  A    between atoms: C_7  and  C_8
REMARK    3  A    between atoms: C_11  and  C_12
REMARK    4  A    between atoms: C_12  and  S_13
REMARK    5  A    between atoms: S_13  and  C_14
REMARK    6  A    between atoms: C_17  and  C_18
REMARK    7  A    between atoms: N_24  and  C_25
REMARK                            x       y       z     vdW  Elec       q    Type
REMARK                         _______ _______ _______ _____ _____    ______ ____
ROOT
ATOM      1  C   UNL     1       5.287   6.198  17.749  0.00  0.00    +0.000 A 
ATOM      2  N   UNL     1       5.942   5.059  17.759  0.00  0.00    +0.000 NA
ATOM      3  N   UNL     1       5.128   4.119  18.339  0.00  0.00    +0.000 NA
ATOM      4  C   UNL     1       3.967   4.679  18.639  0.00  0.00    +0.000 A 
ATOM      5  N   UNL     1       4.047   6.049  18.355  0.00  0.00    +0.000 N 
ENDROOT
BRANCH   5   6
ATOM      6  C   UNL     1       3.076   7.062  18.651  0.00  0.00    +0.000 A 
ATOM      7  C   UNL     1       2.529   7.159  19.943  0.00  0.00    +0.000 A 
ATOM      8  C   UNL     1       1.551   8.119  20.223  0.00  0.00    +0.000 A 
ATOM      9  C   UNL     1       1.154   9.007  19.234  0.00  0.00    +0.000 A 
ATOM     10  F   UNL     1       0.227   9.935  19.506  0.00  0.00    +0.000 F 
ATOM     11  C   UNL     1       1.698   8.941  17.959  0.00  0.00    +0.000 A 
ATOM     12  C   UNL     1       2.641   7.955  17.662  0.00  0.00    +0.000 A 
ENDBRANCH   5   6
BRANCH   4  13
ATOM     13  C   UNL     1       2.782   3.928  19.099  0.00  0.00    +0.000 A 
ATOM     14  C   UNL     1       1.829   3.475  18.181  0.00  0.00    +0.000 A 
ATOM     15  C   UNL     1       0.743   2.744  18.649  0.00  0.00    +0.000 A 
ATOM     16  N   UNL     1       0.552   2.433  19.947  0.00  0.00    +0.000 NA
ATOM     17  C   UNL     1       1.458   2.905  20.823  0.00  0.00    +0.000 A 
ATOM     18  C   UNL     1       2.554   3.667  20.456  0.00  0.00    +0.000 A 
ENDBRANCH   4  13
BRANCH   1  19
ATOM     19  S   UNL     1       5.963   7.721  17.260  0.00  0.00    +0.000 S 
BRANCH  19  20
ATOM     20  C   UNL     1       7.751   7.554  17.515  0.00  0.00    +0.000 C 
BRANCH  20  24
ATOM     21  C   UNL     1       8.959  10.812  18.392  0.00  0.00    +0.000 A 
ATOM     22  N   UNL     1       9.382  10.127  19.470  0.00  0.00    +0.000 NA
ATOM     23  O   UNL     1       8.917   8.826  19.247  0.00  0.00    +0.000 OA
ATOM     24  C   UNL     1       8.266   8.847  18.048  0.00  0.00    +0.000 A 
ATOM     25  N   UNL     1       8.262  10.035  17.491  0.00  0.00    +0.000 NA
BRANCH  21  32
ATOM     26  C   UNL     1      11.740  11.830  17.883  0.00  0.00    +0.000 C 
ATOM     27  C   UNL     1      10.533  12.730  17.938  0.00  0.00    +0.000 A 
ATOM     28  C   UNL     1      10.731  14.112  17.755  0.00  0.00    +0.000 A 
ATOM     29  C   UNL     1       9.659  15.000  17.774  0.00  0.00    +0.000 A 
ATOM     30  C   UNL     1       8.368  14.524  17.974  0.00  0.00    +0.000 A 
ATOM     31  C   UNL     1       8.153  13.152  18.163  0.00  0.00    +0.000 A 
ATOM     32  C   UNL     1       9.224  12.238  18.159  0.00  0.00    +0.000 A 
ENDBRANCH  21  32
ENDBRANCH  20  24
ENDBRANCH  19  20
ENDBRANCH   1  19
TORSDOF 6
ENDMDL
MODEL 8
REMARK VINA RESULT:      -8.1      5.902      9.712
REMARK  Name = 
REMARK  7 active torsions:
REMARK  status: ('A' for Active; 'I' for Inactive)
REMARK    1  A    between atoms: C_1  and  C_2
REMARK    2  A    between atoms: C_7  and  C_8
REMARK    3  A    between atoms: C_11  and  C_12
REMARK    4  A    between atoms: C_12  and  S_13
REMARK    5  A    between atoms: S_13  and  C_14
REMARK    6  A    between atoms: C_17  and  C_18
REMARK    7  A    between atoms: N_24  and  C_25
REMARK                            x       y       z     vdW  Elec       q    Type
REMARK                         _______ _______ _______ _____ _____    ______ ____
ROOT
ATOM      1  C   UNL     1      -0.670  10.725  18.562  0.00  0.00    +0.000 A 
ATOM      2  N   UNL     1      -1.139   9.888  17.665  0.00  0.00    +0.000 NA
ATOM      3  N   UNL     1      -2.489  10.106  17.560  0.00  0.00    +0.000 NA
ATOM      4  C   UNL     1      -2.828  11.103  18.361  0.00  0.00    +0.000 A 
ATOM      5  N   UNL     1      -1.700  11.485  19.100  0.00  0.00    +0.000 N 
ENDROOT
BRANCH   5   6
ATOM      6  C   UNL     1      -1.639  12.427  20.179  0.00  0.00    +0.000 A 
ATOM      7  C   UNL     1      -1.819  11.995  21.505  0.00  0.00    +0.000 A 
ATOM      8  C   UNL     1      -1.802  12.918  22.555  0.00  0.00    +0.000 A 
ATOM      9  C   UNL     1      -1.560  14.258  22.290  0.00  0.00    +0.000 A 
ATOM     10  F   UNL     1      -1.530  15.140  23.298  0.00  0.00    +0.000 F 
ATOM     11  C   UNL     1      -1.358  14.701  20.991  0.00  0.00    +0.000 A 
ATOM     12  C   UNL     1      -1.421  13.790  19.935  0.00  0.00    +0.000 A 
ENDBRANCH   5   6
BRANCH   4  13
ATOM     13  C   UNL     1      -4.161  11.740  18.369  0.00  0.00    +0.000 A 
ATOM     14  C   UNL     1      -4.848  11.960  17.171  0.00  0.00    +0.000 A 
ATOM     15  C   UNL     1      -6.113  12.533  17.220  0.00  0.00    +0.000 A 
ATOM     16  N   UNL     1      -6.731  12.887  18.366  0.00  0.00    +0.000 NA
ATOM     17  C   UNL     1      -6.045  12.701  19.507  0.00  0.00    +0.000 A 
ATOM     18  C   UNL     1      -4.768  12.167  19.555  0.00  0.00    +0.000 A 
ENDBRANCH   4  13
BRANCH   1  19
ATOM     19  S   UNL     1       0.961  10.721  19.160  0.00  0.00    +0.000 S 
BRANCH  19  20
ATOM     20  C   UNL     1       1.915   9.782  17.937  0.00  0.00    +0.000 C 
BRANCH  20  24
ATOM     21  C   UNL     1       2.451   6.353  18.833  0.00  0.00    +0.000 A 
ATOM     22  N   UNL     1       2.070   6.833  20.031  0.00  0.00    +0.000 NA
ATOM     23  O   UNL     1       1.873   8.199  19.800  0.00  0.00    +0.000 OA
ATOM     24  C   UNL     1       2.144   8.413  18.479  0.00  0.00    +0.000 A 
ATOM     25  N   UNL     1       2.504   7.320  17.850  0.00  0.00    +0.000 NA
BRANCH  21  32
ATOM     26  C   UNL     1       5.214   5.243  19.233  0.00  0.00    +0.000 C 
ATOM     27  C   UNL     1       4.061   4.414  18.730  0.00  0.00    +0.000 A 
ATOM     28  C   UNL     1       4.305   3.062  18.423  0.00  0.00    +0.000 A 
ATOM     29  C   UNL     1       3.281   2.232  17.972  0.00  0.00    +0.000 A 
ATOM     30  C   UNL     1       1.996   2.738  17.821  0.00  0.00    +0.000 A 
ATOM     31  C   UNL     1       1.737   4.083  18.116  0.00  0.00    +0.000 A 
ATOM     32  C   UNL     1       2.758   4.943  18.564  0.00  0.00    +0.000 A 
ENDBRANCH  21  32
ENDBRANCH  20  24
ENDBRANCH  19  20
ENDBRANCH   1  19
TORSDOF 6
ENDMDL
MODEL 9
REMARK VINA RESULT:      -8.0      5.826     10.208
REMARK  Name = 
REMARK  7 active torsions:
REMARK  status: ('A' for Active; 'I' for Inactive)
REMARK    1  A    between atoms: C_1  and  C_2
REMARK    2  A    between atoms: C_7  and  C_8
REMARK    3  A    between atoms: C_11  and  C_12
REMARK    4  A    between atoms: C_12  and  S_13
REMARK    5  A    between atoms: S_13  and  C_14
REMARK    6  A    between atoms: C_17  and  C_18
REMARK    7  A    between atoms: N_24  and  C_25
REMARK                            x       y       z     vdW  Elec       q    Type
REMARK                         _______ _______ _______ _____ _____    ______ ____
ROOT
ATOM      1  C   UNL     1       0.526  11.903  20.678  0.00  0.00    +0.000 A 
ATOM      2  N   UNL     1       1.523  12.625  21.136  0.00  0.00    +0.000 NA
ATOM      3  N   UNL     1       1.300  13.925  20.760  0.00  0.00    +0.000 NA
ATOM      4  C   UNL     1       0.147  13.995  20.114  0.00  0.00    +0.000 A 
ATOM      5  N   UNL     1      -0.356  12.697  19.957  0.00  0.00    +0.000 N 
ENDROOT
BRANCH   5   6
ATOM      6  C   UNL     1      -1.504  12.289  19.202  0.00  0.00    +0.000 A 
ATOM      7  C   UNL     1      -2.787  12.356  19.775  0.00  0.00    +0.000 A 
ATOM      8  C   UNL     1      -3.904  11.920  19.055  0.00  0.00    +0.000 A 
ATOM      9  C   UNL     1      -3.749  11.462  17.755  0.00  0.00    +0.000 A 
ATOM     10  F   UNL     1      -4.820  11.057  17.060  0.00  0.00    +0.000 F 
ATOM     11  C   UNL     1      -2.495  11.409  17.164  0.00  0.00    +0.000 A 
ATOM     12  C   UNL     1      -1.371  11.800  17.895  0.00  0.00    +0.000 A 
ENDBRANCH   5   6
BRANCH   4  13
ATOM     13  C   UNL     1      -0.508  15.262  19.730  0.00  0.00    +0.000 A 
ATOM     14  C   UNL     1      -0.093  15.957  18.589  0.00  0.00    +0.000 A 
ATOM     15  C   UNL     1      -0.755  17.129  18.242  0.00  0.00    +0.000 A 
ATOM     16  N   UNL     1      -1.790  17.641  18.940  0.00  0.00    +0.000 NA
ATOM     17  C   UNL     1      -2.155  16.980  20.053  0.00  0.00    +0.000 A 
ATOM     18  C   UNL     1      -1.537  15.824  20.496  0.00  0.00    +0.000 A 
ENDBRANCH   4  13
BRANCH   1  19
ATOM     19  S   UNL     1       0.441  10.170  20.762  0.00  0.00    +0.000 S 
BRANCH  19  20
ATOM     20  C   UNL     1       1.363   9.577  19.317  0.00  0.00    +0.000 C 
BRANCH  20  24
ATOM     21  C   UNL     1       2.223   6.100  19.449  0.00  0.00    +0.000 A 
ATOM     22  N   UNL     1       1.804   6.268  20.717  0.00  0.00    +0.000 NA
ATOM     23  O   UNL     1       1.478   7.627  20.787  0.00  0.00    +0.000 OA
ATOM     24  C   UNL     1       1.721   8.149  19.550  0.00  0.00    +0.000 A 
ATOM     25  N   UNL     1       2.180   7.259  18.702  0.00  0.00    +0.000 NA
BRANCH  21  32
ATOM     26  C   UNL     1       5.132   5.368  19.280  0.00  0.00    +0.000 C 
ATOM     27  C   UNL     1       4.029   4.472  18.780  0.00  0.00    +0.000 A 
ATOM     28  C   UNL     1       4.392   3.243  18.196  0.00  0.00    +0.000 A 
ATOM     29  C   UNL     1       3.424   2.356  17.730  0.00  0.00    +0.000 A 
ATOM     30  C   UNL     1       2.077   2.681  17.840  0.00  0.00    +0.000 A 
ATOM     31  C   UNL     1       1.699   3.902  18.414  0.00  0.00    +0.000 A 
ATOM     32  C   UNL     1       2.661   4.818  18.883  0.00  0.00    +0.000 A 
ENDBRANCH  21  32
ENDBRANCH  20  24
ENDBRANCH  19  20
ENDBRANCH   1  19
TORSDOF 6
ENDMDL
