MODEL 1
REMARK VINA RESULT:      -6.7      0.000      0.000
REMARK  Name = 
REMARK  7 active torsions:
REMARK  status: ('A' for Active; 'I' for Inactive)
REMARK    1  A    between atoms: C_1  and  C_2
REMARK    2  A    between atoms: C_5  and  C_6
REMARK    3  A    between atoms: C_7  and  C_8
REMARK    4  A    between atoms: C_8  and  C_9
REMARK    5  A    between atoms: N_11  and  C_12
REMARK    6  A    between atoms: C_12  and  C_13
REMARK    7  A    between atoms: C_12  and  C_14
REMARK                            x       y       z     vdW  Elec       q    Type
REMARK                         _______ _______ _______ _____ _____    ______ ____
ROOT
ATOM      1  C   UNL     1       3.544   4.146  17.717  0.00  0.00    +0.000 C 
ATOM      2  O   UNL     1       2.671   3.501  17.144  0.00  0.00    +0.000 OA
ATOM      3  N   UNL     1       3.931   3.910  19.019  0.00  0.00    +0.000 N 
ATOM      4  H   UNL     1       4.659   4.473  19.437  0.00  0.00    +0.000 HD
ENDROOT
BRANCH   3   5
ATOM      5  C   UNL     1       3.317   2.872  19.828  0.00  0.00    +0.000 C 
ATOM      6  C   UNL     1       4.378   2.018  20.523  0.00  0.00    +0.000 C 
BRANCH   5   7
ATOM      7  C   UNL     1       2.411   3.524  20.840  0.00  0.00    +0.000 C 
ATOM      8  C   UNL     1       0.935   3.711  20.572  0.00  0.00    +0.000 C 
ATOM      9  C   UNL     1       1.390   2.687  21.572  0.00  0.00    +0.000 C 
ENDBRANCH   5   7
ENDBRANCH   3   5
BRANCH   1  10
ATOM     10  C   UNL     1       4.295   5.276  17.031  0.00  0.00    +0.000 C 
BRANCH  10  17
ATOM     11  C   UNL     1       6.932   5.531  18.981  0.00  0.00    +0.000 C 
ATOM     12  C   UNL     1       6.857   5.064  17.575  0.00  0.00    +0.000 A 
ATOM     13  N   UNL     1       7.978   4.702  16.942  0.00  0.00    +0.000 NA
ATOM     14  O   UNL     1       7.596   4.339  15.672  0.00  0.00    +0.000 OA
ATOM     15  C   UNL     1       6.252   4.477  15.541  0.00  0.00    +0.000 A 
ATOM     16  C   UNL     1       5.707   4.137  14.212  0.00  0.00    +0.000 C 
ATOM     17  C   UNL     1       5.716   4.937  16.729  0.00  0.00    +0.000 A 
ENDBRANCH  10  17
ENDBRANCH   1  10
TORSDOF 4
ENDMDL
MODEL 2
REMARK VINA RESULT:      -6.7      1.009      1.064
REMARK  Name = 
REMARK  7 active torsions:
REMARK  status: ('A' for Active; 'I' for Inactive)
REMARK    1  A    between atoms: C_1  and  C_2
REMARK    2  A    between atoms: C_5  and  C_6
REMARK    3  A    between atoms: C_7  and  C_8
REMARK    4  A    between atoms: C_8  and  C_9
REMARK    5  A    between atoms: N_11  and  C_12
REMARK    6  A    between atoms: C_12  and  C_13
REMARK    7  A    between atoms: C_12  and  C_14
REMARK                            x       y       z     vdW  Elec       q    Type
REMARK                         _______ _______ _______ _____ _____    ______ ____
ROOT
ATOM      1  C   UNL     1       3.624   5.157  18.044  0.00  0.00    +0.000 C 
ATOM      2  O   UNL     1       2.471   5.430  17.725  0.00  0.00    +0.000 OA
ATOM      3  N   UNL     1       3.975   3.998  18.703  0.00  0.00    +0.000 N 
ATOM      4  H   UNL     1       4.942   3.826  18.938  0.00  0.00    +0.000 HD
ENDROOT
BRANCH   3   5
ATOM      5  C   UNL     1       2.989   3.003  19.086  0.00  0.00    +0.000 C 
ATOM      6  C   UNL     1       3.372   1.619  18.561  0.00  0.00    +0.000 C 
BRANCH   5   7
ATOM      7  C   UNL     1       2.879   2.989  20.589  0.00  0.00    +0.000 C 
ATOM      8  C   UNL     1       2.066   4.027  21.329  0.00  0.00    +0.000 C 
ATOM      9  C   UNL     1       1.567   2.614  21.235  0.00  0.00    +0.000 C 
ENDBRANCH   5   7
ENDBRANCH   3   5
BRANCH   1  10
ATOM     10  C   UNL     1       4.790   6.081  17.731  0.00  0.00    +0.000 C 
BRANCH  10  17
ATOM     11  C   UNL     1       7.608   5.688  19.380  0.00  0.00    +0.000 C 
ATOM     12  C   UNL     1       7.246   5.197  18.028  0.00  0.00    +0.000 A 
ATOM     13  N   UNL     1       8.146   4.512  17.315  0.00  0.00    +0.000 NA
ATOM     14  O   UNL     1       7.534   4.210  16.121  0.00  0.00    +0.000 OA
ATOM     15  C   UNL     1       6.270   4.707  16.116  0.00  0.00    +0.000 A 
ATOM     16  C   UNL     1       5.502   4.470  14.878  0.00  0.00    +0.000 C 
ATOM     17  C   UNL     1       6.021   5.351  17.313  0.00  0.00    +0.000 A 
ENDBRANCH  10  17
ENDBRANCH   1  10
TORSDOF 4
ENDMDL
MODEL 3
REMARK VINA RESULT:      -6.7      1.265      2.344
REMARK  Name = 
REMARK  7 active torsions:
REMARK  status: ('A' for Active; 'I' for Inactive)
REMARK    1  A    between atoms: C_1  and  C_2
REMARK    2  A    between atoms: C_5  and  C_6
REMARK    3  A    between atoms: C_7  and  C_8
REMARK    4  A    between atoms: C_8  and  C_9
REMARK    5  A    between atoms: N_11  and  C_12
REMARK    6  A    between atoms: C_12  and  C_13
REMARK    7  A    between atoms: C_12  and  C_14
REMARK                            x       y       z     vdW  Elec       q    Type
REMARK                         _______ _______ _______ _____ _____    ______ ____
ROOT
ATOM      1  C   UNL     1       3.658   5.583  17.926  0.00  0.00    +0.000 C 
ATOM      2  O   UNL     1       2.509   5.994  17.795  0.00  0.00    +0.000 OA
ATOM      3  N   UNL     1       3.963   4.316  18.376  0.00  0.00    +0.000 N 
ATOM      4  H   UNL     1       4.929   4.032  18.462  0.00  0.00    +0.000 HD
ENDROOT
BRANCH   3   5
ATOM      5  C   UNL     1       2.933   3.361  18.743  0.00  0.00    +0.000 C 
ATOM      6  C   UNL     1       3.393   1.927  18.480  0.00  0.00    +0.000 C 
BRANCH   5   7
ATOM      7  C   UNL     1       2.597   3.553  20.200  0.00  0.00    +0.000 C 
ATOM      8  C   UNL     1       1.235   4.043  20.637  0.00  0.00    +0.000 C 
ATOM      9  C   UNL     1       1.625   2.611  20.869  0.00  0.00    +0.000 C 
ENDBRANCH   5   7
ENDBRANCH   3   5
BRANCH   1  10
ATOM     10  C   UNL     1       4.867   6.443  17.595  0.00  0.00    +0.000 C 
BRANCH  10  17
ATOM     11  C   UNL     1       5.585   4.870  14.798  0.00  0.00    +0.000 C 
ATOM     12  C   UNL     1       6.378   4.951  16.048  0.00  0.00    +0.000 A 
ATOM     13  N   UNL     1       7.545   4.303  16.129  0.00  0.00    +0.000 NA
ATOM     14  O   UNL     1       8.029   4.551  17.393  0.00  0.00    +0.000 OA
ATOM     15  C   UNL     1       7.162   5.347  18.067  0.00  0.00    +0.000 A 
ATOM     16  C   UNL     1       7.552   5.678  19.452  0.00  0.00    +0.000 C 
ATOM     17  C   UNL     1       6.081   5.643  17.259  0.00  0.00    +0.000 A 
ENDBRANCH  10  17
ENDBRANCH   1  10
TORSDOF 4
ENDMDL
MODEL 4
REMARK VINA RESULT:      -6.5      1.426      2.656
REMARK  Name = 
REMARK  7 active torsions:
REMARK  status: ('A' for Active; 'I' for Inactive)
REMARK    1  A    between atoms: C_1  and  C_2
REMARK    2  A    between atoms: C_5  and  C_6
REMARK    3  A    between atoms: C_7  and  C_8
REMARK    4  A    between atoms: C_8  and  C_9
REMARK    5  A    between atoms: N_11  and  C_12
REMARK    6  A    between atoms: C_12  and  C_13
REMARK    7  A    between atoms: C_12  and  C_14
REMARK                            x       y       z     vdW  Elec       q    Type
REMARK                         _______ _______ _______ _____ _____    ______ ____
ROOT
ATOM      1  C   UNL     1       4.210   3.986  17.414  0.00  0.00    +0.000 C 
ATOM      2  O   UNL     1       3.859   5.142  17.193  0.00  0.00    +0.000 OA
ATOM      3  N   UNL     1       3.546   3.144  18.280  0.00  0.00    +0.000 N 
ATOM      4  H   UNL     1       3.881   2.201  18.421  0.00  0.00    +0.000 HD
ENDROOT
BRANCH   3   5
ATOM      5  C   UNL     1       2.369   3.570  19.017  0.00  0.00    +0.000 C 
ATOM      6  C   UNL     1       1.108   3.432  18.165  0.00  0.00    +0.000 C 
BRANCH   5   7
ATOM      7  C   UNL     1       2.259   2.739  20.269  0.00  0.00    +0.000 C 
ATOM      8  C   UNL     1       2.463   3.345  21.639  0.00  0.00    +0.000 C 
ATOM      9  C   UNL     1       1.085   2.943  21.196  0.00  0.00    +0.000 C 
ENDBRANCH   5   7
ENDBRANCH   3   5
BRANCH   1  10
ATOM     10  C   UNL     1       5.423   3.367  16.738  0.00  0.00    +0.000 C 
BRANCH  10  17
ATOM     11  C   UNL     1       5.944   3.747  13.513  0.00  0.00    +0.000 C 
ATOM     12  C   UNL     1       6.514   4.518  14.644  0.00  0.00    +0.000 A 
ATOM     13  N   UNL     1       7.384   5.504  14.395  0.00  0.00    +0.000 NA
ATOM     14  O   UNL     1       7.741   6.013  15.623  0.00  0.00    +0.000 OA
ATOM     15  C   UNL     1       7.088   5.341  16.604  0.00  0.00    +0.000 A 
ATOM     16  C   UNL     1       7.395   5.776  17.981  0.00  0.00    +0.000 C 
ATOM     17  C   UNL     1       6.281   4.369  16.043  0.00  0.00    +0.000 A 
ENDBRANCH  10  17
ENDBRANCH   1  10
TORSDOF 4
ENDMDL
MODEL 5
REMARK VINA RESULT:      -6.5      1.246      1.557
REMARK  Name = 
REMARK  7 active torsions:
REMARK  status: ('A' for Active; 'I' for Inactive)
REMARK    1  A    between atoms: C_1  and  C_2
REMARK    2  A    between atoms: C_5  and  C_6
REMARK    3  A    between atoms: C_7  and  C_8
REMARK    4  A    between atoms: C_8  and  C_9
REMARK    5  A    between atoms: N_11  and  C_12
REMARK    6  A    between atoms: C_12  and  C_13
REMARK    7  A    between atoms: C_12  and  C_14
REMARK                            x       y       z     vdW  Elec       q    Type
REMARK                         _______ _______ _______ _____ _____    ______ ____
ROOT
ATOM      1  C   UNL     1       4.079   3.747  17.381  0.00  0.00    +0.000 C 
ATOM      2  O   UNL     1       3.650   4.874  17.153  0.00  0.00    +0.000 OA
ATOM      3  N   UNL     1       3.492   2.878  18.277  0.00  0.00    +0.000 N 
ATOM      4  H   UNL     1       3.890   1.961  18.422  0.00  0.00    +0.000 HD
ENDROOT
BRANCH   3   5
ATOM      5  C   UNL     1       2.310   3.241  19.038  0.00  0.00    +0.000 C 
ATOM      6  C   UNL     1       1.091   2.446  18.572  0.00  0.00    +0.000 C 
BRANCH   5   7
ATOM      7  C   UNL     1       2.583   2.990  20.499  0.00  0.00    +0.000 C 
ATOM      8  C   UNL     1       2.212   4.005  21.556  0.00  0.00    +0.000 C 
ATOM      9  C   UNL     1       1.429   2.728  21.436  0.00  0.00    +0.000 C 
ENDBRANCH   5   7
ENDBRANCH   3   5
BRANCH   1  10
ATOM     10  C   UNL     1       5.311   3.194  16.682  0.00  0.00    +0.000 C 
BRANCH  10  17
ATOM     11  C   UNL     1       6.960   5.488  18.365  0.00  0.00    +0.000 C 
ATOM     12  C   UNL     1       6.919   5.260  16.901  0.00  0.00    +0.000 A 
ATOM     13  N   UNL     1       7.604   6.073  16.089  0.00  0.00    +0.000 NA
ATOM     14  O   UNL     1       7.361   5.626  14.811  0.00  0.00    +0.000 OA
ATOM     15  C   UNL     1       6.538   4.548  14.852  0.00  0.00    +0.000 A 
ATOM     16  C   UNL     1       6.179   3.975  13.540  0.00  0.00    +0.000 C 
ATOM     17  C   UNL     1       6.218   4.259  16.165  0.00  0.00    +0.000 A 
ENDBRANCH  10  17
ENDBRANCH   1  10
TORSDOF 4
ENDMDL
MODEL 6
REMARK VINA RESULT:      -6.4      1.598      2.688
REMARK  Name = 
REMARK  7 active torsions:
REMARK  status: ('A' for Active; 'I' for Inactive)
REMARK    1  A    between atoms: C_1  and  C_2
REMARK    2  A    between atoms: C_5  and  C_6
REMARK    3  A    between atoms: C_7  and  C_8
REMARK    4  A    between atoms: C_8  and  C_9
REMARK    5  A    between atoms: N_11  and  C_12
REMARK    6  A    between atoms: C_12  and  C_13
REMARK    7  A    between atoms: C_12  and  C_14
REMARK                            x       y       z     vdW  Elec       q    Type
REMARK                         _______ _______ _______ _____ _____    ______ ____
ROOT
ATOM      1  C   UNL     1       4.072   4.192  17.583  0.00  0.00    +0.000 C 
ATOM      2  O   UNL     1       4.804   3.462  18.245  0.00  0.00    +0.000 OA
ATOM      3  N   UNL     1       3.001   4.877  18.115  0.00  0.00    +0.000 N 
ATOM      4  H   UNL     1       2.435   5.466  17.520  0.00  0.00    +0.000 HD
ENDROOT
BRANCH   3   5
ATOM      5  C   UNL     1       2.644   4.776  19.519  0.00  0.00    +0.000 C 
ATOM      6  C   UNL     1       2.256   6.142  20.086  0.00  0.00    +0.000 C 
BRANCH   5   7
ATOM      7  C   UNL     1       1.505   3.799  19.657  0.00  0.00    +0.000 C 
ATOM      8  C   UNL     1       1.754   2.323  19.864  0.00  0.00    +0.000 C 
ATOM      9  C   UNL     1       1.233   3.160  20.997  0.00  0.00    +0.000 C 
ENDBRANCH   5   7
ENDBRANCH   3   5
BRANCH   1  10
ATOM     10  C   UNL     1       4.288   4.416  16.095  0.00  0.00    +0.000 C 
BRANCH  10  17
ATOM     11  C   UNL     1       6.246   3.748  13.539  0.00  0.00    +0.000 C 
ATOM     12  C   UNL     1       6.481   4.675  14.672  0.00  0.00    +0.000 A 
ATOM     13  N   UNL     1       7.635   5.349  14.742  0.00  0.00    +0.000 NA
ATOM     14  O   UNL     1       7.565   6.101  15.892  0.00  0.00    +0.000 OA
ATOM     15  C   UNL     1       6.376   5.885  16.509  0.00  0.00    +0.000 A 
ATOM     16  C   UNL     1       6.176   6.620  17.773  0.00  0.00    +0.000 C 
ATOM     17  C   UNL     1       5.631   4.980  15.776  0.00  0.00    +0.000 A 
ENDBRANCH  10  17
ENDBRANCH   1  10
TORSDOF 4
ENDMDL
MODEL 7
REMARK VINA RESULT:      -6.4      1.992      2.937
REMARK  Name = 
REMARK  7 active torsions:
REMARK  status: ('A' for Active; 'I' for Inactive)
REMARK    1  A    between atoms: C_1  and  C_2
REMARK    2  A    between atoms: C_5  and  C_6
REMARK    3  A    between atoms: C_7  and  C_8
REMARK    4  A    between atoms: C_8  and  C_9
REMARK    5  A    between atoms: N_11  and  C_12
REMARK    6  A    between atoms: C_12  and  C_13
REMARK    7  A    between atoms: C_12  and  C_14
REMARK                            x       y       z     vdW  Elec       q    Type
REMARK                         _______ _______ _______ _____ _____    ______ ____
ROOT
ATOM      1  C   UNL     1       4.255   5.479  18.671  0.00  0.00    +0.000 C 
ATOM      2  O   UNL     1       5.074   4.710  19.165  0.00  0.00    +0.000 OA
ATOM      3  N   UNL     1       2.892   5.333  18.818  0.00  0.00    +0.000 N 
ATOM      4  H   UNL     1       2.266   6.000  18.389  0.00  0.00    +0.000 HD
ENDROOT
BRANCH   3   5
ATOM      5  C   UNL     1       2.314   4.235  19.572  0.00  0.00    +0.000 C 
ATOM      6  C   UNL     1       1.269   4.742  20.567  0.00  0.00    +0.000 C 
BRANCH   5   7
ATOM      7  C   UNL     1       1.696   3.260  18.604  0.00  0.00    +0.000 C 
ATOM      8  C   UNL     1       2.509   2.150  17.977  0.00  0.00    +0.000 C 
ATOM      9  C   UNL     1       1.484   1.826  19.027  0.00  0.00    +0.000 C 
ENDBRANCH   5   7
ENDBRANCH   3   5
BRANCH   1  10
ATOM     10  C   UNL     1       4.674   6.684  17.844  0.00  0.00    +0.000 C 
BRANCH  10  17
ATOM     11  C   UNL     1       5.001   4.437  15.465  0.00  0.00    +0.000 C 
ATOM     12  C   UNL     1       5.992   5.427  15.950  0.00  0.00    +0.000 A 
ATOM     13  N   UNL     1       7.214   5.453  15.407  0.00  0.00    +0.000 NA
ATOM     14  O   UNL     1       7.899   6.450  16.064  0.00  0.00    +0.000 OA
ATOM     15  C   UNL     1       7.093   7.023  16.994  0.00  0.00    +0.000 A 
ATOM     16  C   UNL     1       7.712   8.102  17.789  0.00  0.00    +0.000 C 
ATOM     17  C   UNL     1       5.853   6.414  16.970  0.00  0.00    +0.000 A 
ENDBRANCH  10  17
ENDBRANCH   1  10
TORSDOF 4
ENDMDL
MODEL 8
REMARK VINA RESULT:      -6.4      2.262      3.371
REMARK  Name = 
REMARK  7 active torsions:
REMARK  status: ('A' for Active; 'I' for Inactive)
REMARK    1  A    between atoms: C_1  and  C_2
REMARK    2  A    between atoms: C_5  and  C_6
REMARK    3  A    between atoms: C_7  and  C_8
REMARK    4  A    between atoms: C_8  and  C_9
REMARK    5  A    between atoms: N_11  and  C_12
REMARK    6  A    between atoms: C_12  and  C_13
REMARK    7  A    between atoms: C_12  and  C_14
REMARK                            x       y       z     vdW  Elec       q    Type
REMARK                         _______ _______ _______ _____ _____    ______ ____
ROOT
ATOM      1  C   UNL     1       5.407   4.655  19.444  0.00  0.00    +0.000 C 
ATOM      2  O   UNL     1       5.269   3.450  19.629  0.00  0.00    +0.000 OA
ATOM      3  N   UNL     1       4.349   5.528  19.303  0.00  0.00    +0.000 N 
ATOM      4  H   UNL     1       4.525   6.511  19.154  0.00  0.00    +0.000 HD
ENDROOT
BRANCH   3   5
ATOM      5  C   UNL     1       2.969   5.077  19.351  0.00  0.00    +0.000 C 
ATOM      6  C   UNL     1       2.079   6.107  20.048  0.00  0.00    +0.000 C 
BRANCH   5   7
ATOM      7  C   UNL     1       2.494   4.830  17.942  0.00  0.00    +0.000 C 
ATOM      8  C   UNL     1       2.539   3.450  17.327  0.00  0.00    +0.000 C 
ATOM      9  C   UNL     1       1.219   4.055  17.713  0.00  0.00    +0.000 C 
ENDBRANCH   5   7
ENDBRANCH   3   5
BRANCH   1  10
ATOM     10  C   UNL     1       6.778   5.308  19.359  0.00  0.00    +0.000 C 
BRANCH  10  17
ATOM     11  C   UNL     1       6.231   3.923  16.427  0.00  0.00    +0.000 C 
ATOM     12  C   UNL     1       6.862   5.229  16.735  0.00  0.00    +0.000 A 
ATOM     13  N   UNL     1       7.315   5.992  15.734  0.00  0.00    +0.000 NA
ATOM     14  O   UNL     1       7.852   7.113  16.325  0.00  0.00    +0.000 OA
ATOM     15  C   UNL     1       7.719   7.027  17.673  0.00  0.00    +0.000 A 
ATOM     16  C   UNL     1       8.273   8.163  18.436  0.00  0.00    +0.000 C 
ATOM     17  C   UNL     1       7.089   5.842  18.002  0.00  0.00    +0.000 A 
ENDBRANCH  10  17
ENDBRANCH   1  10
TORSDOF 4
ENDMDL
MODEL 9
REMARK VINA RESULT:      -6.3      1.509      2.085
REMARK  Name = 
REMARK  7 active torsions:
REMARK  status: ('A' for Active; 'I' for Inactive)
REMARK    1  A    between atoms: C_1  and  C_2
REMARK    2  A    between atoms: C_5  and  C_6
REMARK    3  A    between atoms: C_7  and  C_8
REMARK    4  A    between atoms: C_8  and  C_9
REMARK    5  A    between atoms: N_11  and  C_12
REMARK    6  A    between atoms: C_12  and  C_13
REMARK    7  A    between atoms: C_12  and  C_14
REMARK                            x       y       z     vdW  Elec       q    Type
REMARK                         _______ _______ _______ _____ _____    ______ ____
ROOT
ATOM      1  C   UNL     1       4.096   6.398  17.621  0.00  0.00    +0.000 C 
ATOM      2  O   UNL     1       3.410   7.265  18.155  0.00  0.00    +0.000 OA
ATOM      3  N   UNL     1       3.835   5.049  17.731  0.00  0.00    +0.000 N 
ATOM      4  H   UNL     1       4.435   4.381  17.266  0.00  0.00    +0.000 HD
ENDROOT
BRANCH   3   5
ATOM      5  C   UNL     1       2.717   4.542  18.507  0.00  0.00    +0.000 C 
ATOM      6  C   UNL     1       1.491   4.317  17.622  0.00  0.00    +0.000 C 
BRANCH   5   7
ATOM      7  C   UNL     1       3.137   3.257  19.172  0.00  0.00    +0.000 C 
ATOM      8  C   UNL     1       2.818   2.980  20.623  0.00  0.00    +0.000 C 
ATOM      9  C   UNL     1       2.090   2.234  19.541  0.00  0.00    +0.000 C 
ENDBRANCH   5   7
ENDBRANCH   3   5
BRANCH   1  10
ATOM     10  C   UNL     1       5.311   6.739  16.773  0.00  0.00    +0.000 C 
BRANCH  10  17
ATOM     11  C   UNL     1       7.544   5.992  19.069  0.00  0.00    +0.000 C 
ATOM     12  C   UNL     1       7.313   5.348  17.753  0.00  0.00    +0.000 A 
ATOM     13  N   UNL     1       8.096   4.333  17.371  0.00  0.00    +0.000 NA
ATOM     14  O   UNL     1       7.654   3.963  16.122  0.00  0.00    +0.000 OA
ATOM     15  C   UNL     1       6.609   4.747  15.755  0.00  0.00    +0.000 A 
ATOM     16  C   UNL     1       6.047   4.468  14.419  0.00  0.00    +0.000 C 
ATOM     17  C   UNL     1       6.337   5.657  16.759  0.00  0.00    +0.000 A 
ENDBRANCH  10  17
ENDBRANCH   1  10
TORSDOF 4
ENDMDL
