MODEL 1
REMARK VINA RESULT:      -7.2      0.000      0.000
REMARK  Name = 
REMARK  6 active torsions:
REMARK  status: ('A' for Active; 'I' for Inactive)
REMARK    1  A    between atoms: C_1  and  C_2
REMARK    2  A    between atoms: N_4  and  C_5
REMARK    3  A    between atoms: N_4  and  C_6
REMARK    4  A    between atoms: C_6  and  C_7
REMARK    5  A    between atoms: N_9  and  C_10
REMARK    6  A    between atoms: C_10  and  C_11
REMARK                            x       y       z     vdW  Elec       q    Type
REMARK                         _______ _______ _______ _____ _____    ______ ____
ROOT
ATOM      1  C   UNL     1       7.071   5.125  17.417  0.00  0.00    +0.000 C 
ATOM      2  O   UNL     1       7.883   4.416  18.013  0.00  0.00    +0.000 OA
ATOM      3  N   UNL     1       5.970   5.648  18.069  0.00  0.00    +0.000 N 
ATOM      4  H   UNL     1       5.183   6.008  17.539  0.00  0.00    +0.000 HD
ENDROOT
BRANCH   1   5
ATOM      5  C   UNL     1       7.248   5.537  15.947  0.00  0.00    +0.000 C 
BRANCH   5   9
ATOM      6  C   UNL     1       6.425   3.704  12.682  0.00  0.00    +0.000 C 
ATOM      7  C   UNL     1       7.030   4.695  13.649  0.00  0.00    +0.000 C 
ATOM      8  O   UNL     1       7.841   5.528  13.243  0.00  0.00    +0.000 OA
ATOM      9  N   UNL     1       6.652   4.603  14.982  0.00  0.00    +0.000 N 
ATOM     10  C   UNL     1       5.738   3.603  15.514  0.00  0.00    +0.000 C 
ENDBRANCH   5   9
ENDBRANCH   1   5
BRANCH   3  11
ATOM     11  C   UNL     1       5.726   5.240  19.438  0.00  0.00    +0.000 C 
BRANCH  11  12
ATOM     12  C   UNL     1       4.800   4.084  19.498  0.00  0.00    +0.000 A 
ATOM     13  N   UNL     1       5.104   2.811  19.317  0.00  0.00    +0.000 NA
ATOM     14  N   UNL     1       3.973   2.059  19.547  0.00  0.00    +0.000 NA
ATOM     15  C   UNL     1       2.996   2.881  19.860  0.00  0.00    +0.000 A 
ATOM     16  C   UNL     1       1.630   2.677  20.203  0.00  0.00    +0.000 A 
ATOM     17  C   UNL     1       0.842   3.734  20.472  0.00  0.00    +0.000 A 
ATOM     18  C   UNL     1       1.359   5.093  20.427  0.00  0.00    +0.000 A 
ATOM     19  C   UNL     1       2.654   5.290  20.117  0.00  0.00    +0.000 A 
ATOM     20  N   UNL     1       3.465   4.189  19.831  0.00  0.00    +0.000 N 
ENDBRANCH  11  12
ENDBRANCH   3  11
TORSDOF 4
ENDMDL
MODEL 2
REMARK VINA RESULT:      -7.0      1.589      1.895
REMARK  Name = 
REMARK  6 active torsions:
REMARK  status: ('A' for Active; 'I' for Inactive)
REMARK    1  A    between atoms: C_1  and  C_2
REMARK    2  A    between atoms: N_4  and  C_5
REMARK    3  A    between atoms: N_4  and  C_6
REMARK    4  A    between atoms: C_6  and  C_7
REMARK    5  A    between atoms: N_9  and  C_10
REMARK    6  A    between atoms: C_10  and  C_11
REMARK                            x       y       z     vdW  Elec       q    Type
REMARK                         _______ _______ _______ _____ _____    ______ ____
ROOT
ATOM      1  C   UNL     1       5.993   5.380  18.007  0.00  0.00    +0.000 C 
ATOM      2  O   UNL     1       6.146   4.859  19.112  0.00  0.00    +0.000 OA
ATOM      3  N   UNL     1       4.917   6.210  17.753  0.00  0.00    +0.000 N 
ATOM      4  H   UNL     1       4.651   6.428  16.799  0.00  0.00    +0.000 HD
ENDROOT
BRANCH   1   5
ATOM      5  C   UNL     1       7.002   5.208  16.860  0.00  0.00    +0.000 C 
BRANCH   5   9
ATOM      6  C   UNL     1       6.479   3.934  13.282  0.00  0.00    +0.000 C 
ATOM      7  C   UNL     1       7.008   4.736  14.448  0.00  0.00    +0.000 C 
ATOM      8  O   UNL     1       7.886   5.578  14.263  0.00  0.00    +0.000 OA
ATOM      9  N   UNL     1       6.484   4.462  15.706  0.00  0.00    +0.000 N 
ATOM     10  C   UNL     1       5.483   3.440  15.978  0.00  0.00    +0.000 C 
ENDBRANCH   5   9
ENDBRANCH   1   5
BRANCH   3  11
ATOM     11  C   UNL     1       3.907   6.353  18.782  0.00  0.00    +0.000 C 
BRANCH  11  12
ATOM     12  C   UNL     1       2.822   5.357  18.614  0.00  0.00    +0.000 A 
ATOM     13  N   UNL     1       2.167   5.075  17.501  0.00  0.00    +0.000 NA
ATOM     14  N   UNL     1       1.307   4.031  17.758  0.00  0.00    +0.000 NA
ATOM     15  C   UNL     1       1.445   3.693  19.021  0.00  0.00    +0.000 A 
ATOM     16  C   UNL     1       0.834   2.693  19.829  0.00  0.00    +0.000 A 
ATOM     17  C   UNL     1       1.173   2.582  21.127  0.00  0.00    +0.000 A 
ATOM     18  C   UNL     1       2.163   3.463  21.728  0.00  0.00    +0.000 A 
ATOM     19  C   UNL     1       2.753   4.401  20.964  0.00  0.00    +0.000 A 
ATOM     20  N   UNL     1       2.391   4.515  19.619  0.00  0.00    +0.000 N 
ENDBRANCH  11  12
ENDBRANCH   3  11
TORSDOF 4
ENDMDL
MODEL 3
REMARK VINA RESULT:      -6.8      2.869      6.326
REMARK  Name = 
REMARK  6 active torsions:
REMARK  status: ('A' for Active; 'I' for Inactive)
REMARK    1  A    between atoms: C_1  and  C_2
REMARK    2  A    between atoms: N_4  and  C_5
REMARK    3  A    between atoms: N_4  and  C_6
REMARK    4  A    between atoms: C_6  and  C_7
REMARK    5  A    between atoms: N_9  and  C_10
REMARK    6  A    between atoms: C_10  and  C_11
REMARK                            x       y       z     vdW  Elec       q    Type
REMARK                         _______ _______ _______ _____ _____    ______ ____
ROOT
ATOM      1  C   UNL     1       3.138   2.304  18.011  0.00  0.00    +0.000 C 
ATOM      2  O   UNL     1       3.842   1.306  18.170  0.00  0.00    +0.000 OA
ATOM      3  N   UNL     1       3.561   3.355  17.220  0.00  0.00    +0.000 N 
ATOM      4  H   UNL     1       3.113   4.263  17.291  0.00  0.00    +0.000 HD
ENDROOT
BRANCH   1   5
ATOM      5  C   UNL     1       1.729   2.431  18.611  0.00  0.00    +0.000 C 
BRANCH   5   9
ATOM      6  C   UNL     1       1.603   5.550  20.836  0.00  0.00    +0.000 C 
ATOM      7  C   UNL     1       1.714   4.677  19.608  0.00  0.00    +0.000 C 
ATOM      8  O   UNL     1       1.833   5.195  18.498  0.00  0.00    +0.000 OA
ATOM      9  N   UNL     1       1.652   3.301  19.793  0.00  0.00    +0.000 N 
ATOM     10  C   UNL     1       1.460   2.648  21.079  0.00  0.00    +0.000 C 
ENDBRANCH   5   9
ENDBRANCH   1   5
BRANCH   3  11
ATOM     11  C   UNL     1       4.906   3.309  16.682  0.00  0.00    +0.000 C 
BRANCH  11  12
ATOM     12  C   UNL     1       5.445   4.673  16.464  0.00  0.00    +0.000 A 
ATOM     13  N   UNL     1       5.102   5.519  15.508  0.00  0.00    +0.000 NA
ATOM     14  N   UNL     1       5.773   6.704  15.719  0.00  0.00    +0.000 NA
ATOM     15  C   UNL     1       6.516   6.564  16.794  0.00  0.00    +0.000 A 
ATOM     16  C   UNL     1       7.399   7.442  17.483  0.00  0.00    +0.000 A 
ATOM     17  C   UNL     1       8.050   7.013  18.580  0.00  0.00    +0.000 A 
ATOM     18  C   UNL     1       7.867   5.660  19.086  0.00  0.00    +0.000 A 
ATOM     19  C   UNL     1       7.022   4.831  18.446  0.00  0.00    +0.000 A 
ATOM     20  N   UNL     1       6.355   5.281  17.304  0.00  0.00    +0.000 N 
ENDBRANCH  11  12
ENDBRANCH   3  11
TORSDOF 4
ENDMDL
MODEL 4
REMARK VINA RESULT:      -6.8      2.372      7.121
REMARK  Name = 
REMARK  6 active torsions:
REMARK  status: ('A' for Active; 'I' for Inactive)
REMARK    1  A    between atoms: C_1  and  C_2
REMARK    2  A    between atoms: N_4  and  C_5
REMARK    3  A    between atoms: N_4  and  C_6
REMARK    4  A    between atoms: C_6  and  C_7
REMARK    5  A    between atoms: N_9  and  C_10
REMARK    6  A    between atoms: C_10  and  C_11
REMARK                            x       y       z     vdW  Elec       q    Type
REMARK                         _______ _______ _______ _____ _____    ______ ____
ROOT
ATOM      1  C   UNL     1       3.804   5.091  18.281  0.00  0.00    +0.000 C 
ATOM      2  O   UNL     1       3.163   5.831  17.534  0.00  0.00    +0.000 OA
ATOM      3  N   UNL     1       4.615   4.094  17.771  0.00  0.00    +0.000 N 
ATOM      4  H   UNL     1       4.934   3.338  18.367  0.00  0.00    +0.000 HD
ENDROOT
BRANCH   1   5
ATOM      5  C   UNL     1       3.812   5.256  19.809  0.00  0.00    +0.000 C 
BRANCH   5   9
ATOM      6  C   UNL     1       1.527   2.697  21.520  0.00  0.00    +0.000 C 
ATOM      7  C   UNL     1       2.712   3.292  20.796  0.00  0.00    +0.000 C 
ATOM      8  O   UNL     1       3.681   2.584  20.524  0.00  0.00    +0.000 OA
ATOM      9  N   UNL     1       2.660   4.646  20.487  0.00  0.00    +0.000 N 
ATOM     10  C   UNL     1       1.558   5.531  20.836  0.00  0.00    +0.000 C 
ENDBRANCH   5   9
ENDBRANCH   1   5
BRANCH   3  11
ATOM     11  C   UNL     1       4.594   3.860  16.341  0.00  0.00    +0.000 C 
BRANCH  11  12
ATOM     12  C   UNL     1       5.730   4.536  15.669  0.00  0.00    +0.000 A 
ATOM     13  N   UNL     1       6.605   5.358  16.221  0.00  0.00    +0.000 NA
ATOM     14  N   UNL     1       7.546   5.689  15.272  0.00  0.00    +0.000 NA
ATOM     15  C   UNL     1       7.231   5.071  14.155  0.00  0.00    +0.000 A 
ATOM     16  C   UNL     1       7.834   5.030  12.867  0.00  0.00    +0.000 A 
ATOM     17  C   UNL     1       7.270   4.300  11.887  0.00  0.00    +0.000 A 
ATOM     18  C   UNL     1       6.051   3.539  12.116  0.00  0.00    +0.000 A 
ATOM     19  C   UNL     1       5.486   3.564  13.337  0.00  0.00    +0.000 A 
ATOM     20  N   UNL     1       6.072   4.329  14.348  0.00  0.00    +0.000 N 
ENDBRANCH  11  12
ENDBRANCH   3  11
TORSDOF 4
ENDMDL
MODEL 5
REMARK VINA RESULT:      -6.8      2.497      7.051
REMARK  Name = 
REMARK  6 active torsions:
REMARK  status: ('A' for Active; 'I' for Inactive)
REMARK    1  A    between atoms: C_1  and  C_2
REMARK    2  A    between atoms: N_4  and  C_5
REMARK    3  A    between atoms: N_4  and  C_6
REMARK    4  A    between atoms: C_6  and  C_7
REMARK    5  A    between atoms: N_9  and  C_10
REMARK    6  A    between atoms: C_10  and  C_11
REMARK                            x       y       z     vdW  Elec       q    Type
REMARK                         _______ _______ _______ _____ _____    ______ ____
ROOT
ATOM      1  C   UNL     1       3.824   2.604  18.425  0.00  0.00    +0.000 C 
ATOM      2  O   UNL     1       3.137   1.761  17.846  0.00  0.00    +0.000 OA
ATOM      3  N   UNL     1       4.643   3.463  17.717  0.00  0.00    +0.000 N 
ATOM      4  H   UNL     1       5.384   3.970  18.189  0.00  0.00    +0.000 HD
ENDROOT
BRANCH   1   5
ATOM      5  C   UNL     1       3.776   2.813  19.947  0.00  0.00    +0.000 C 
BRANCH   5   9
ATOM      6  C   UNL     1       1.583   5.860  20.726  0.00  0.00    +0.000 C 
ATOM      7  C   UNL     1       2.759   5.027  20.273  0.00  0.00    +0.000 C 
ATOM      8  O   UNL     1       3.748   5.577  19.789  0.00  0.00    +0.000 OA
ATOM      9  N   UNL     1       2.657   3.647  20.406  0.00  0.00    +0.000 N 
ATOM     10  C   UNL     1       1.488   2.952  20.925  0.00  0.00    +0.000 C 
ENDBRANCH   5   9
ENDBRANCH   1   5
BRANCH   3  11
ATOM     11  C   UNL     1       4.769   3.265  16.287  0.00  0.00    +0.000 C 
BRANCH  11  12
ATOM     12  C   UNL     1       5.799   4.162  15.709  0.00  0.00    +0.000 A 
ATOM     13  N   UNL     1       6.535   5.047  16.356  0.00  0.00    +0.000 NA
ATOM     14  N   UNL     1       7.426   5.603  15.464  0.00  0.00    +0.000 NA
ATOM     15  C   UNL     1       7.219   5.054  14.288  0.00  0.00    +0.000 A 
ATOM     16  C   UNL     1       7.835   5.225  13.017  0.00  0.00    +0.000 A 
ATOM     17  C   UNL     1       7.397   4.517  11.959  0.00  0.00    +0.000 A 
ATOM     18  C   UNL     1       6.303   3.566  12.088  0.00  0.00    +0.000 A 
ATOM     19  C   UNL     1       5.727   3.390  13.291  0.00  0.00    +0.000 A 
ATOM     20  N   UNL     1       6.182   4.134  14.383  0.00  0.00    +0.000 N 
ENDBRANCH  11  12
ENDBRANCH   3  11
TORSDOF 4
ENDMDL
MODEL 6
REMARK VINA RESULT:      -6.8      1.381      1.462
REMARK  Name = 
REMARK  6 active torsions:
REMARK  status: ('A' for Active; 'I' for Inactive)
REMARK    1  A    between atoms: C_1  and  C_2
REMARK    2  A    between atoms: N_4  and  C_5
REMARK    3  A    between atoms: N_4  and  C_6
REMARK    4  A    between atoms: C_6  and  C_7
REMARK    5  A    between atoms: N_9  and  C_10
REMARK    6  A    between atoms: C_10  and  C_11
REMARK                            x       y       z     vdW  Elec       q    Type
REMARK                         _______ _______ _______ _____ _____    ______ ____
ROOT
ATOM      1  C   UNL     1       7.034   5.142  16.322  0.00  0.00    +0.000 C 
ATOM      2  O   UNL     1       7.836   4.606  17.087  0.00  0.00    +0.000 OA
ATOM      3  N   UNL     1       5.965   5.870  16.807  0.00  0.00    +0.000 N 
ATOM      4  H   UNL     1       5.178   6.090  16.206  0.00  0.00    +0.000 HD
ENDROOT
BRANCH   1   5
ATOM      5  C   UNL     1       7.191   5.104  14.794  0.00  0.00    +0.000 C 
BRANCH   5   9
ATOM      6  C   UNL     1       5.607   2.880  12.101  0.00  0.00    +0.000 C 
ATOM      7  C   UNL     1       6.500   3.904  12.763  0.00  0.00    +0.000 C 
ATOM      8  O   UNL     1       7.364   4.480  12.102  0.00  0.00    +0.000 OA
ATOM      9  N   UNL     1       6.316   4.134  14.121  0.00  0.00    +0.000 N 
ATOM     10  C   UNL     1       5.344   3.438  14.951  0.00  0.00    +0.000 C 
ENDBRANCH   5   9
ENDBRANCH   1   5
BRANCH   3  11
ATOM     11  C   UNL     1       5.740   5.884  18.239  0.00  0.00    +0.000 C 
BRANCH  11  12
ATOM     12  C   UNL     1       5.096   4.629  18.695  0.00  0.00    +0.000 A 
ATOM     13  N   UNL     1       5.645   3.674  19.426  0.00  0.00    +0.000 NA
ATOM     14  N   UNL     1       4.680   2.730  19.699  0.00  0.00    +0.000 NA
ATOM     15  C   UNL     1       3.560   3.118  19.130  0.00  0.00    +0.000 A 
ATOM     16  C   UNL     1       2.252   2.559  19.083  0.00  0.00    +0.000 A 
ATOM     17  C   UNL     1       1.279   3.187  18.399  0.00  0.00    +0.000 A 
ATOM     18  C   UNL     1       1.532   4.441  17.704  0.00  0.00    +0.000 A 
ATOM     19  C   UNL     1       2.764   4.981  17.758  0.00  0.00    +0.000 A 
ATOM     20  N   UNL     1       3.771   4.319  18.464  0.00  0.00    +0.000 N 
ENDBRANCH  11  12
ENDBRANCH   3  11
TORSDOF 4
ENDMDL
MODEL 7
REMARK VINA RESULT:      -6.7      1.525      1.731
REMARK  Name = 
REMARK  6 active torsions:
REMARK  status: ('A' for Active; 'I' for Inactive)
REMARK    1  A    between atoms: C_1  and  C_2
REMARK    2  A    between atoms: N_4  and  C_5
REMARK    3  A    between atoms: N_4  and  C_6
REMARK    4  A    between atoms: C_6  and  C_7
REMARK    5  A    between atoms: N_9  and  C_10
REMARK    6  A    between atoms: C_10  and  C_11
REMARK                            x       y       z     vdW  Elec       q    Type
REMARK                         _______ _______ _______ _____ _____    ______ ____
ROOT
ATOM      1  C   UNL     1       5.974   4.858  15.825  0.00  0.00    +0.000 C 
ATOM      2  O   UNL     1       5.263   5.800  15.473  0.00  0.00    +0.000 OA
ATOM      3  N   UNL     1       5.706   4.159  16.987  0.00  0.00    +0.000 N 
ATOM      4  H   UNL     1       6.416   3.567  17.404  0.00  0.00    +0.000 HD
ENDROOT
BRANCH   1   5
ATOM      5  C   UNL     1       7.154   4.347  14.983  0.00  0.00    +0.000 C 
BRANCH   5   9
ATOM      6  C   UNL     1       7.579   5.406  11.323  0.00  0.00    +0.000 C 
ATOM      7  C   UNL     1       7.783   5.325  12.818  0.00  0.00    +0.000 C 
ATOM      8  O   UNL     1       8.672   5.990  13.350  0.00  0.00    +0.000 OA
ATOM      9  N   UNL     1       6.956   4.466  13.532  0.00  0.00    +0.000 N 
ATOM     10  C   UNL     1       5.930   3.623  12.937  0.00  0.00    +0.000 C 
ENDBRANCH   5   9
ENDBRANCH   1   5
BRANCH   3  11
ATOM     11  C   UNL     1       4.642   4.640  17.845  0.00  0.00    +0.000 C 
BRANCH  11  12
ATOM     12  C   UNL     1       4.380   3.695  18.957  0.00  0.00    +0.000 A 
ATOM     13  N   UNL     1       5.244   2.867  19.517  0.00  0.00    +0.000 NA
ATOM     14  N   UNL     1       4.618   2.235  20.569  0.00  0.00    +0.000 NA
ATOM     15  C   UNL     1       3.383   2.682  20.634  0.00  0.00    +0.000 A 
ATOM     16  C   UNL     1       2.296   2.402  21.508  0.00  0.00    +0.000 A 
ATOM     17  C   UNL     1       1.113   3.018  21.326  0.00  0.00    +0.000 A 
ATOM     18  C   UNL     1       0.920   3.978  20.250  0.00  0.00    +0.000 A 
ATOM     19  C   UNL     1       1.950   4.257  19.429  0.00  0.00    +0.000 A 
ATOM     20  N   UNL     1       3.172   3.608  19.620  0.00  0.00    +0.000 N 
ENDBRANCH  11  12
ENDBRANCH   3  11
TORSDOF 4
ENDMDL
MODEL 8
REMARK VINA RESULT:      -6.7      1.058      1.920
REMARK  Name = 
REMARK  6 active torsions:
REMARK  status: ('A' for Active; 'I' for Inactive)
REMARK    1  A    between atoms: C_1  and  C_2
REMARK    2  A    between atoms: N_4  and  C_5
REMARK    3  A    between atoms: N_4  and  C_6
REMARK    4  A    between atoms: C_6  and  C_7
REMARK    5  A    between atoms: N_9  and  C_10
REMARK    6  A    between atoms: C_10  and  C_11
REMARK                            x       y       z     vdW  Elec       q    Type
REMARK                         _______ _______ _______ _____ _____    ______ ____
ROOT
ATOM      1  C   UNL     1       7.069   5.136  17.047  0.00  0.00    +0.000 C 
ATOM      2  O   UNL     1       7.895   4.433  17.629  0.00  0.00    +0.000 OA
ATOM      3  N   UNL     1       5.943   5.601  17.700  0.00  0.00    +0.000 N 
ATOM      4  H   UNL     1       5.152   5.954  17.171  0.00  0.00    +0.000 HD
ENDROOT
BRANCH   1   5
ATOM      5  C   UNL     1       7.252   5.604  15.594  0.00  0.00    +0.000 C 
BRANCH   5   9
ATOM      6  C   UNL     1       6.739   3.757  12.274  0.00  0.00    +0.000 C 
ATOM      7  C   UNL     1       7.233   4.767  13.284  0.00  0.00    +0.000 C 
ATOM      8  O   UNL     1       8.037   5.633  12.939  0.00  0.00    +0.000 OA
ATOM      9  N   UNL     1       6.765   4.652  14.587  0.00  0.00    +0.000 N 
ATOM     10  C   UNL     1       5.856   3.613  15.049  0.00  0.00    +0.000 C 
ENDBRANCH   5   9
ENDBRANCH   1   5
BRANCH   3  11
ATOM     11  C   UNL     1       5.695   5.137  19.050  0.00  0.00    +0.000 C 
BRANCH  11  12
ATOM     12  C   UNL     1       4.242   5.068  19.337  0.00  0.00    +0.000 A 
ATOM     13  N   UNL     1       3.469   6.050  19.766  0.00  0.00    +0.000 NA
ATOM     14  N   UNL     1       2.172   5.589  19.817  0.00  0.00    +0.000 NA
ATOM     15  C   UNL     1       2.172   4.335  19.424  0.00  0.00    +0.000 A 
ATOM     16  C   UNL     1       1.138   3.369  19.266  0.00  0.00    +0.000 A 
ATOM     17  C   UNL     1       1.441   2.127  18.845  0.00  0.00    +0.000 A 
ATOM     18  C   UNL     1       2.811   1.746  18.538  0.00  0.00    +0.000 A 
ATOM     19  C   UNL     1       3.790   2.660  18.672  0.00  0.00    +0.000 A 
ATOM     20  N   UNL     1       3.470   3.946  19.117  0.00  0.00    +0.000 N 
ENDBRANCH  11  12
ENDBRANCH   3  11
TORSDOF 4
ENDMDL
MODEL 9
REMARK VINA RESULT:      -6.7      2.306      6.606
REMARK  Name = 
REMARK  6 active torsions:
REMARK  status: ('A' for Active; 'I' for Inactive)
REMARK    1  A    between atoms: C_1  and  C_2
REMARK    2  A    between atoms: N_4  and  C_5
REMARK    3  A    between atoms: N_4  and  C_6
REMARK    4  A    between atoms: C_6  and  C_7
REMARK    5  A    between atoms: N_9  and  C_10
REMARK    6  A    between atoms: C_10  and  C_11
REMARK                            x       y       z     vdW  Elec       q    Type
REMARK                         _______ _______ _______ _____ _____    ______ ____
ROOT
ATOM      1  C   UNL     1       4.708   4.357  18.681  0.00  0.00    +0.000 C 
ATOM      2  O   UNL     1       5.040   5.364  19.307  0.00  0.00    +0.000 OA
ATOM      3  N   UNL     1       4.662   4.360  17.299  0.00  0.00    +0.000 N 
ATOM      4  H   UNL     1       4.156   3.636  16.801  0.00  0.00    +0.000 HD
ENDROOT
BRANCH   1   5
ATOM      5  C   UNL     1       4.389   3.019  19.366  0.00  0.00    +0.000 C 
BRANCH   5   9
ATOM      6  C   UNL     1       0.671   2.164  18.991  0.00  0.00    +0.000 C 
ATOM      7  C   UNL     1       2.125   2.391  18.647  0.00  0.00    +0.000 C 
ATOM      8  O   UNL     1       2.523   2.175  17.503  0.00  0.00    +0.000 OA
ATOM      9  N   UNL     1       2.965   2.818  19.668  0.00  0.00    +0.000 N 
ATOM     10  C   UNL     1       2.548   3.036  21.045  0.00  0.00    +0.000 C 
ENDBRANCH   5   9
ENDBRANCH   1   5
BRANCH   3  11
ATOM     11  C   UNL     1       4.894   5.614  16.610  0.00  0.00    +0.000 C 
BRANCH  11  12
ATOM     12  C   UNL     1       5.998   5.492  15.628  0.00  0.00    +0.000 A 
ATOM     13  N   UNL     1       7.224   5.972  15.746  0.00  0.00    +0.000 NA
ATOM     14  N   UNL     1       7.956   5.560  14.655  0.00  0.00    +0.000 NA
ATOM     15  C   UNL     1       7.170   4.839  13.887  0.00  0.00    +0.000 A 
ATOM     16  C   UNL     1       7.379   4.157  12.656  0.00  0.00    +0.000 A 
ATOM     17  C   UNL     1       6.362   3.490  12.079  0.00  0.00    +0.000 A 
ATOM     18  C   UNL     1       5.043   3.445  12.693  0.00  0.00    +0.000 A 
ATOM     19  C   UNL     1       4.845   4.077  13.864  0.00  0.00    +0.000 A 
ATOM     20  N   UNL     1       5.904   4.773  14.454  0.00  0.00    +0.000 N 
ENDBRANCH  11  12
ENDBRANCH   3  11
TORSDOF 4
ENDMDL
