MODEL 1
REMARK VINA RESULT:      -7.7      0.000      0.000
REMARK  Name = 
REMARK  4 active torsions:
REMARK  status: ('A' for Active; 'I' for Inactive)
REMARK    1  A    between atoms: C_2  and  C_13
REMARK    2  A    between atoms: N_3  and  O_4
REMARK    3  A    between atoms: O_4  and  C_5
REMARK    4  A    between atoms: C_5  and  C_7
REMARK                            x       y       z     vdW  Elec       q    Type
REMARK                         _______ _______ _______ _____ _____    ______ ____
ROOT
ATOM      1  N   UNL     1       6.066   3.637  15.846  0.00  0.00    +0.000 NA
ATOM      2  C   UNL     1       5.840   4.137  17.021  0.00  0.00    +0.000 C 
ATOM      3  N   UNL     1       4.982   3.547  17.923  0.00  0.00    +0.000 N 
ATOM      4  H   UNL     1       5.526   2.768  15.783  0.00  0.00    +0.000 HD
ATOM      5  H   UNL     1       4.651   4.144  18.687  0.00  0.00    +0.000 HD
ENDROOT
BRANCH   2   6
ATOM      6  C   UNL     1       6.560   5.394  17.411  0.00  0.00    +0.000 A 
ATOM      7  C   UNL     1       6.291   6.590  16.731  0.00  0.00    +0.000 A 
ATOM      8  C   UNL     1       6.948   7.771  17.094  0.00  0.00    +0.000 A 
ATOM      9  C   UNL     1       7.883   7.750  18.129  0.00  0.00    +0.000 A 
ATOM     10 BR   UNL     1       8.773   9.342  18.623  0.00  0.00    +0.000 Br
ATOM     11  C   UNL     1       8.169   6.561  18.800  0.00  0.00    +0.000 A 
ATOM     12  C   UNL     1       7.509   5.383  18.441  0.00  0.00    +0.000 A 
ENDBRANCH   2   6
BRANCH   3  13
ATOM     13  O   UNL     1       3.904   2.853  17.320  0.00  0.00    +0.000 OA
BRANCH  13  14
ATOM     14  C   UNL     1       3.046   2.367  18.280  0.00  0.00    +0.000 C 
ATOM     15  O   UNL     1       3.378   1.490  19.076  0.00  0.00    +0.000 OA
BRANCH  14  16
ATOM     16  C   UNL     1       1.667   3.010  18.201  0.00  0.00    +0.000 C 
ATOM     17  C   UNL     1       0.801   2.659  19.424  0.00  0.00    +0.000 C 
ATOM     18  C   UNL     1       1.236   3.379  20.702  0.00  0.00    +0.000 C 
ATOM     19  C   UNL     1       1.362   4.886  20.501  0.00  0.00    +0.000 C 
ATOM     20  C   UNL     1       2.226   5.236  19.294  0.00  0.00    +0.000 C 
ATOM     21  C   UNL     1       1.752   4.530  18.026  0.00  0.00    +0.000 C 
ENDBRANCH  14  16
ENDBRANCH  13  14
ENDBRANCH   3  13
TORSDOF 4
ENDMDL
MODEL 2
REMARK VINA RESULT:      -7.6      0.096      1.115
REMARK  Name = 
REMARK  4 active torsions:
REMARK  status: ('A' for Active; 'I' for Inactive)
REMARK    1  A    between atoms: C_2  and  C_13
REMARK    2  A    between atoms: N_3  and  O_4
REMARK    3  A    between atoms: O_4  and  C_5
REMARK    4  A    between atoms: C_5  and  C_7
REMARK                            x       y       z     vdW  Elec       q    Type
REMARK                         _______ _______ _______ _____ _____    ______ ____
ROOT
ATOM      1  N   UNL     1       5.990   3.754  15.757  0.00  0.00    +0.000 NA
ATOM      2  C   UNL     1       5.843   4.176  16.974  0.00  0.00    +0.000 C 
ATOM      3  N   UNL     1       5.078   3.505  17.902  0.00  0.00    +0.000 N 
ATOM      4  H   UNL     1       5.473   2.872  15.682  0.00  0.00    +0.000 HD
ATOM      5  H   UNL     1       4.790   4.044  18.724  0.00  0.00    +0.000 HD
ENDROOT
BRANCH   2   6
ATOM      6  C   UNL     1       6.554   5.433  17.383  0.00  0.00    +0.000 A 
ATOM      7  C   UNL     1       7.452   5.407  18.458  0.00  0.00    +0.000 A 
ATOM      8  C   UNL     1       8.128   6.570  18.841  0.00  0.00    +0.000 A 
ATOM      9  C   UNL     1       7.894   7.761  18.153  0.00  0.00    +0.000 A 
ATOM     10 BR   UNL     1       8.805   9.336  18.666  0.00  0.00    +0.000 Br
ATOM     11  C   UNL     1       6.989   7.801  17.093  0.00  0.00    +0.000 A 
ATOM     12  C   UNL     1       6.318   6.637  16.707  0.00  0.00    +0.000 A 
ENDBRANCH   2   6
BRANCH   3  13
ATOM     13  O   UNL     1       3.977   2.811  17.343  0.00  0.00    +0.000 OA
BRANCH  13  14
ATOM     14  C   UNL     1       3.103   2.417  18.330  0.00  0.00    +0.000 C 
ATOM     15  O   UNL     1       3.404   1.581  19.181  0.00  0.00    +0.000 OA
BRANCH  14  16
ATOM     16  C   UNL     1       1.747   3.101  18.208  0.00  0.00    +0.000 C 
ATOM     17  C   UNL     1       0.821   2.750  19.387  0.00  0.00    +0.000 C 
ATOM     18  C   UNL     1       1.223   3.433  20.697  0.00  0.00    +0.000 C 
ATOM     19  C   UNL     1       1.399   4.939  20.532  0.00  0.00    +0.000 C 
ATOM     20  C   UNL     1       2.322   5.288  19.370  0.00  0.00    +0.000 C 
ATOM     21  C   UNL     1       1.882   4.620  18.069  0.00  0.00    +0.000 C 
ENDBRANCH  14  16
ENDBRANCH  13  14
ENDBRANCH   3  13
TORSDOF 4
ENDMDL
MODEL 3
REMARK VINA RESULT:      -7.4      1.129      2.167
REMARK  Name = 
REMARK  4 active torsions:
REMARK  status: ('A' for Active; 'I' for Inactive)
REMARK    1  A    between atoms: C_2  and  C_13
REMARK    2  A    between atoms: N_3  and  O_4
REMARK    3  A    between atoms: O_4  and  C_5
REMARK    4  A    between atoms: C_5  and  C_7
REMARK                            x       y       z     vdW  Elec       q    Type
REMARK                         _______ _______ _______ _____ _____    ______ ____
ROOT
ATOM      1  N   UNL     1       4.903   3.009  17.116  0.00  0.00    +0.000 NA
ATOM      2  C   UNL     1       5.180   3.641  18.214  0.00  0.00    +0.000 C 
ATOM      3  N   UNL     1       4.834   3.154  19.455  0.00  0.00    +0.000 N 
ATOM      4  H   UNL     1       4.441   2.134  17.384  0.00  0.00    +0.000 HD
ATOM      5  H   UNL     1       4.832   3.834  20.222  0.00  0.00    +0.000 HD
ENDROOT
BRANCH   2   6
ATOM      6  C   UNL     1       5.923   4.941  18.120  0.00  0.00    +0.000 A 
ATOM      7  C   UNL     1       7.101   5.125  18.856  0.00  0.00    +0.000 A 
ATOM      8  C   UNL     1       7.808   6.329  18.767  0.00  0.00    +0.000 A 
ATOM      9  C   UNL     1       7.327   7.352  17.949  0.00  0.00    +0.000 A 
ATOM     10 BR   UNL     1       8.279   8.981  17.825  0.00  0.00    +0.000 Br
ATOM     11  C   UNL     1       6.147   7.185  17.226  0.00  0.00    +0.000 A 
ATOM     12  C   UNL     1       5.444   5.980  17.311  0.00  0.00    +0.000 A 
ENDBRANCH   2   6
BRANCH   3  13
ATOM     13  O   UNL     1       3.643   2.386  19.458  0.00  0.00    +0.000 OA
BRANCH  13  14
ATOM     14  C   UNL     1       2.924   2.615  20.609  0.00  0.00    +0.000 C 
ATOM     15  O   UNL     1       3.378   2.377  21.727  0.00  0.00    +0.000 OA
BRANCH  14  16
ATOM     16  C   UNL     1       1.525   3.147  20.320  0.00  0.00    +0.000 C 
ATOM     17  C   UNL     1       1.463   4.680  20.425  0.00  0.00    +0.000 C 
ATOM     18  C   UNL     1       2.146   5.396  19.257  0.00  0.00    +0.000 C 
ATOM     19  C   UNL     1       1.654   4.893  17.904  0.00  0.00    +0.000 C 
ATOM     20  C   UNL     1       1.723   3.373  17.795  0.00  0.00    +0.000 C 
ATOM     21  C   UNL     1       1.007   2.683  18.955  0.00  0.00    +0.000 C 
ENDBRANCH  14  16
ENDBRANCH  13  14
ENDBRANCH   3  13
TORSDOF 4
ENDMDL
MODEL 4
REMARK VINA RESULT:      -7.3      3.015      3.856
REMARK  Name = 
REMARK  4 active torsions:
REMARK  status: ('A' for Active; 'I' for Inactive)
REMARK    1  A    between atoms: C_2  and  C_13
REMARK    2  A    between atoms: N_3  and  O_4
REMARK    3  A    between atoms: O_4  and  C_5
REMARK    4  A    between atoms: C_5  and  C_7
REMARK                            x       y       z     vdW  Elec       q    Type
REMARK                         _______ _______ _______ _____ _____    ______ ____
ROOT
ATOM      1  N   UNL     1       6.549   4.608  19.111  0.00  0.00    +0.000 NA
ATOM      2  C   UNL     1       5.714   5.081  18.239  0.00  0.00    +0.000 C 
ATOM      3  N   UNL     1       4.660   5.895  18.591  0.00  0.00    +0.000 N 
ATOM      4  H   UNL     1       6.272   4.984  20.024  0.00  0.00    +0.000 HD
ATOM      5  H   UNL     1       3.907   5.981  17.901  0.00  0.00    +0.000 HD
ENDROOT
BRANCH   2   6
ATOM      6  C   UNL     1       5.923   4.738  16.794  0.00  0.00    +0.000 A 
ATOM      7  C   UNL     1       4.948   4.006  16.103  0.00  0.00    +0.000 A 
ATOM      8  C   UNL     1       5.127   3.690  14.752  0.00  0.00    +0.000 A 
ATOM      9  C   UNL     1       6.290   4.098  14.097  0.00  0.00    +0.000 A 
ATOM     10 BR   UNL     1       6.537   3.675  12.272  0.00  0.00    +0.000 Br
ATOM     11  C   UNL     1       7.274   4.813  14.780  0.00  0.00    +0.000 A 
ATOM     12  C   UNL     1       7.092   5.132  16.129  0.00  0.00    +0.000 A 
ENDBRANCH   2   6
BRANCH   3  13
ATOM     13  O   UNL     1       4.136   5.631  19.880  0.00  0.00    +0.000 OA
BRANCH  13  14
ATOM     14  C   UNL     1       2.829   5.210  19.793  0.00  0.00    +0.000 C 
ATOM     15  O   UNL     1       1.983   5.821  19.142  0.00  0.00    +0.000 OA
BRANCH  14  16
ATOM     16  C   UNL     1       2.570   3.953  20.615  0.00  0.00    +0.000 C 
ATOM     17  C   UNL     1       1.100   3.507  20.531  0.00  0.00    +0.000 C 
ATOM     18  C   UNL     1       0.731   2.889  19.180  0.00  0.00    +0.000 C 
ATOM     19  C   UNL     1       1.693   1.778  18.771  0.00  0.00    +0.000 C 
ATOM     20  C   UNL     1       3.150   2.222  18.846  0.00  0.00    +0.000 C 
ATOM     21  C   UNL     1       3.501   2.805  20.213  0.00  0.00    +0.000 C 
ENDBRANCH  14  16
ENDBRANCH  13  14
ENDBRANCH   3  13
TORSDOF 4
ENDMDL
MODEL 5
REMARK VINA RESULT:      -7.2      3.049      3.893
REMARK  Name = 
REMARK  4 active torsions:
REMARK  status: ('A' for Active; 'I' for Inactive)
REMARK    1  A    between atoms: C_2  and  C_13
REMARK    2  A    between atoms: N_3  and  O_4
REMARK    3  A    between atoms: O_4  and  C_5
REMARK    4  A    between atoms: C_5  and  C_7
REMARK                            x       y       z     vdW  Elec       q    Type
REMARK                         _______ _______ _______ _____ _____    ______ ____
ROOT
ATOM      1  N   UNL     1       6.918   4.442  18.711  0.00  0.00    +0.000 NA
ATOM      2  C   UNL     1       6.039   4.958  17.910  0.00  0.00    +0.000 C 
ATOM      3  N   UNL     1       5.044   5.802  18.350  0.00  0.00    +0.000 N 
ATOM      4  H   UNL     1       6.722   4.811  19.648  0.00  0.00    +0.000 HD
ATOM      5  H   UNL     1       4.246   5.926  17.718  0.00  0.00    +0.000 HD
ENDROOT
BRANCH   2   6
ATOM      6  C   UNL     1       6.130   4.633  16.448  0.00  0.00    +0.000 A 
ATOM      7  C   UNL     1       7.244   5.052  15.709  0.00  0.00    +0.000 A 
ATOM      8  C   UNL     1       7.344   4.745  14.348  0.00  0.00    +0.000 A 
ATOM      9  C   UNL     1       6.322   4.028  13.726  0.00  0.00    +0.000 A 
ATOM     10 BR   UNL     1       6.452   3.610  11.887  0.00  0.00    +0.000 Br
ATOM     11  C   UNL     1       5.201   3.620  14.449  0.00  0.00    +0.000 A 
ATOM     12  C   UNL     1       5.104   3.923  15.810  0.00  0.00    +0.000 A 
ENDBRANCH   2   6
BRANCH   3  13
ATOM     13  O   UNL     1       4.606   5.535  19.670  0.00  0.00    +0.000 OA
BRANCH  13  14
ATOM     14  C   UNL     1       3.318   5.051  19.663  0.00  0.00    +0.000 C 
ATOM     15  O   UNL     1       2.354   5.752  19.361  0.00  0.00    +0.000 OA
BRANCH  14  16
ATOM     16  C   UNL     1       3.245   3.594  20.104  0.00  0.00    +0.000 C 
ATOM     17  C   UNL     1       1.947   3.293  20.873  0.00  0.00    +0.000 C 
ATOM     18  C   UNL     1       0.708   3.247  19.977  0.00  0.00    +0.000 C 
ATOM     19  C   UNL     1       0.895   2.320  18.780  0.00  0.00    +0.000 C 
ATOM     20  C   UNL     1       2.176   2.622  18.012  0.00  0.00    +0.000 C 
ATOM     21  C   UNL     1       3.402   2.631  18.923  0.00  0.00    +0.000 C 
ENDBRANCH  14  16
ENDBRANCH  13  14
ENDBRANCH   3  13
TORSDOF 4
ENDMDL
MODEL 6
REMARK VINA RESULT:      -7.2      2.847      3.796
REMARK  Name = 
REMARK  4 active torsions:
REMARK  status: ('A' for Active; 'I' for Inactive)
REMARK    1  A    between atoms: C_2  and  C_13
REMARK    2  A    between atoms: N_3  and  O_4
REMARK    3  A    between atoms: O_4  and  C_5
REMARK    4  A    between atoms: C_5  and  C_7
REMARK                            x       y       z     vdW  Elec       q    Type
REMARK                         _______ _______ _______ _____ _____    ______ ____
ROOT
ATOM      1  N   UNL     1       7.024   4.485  18.641  0.00  0.00    +0.000 NA
ATOM      2  C   UNL     1       6.144   4.994  17.836  0.00  0.00    +0.000 C 
ATOM      3  N   UNL     1       5.151   5.845  18.268  0.00  0.00    +0.000 N 
ATOM      4  H   UNL     1       6.830   4.866  19.574  0.00  0.00    +0.000 HD
ATOM      5  H   UNL     1       4.352   5.963  17.637  0.00  0.00    +0.000 HD
ENDROOT
BRANCH   2   6
ATOM      6  C   UNL     1       6.232   4.652  16.378  0.00  0.00    +0.000 A 
ATOM      7  C   UNL     1       5.261   3.825  15.797  0.00  0.00    +0.000 A 
ATOM      8  C   UNL     1       5.326   3.508  14.436  0.00  0.00    +0.000 A 
ATOM      9  C   UNL     1       6.371   4.011  13.660  0.00  0.00    +0.000 A 
ATOM     10 BR   UNL     1       6.465   3.588  11.821  0.00  0.00    +0.000 Br
ATOM     11  C   UNL     1       7.352   4.822  14.233  0.00  0.00    +0.000 A 
ATOM     12  C   UNL     1       7.283   5.142  15.592  0.00  0.00    +0.000 A 
ENDBRANCH   2   6
BRANCH   3  13
ATOM     13  O   UNL     1       4.715   5.594  19.592  0.00  0.00    +0.000 OA
BRANCH  13  14
ATOM     14  C   UNL     1       3.824   4.546  19.616  0.00  0.00    +0.000 C 
ATOM     15  O   UNL     1       4.172   3.391  19.855  0.00  0.00    +0.000 OA
BRANCH  14  16
ATOM     16  C   UNL     1       2.404   4.987  19.282  0.00  0.00    +0.000 C 
ATOM     17  C   UNL     1       1.904   4.358  17.969  0.00  0.00    +0.000 C 
ATOM     18  C   UNL     1       1.579   2.868  18.096  0.00  0.00    +0.000 C 
ATOM     19  C   UNL     1       0.642   2.580  19.265  0.00  0.00    +0.000 C 
ATOM     20  C   UNL     1       1.140   3.195  20.568  0.00  0.00    +0.000 C 
ATOM     21  C   UNL     1       1.427   4.688  20.423  0.00  0.00    +0.000 C 
ENDBRANCH  14  16
ENDBRANCH  13  14
ENDBRANCH   3  13
TORSDOF 4
ENDMDL
MODEL 7
REMARK VINA RESULT:      -7.2      2.880      3.832
REMARK  Name = 
REMARK  4 active torsions:
REMARK  status: ('A' for Active; 'I' for Inactive)
REMARK    1  A    between atoms: C_2  and  C_13
REMARK    2  A    between atoms: N_3  and  O_4
REMARK    3  A    between atoms: O_4  and  C_5
REMARK    4  A    between atoms: C_5  and  C_7
REMARK                            x       y       z     vdW  Elec       q    Type
REMARK                         _______ _______ _______ _____ _____    ______ ____
ROOT
ATOM      1  N   UNL     1       7.162   4.815  18.540  0.00  0.00    +0.000 NA
ATOM      2  C   UNL     1       6.181   5.150  17.761  0.00  0.00    +0.000 C 
ATOM      3  N   UNL     1       5.094   5.868  18.208  0.00  0.00    +0.000 N 
ATOM      4  H   UNL     1       6.957   5.208  19.464  0.00  0.00    +0.000 HD
ATOM      5  H   UNL     1       4.259   5.838  17.615  0.00  0.00    +0.000 HD
ENDROOT
BRANCH   2   6
ATOM      6  C   UNL     1       6.252   4.753  16.316  0.00  0.00    +0.000 A 
ATOM      7  C   UNL     1       7.326   5.184  15.526  0.00  0.00    +0.000 A 
ATOM      8  C   UNL     1       7.407   4.811  14.181  0.00  0.00    +0.000 A 
ATOM      9  C   UNL     1       6.405   4.015  13.624  0.00  0.00    +0.000 A 
ATOM     10 BR   UNL     1       6.510   3.507  11.806  0.00  0.00    +0.000 Br
ATOM     11  C   UNL     1       5.323   3.595  14.397  0.00  0.00    +0.000 A 
ATOM     12  C   UNL     1       5.245   3.964  15.743  0.00  0.00    +0.000 A 
ENDBRANCH   2   6
BRANCH   3  13
ATOM     13  O   UNL     1       4.761   5.622  19.563  0.00  0.00    +0.000 OA
BRANCH  13  14
ATOM     14  C   UNL     1       3.841   4.603  19.656  0.00  0.00    +0.000 C 
ATOM     15  O   UNL     1       4.167   3.444  19.907  0.00  0.00    +0.000 OA
BRANCH  14  16
ATOM     16  C   UNL     1       2.421   5.078  19.377  0.00  0.00    +0.000 C 
ATOM     17  C   UNL     1       1.877   4.512  18.054  0.00  0.00    +0.000 C 
ATOM     18  C   UNL     1       1.531   3.023  18.129  0.00  0.00    +0.000 C 
ATOM     19  C   UNL     1       0.621   2.700  19.309  0.00  0.00    +0.000 C 
ATOM     20  C   UNL     1       1.162   3.254  20.623  0.00  0.00    +0.000 C 
ATOM     21  C   UNL     1       1.469   4.747  20.532  0.00  0.00    +0.000 C 
ENDBRANCH  14  16
ENDBRANCH  13  14
ENDBRANCH   3  13
TORSDOF 4
ENDMDL
MODEL 8
REMARK VINA RESULT:      -7.1      2.876      3.881
REMARK  Name = 
REMARK  4 active torsions:
REMARK  status: ('A' for Active; 'I' for Inactive)
REMARK    1  A    between atoms: C_2  and  C_13
REMARK    2  A    between atoms: N_3  and  O_4
REMARK    3  A    between atoms: O_4  and  C_5
REMARK    4  A    between atoms: C_5  and  C_7
REMARK                            x       y       z     vdW  Elec       q    Type
REMARK                         _______ _______ _______ _____ _____    ______ ____
ROOT
ATOM      1  N   UNL     1       6.286   5.044  19.548  0.00  0.00    +0.000 NA
ATOM      2  C   UNL     1       5.339   5.147  18.668  0.00  0.00    +0.000 C 
ATOM      3  N   UNL     1       4.061   5.538  19.000  0.00  0.00    +0.000 N 
ATOM      4  H   UNL     1       5.888   5.329  20.449  0.00  0.00    +0.000 HD
ATOM      5  H   UNL     1       3.330   5.318  18.316  0.00  0.00    +0.000 HD
ENDROOT
BRANCH   2   6
ATOM      6  C   UNL     1       5.663   4.847  17.234  0.00  0.00    +0.000 A 
ATOM      7  C   UNL     1       6.923   5.181  16.720  0.00  0.00    +0.000 A 
ATOM      8  C   UNL     1       7.240   4.896  15.388  0.00  0.00    +0.000 A 
ATOM      9  C   UNL     1       6.289   4.287  14.568  0.00  0.00    +0.000 A 
ATOM     10 BR   UNL     1       6.712   3.899  12.767  0.00  0.00    +0.000 Br
ATOM     11  C   UNL     1       5.026   3.966  15.065  0.00  0.00    +0.000 A 
ATOM     12  C   UNL     1       4.712   4.247  16.399  0.00  0.00    +0.000 A 
ENDBRANCH   2   6
BRANCH   3  13
ATOM     13  O   UNL     1       3.664   5.153  20.304  0.00  0.00    +0.000 OA
BRANCH  13  14
ATOM     14  C   UNL     1       2.302   5.281  20.452  0.00  0.00    +0.000 C 
ATOM     15  O   UNL     1       1.730   6.367  20.365  0.00  0.00    +0.000 OA
BRANCH  14  16
ATOM     16  C   UNL     1       1.626   3.952  20.767  0.00  0.00    +0.000 C 
ATOM     17  C   UNL     1       0.743   3.469  19.603  0.00  0.00    +0.000 C 
ATOM     18  C   UNL     1       1.546   2.957  18.405  0.00  0.00    +0.000 C 
ATOM     19  C   UNL     1       2.584   1.915  18.809  0.00  0.00    +0.000 C 
ATOM     20  C   UNL     1       3.466   2.395  19.957  0.00  0.00    +0.000 C 
ATOM     21  C   UNL     1       2.642   2.871  21.151  0.00  0.00    +0.000 C 
ENDBRANCH  14  16
ENDBRANCH  13  14
ENDBRANCH   3  13
TORSDOF 4
ENDMDL
MODEL 9
REMARK VINA RESULT:      -7.1      1.130      2.138
REMARK  Name = 
REMARK  4 active torsions:
REMARK  status: ('A' for Active; 'I' for Inactive)
REMARK    1  A    between atoms: C_2  and  C_13
REMARK    2  A    between atoms: N_3  and  O_4
REMARK    3  A    between atoms: O_4  and  C_5
REMARK    4  A    between atoms: C_5  and  C_7
REMARK                            x       y       z     vdW  Elec       q    Type
REMARK                         _______ _______ _______ _____ _____    ______ ____
ROOT
ATOM      1  N   UNL     1       5.578   4.629  16.363  0.00  0.00    +0.000 NA
ATOM      2  C   UNL     1       6.112   4.802  17.532  0.00  0.00    +0.000 C 
ATOM      3  N   UNL     1       6.046   3.846  18.523  0.00  0.00    +0.000 N 
ATOM      4  H   UNL     1       5.169   3.689  16.357  0.00  0.00    +0.000 HD
ATOM      5  H   UNL     1       6.235   4.172  19.476  0.00  0.00    +0.000 HD
ENDROOT
BRANCH   2   6
ATOM      6  C   UNL     1       6.843   6.084  17.800  0.00  0.00    +0.000 A 
ATOM      7  C   UNL     1       7.812   6.135  18.811  0.00  0.00    +0.000 A 
ATOM      8  C   UNL     1       8.509   7.322  19.062  0.00  0.00    +0.000 A 
ATOM      9  C   UNL     1       8.224   8.461  18.307  0.00  0.00    +0.000 A 
ATOM     10 BR   UNL     1       9.162  10.068  18.641  0.00  0.00    +0.000 Br
ATOM     11  C   UNL     1       7.249   8.425  17.310  0.00  0.00    +0.000 A 
ATOM     12  C   UNL     1       6.558   7.236  17.056  0.00  0.00    +0.000 A 
ENDBRANCH   2   6
BRANCH   3  13
ATOM     13  O   UNL     1       4.871   3.057  18.481  0.00  0.00    +0.000 OA
BRANCH  13  14
ATOM     14  C   UNL     1       4.297   2.980  19.730  0.00  0.00    +0.000 C 
ATOM     15  O   UNL     1       4.583   2.092  20.532  0.00  0.00    +0.000 OA
BRANCH  14  16
ATOM     16  C   UNL     1       3.267   4.079  19.961  0.00  0.00    +0.000 C 
ATOM     17  C   UNL     1       2.465   4.390  18.685  0.00  0.00    +0.000 C 
ATOM     18  C   UNL     1       1.452   3.300  18.326  0.00  0.00    +0.000 C 
ATOM     19  C   UNL     1       0.547   2.943  19.501  0.00  0.00    +0.000 C 
ATOM     20  C   UNL     1       1.341   2.627  20.764  0.00  0.00    +0.000 C 
ATOM     21  C   UNL     1       2.321   3.743  21.118  0.00  0.00    +0.000 C 
ENDBRANCH  14  16
ENDBRANCH  13  14
ENDBRANCH   3  13
TORSDOF 4
ENDMDL
