MODEL 1
REMARK VINA RESULT:      -8.9      0.000      0.000
REMARK  Name = 
REMARK  8 active torsions:
REMARK  status: ('A' for Active; 'I' for Inactive)
REMARK    1  A    between atoms: C_5  and  C_6
REMARK    2  A    between atoms: C_6  and  N_7
REMARK    3  A    between atoms: C_16  and  O_17
REMARK    4  A    between atoms: O_17  and  C_18
REMARK    5  A    between atoms: C_18  and  C_19
REMARK    6  A    between atoms: C_25  and  O_26
REMARK    7  A    between atoms: O_26  and  C_27
REMARK    8  A    between atoms: C_27  and  C_28
REMARK                            x       y       z     vdW  Elec       q    Type
REMARK                         _______ _______ _______ _____ _____    ______ ____
ROOT
ATOM      1  O   UNL     1       5.148   7.118  14.906  0.00  0.00    +0.000 OA
ATOM      2  C   UNL     1       4.788   6.879  16.048  0.00  0.00    +0.000 C 
ATOM      3  O   UNL     1       3.803   7.559  16.713  0.00  0.00    +0.000 OA
ATOM      4  C   UNL     1       3.691   6.941  17.958  0.00  0.00    +0.000 C 
ATOM      5  C   UNL     1       2.704   7.271  18.798  0.00  0.00    +0.000 C 
ATOM      6  C   UNL     1       4.723   5.960  18.087  0.00  0.00    +0.000 C 
ATOM      7  C   UNL     1       5.371   5.850  16.930  0.00  0.00    +0.000 C 
ENDROOT
BRANCH   5   8
ATOM      8  C   UNL     1       1.762   8.424  18.609  0.00  0.00    +0.000 C 
BRANCH   8   9
ATOM      9  N   UNL     1       1.309   8.888  19.906  0.00  0.00    +0.000 N 
ATOM     10  C   UNL     1       1.218   7.978  20.938  0.00  0.00    +0.000 A 
ATOM     11  O   UNL     1       1.498   6.785  20.845  0.00  0.00    +0.000 OA
ATOM     12  N   UNL     1       0.773   8.468  22.130  0.00  0.00    +0.000 N 
ATOM     13  C   UNL     1       0.443   9.760  22.353  0.00  0.00    +0.000 A 
ATOM     14  O   UNL     1       0.059  10.156  23.451  0.00  0.00    +0.000 OA
ATOM     15  N   UNL     1       0.560  10.595  21.294  0.00  0.00    +0.000 N 
ATOM     16  C   UNL     1       0.989  10.218  20.058  0.00  0.00    +0.000 A 
ATOM     17  O   UNL     1       1.074  11.057  19.162  0.00  0.00    +0.000 OA
ATOM     18  H   UNL     1       0.698   7.816  22.897  0.00  0.00    +0.000 HD
ATOM     19  H   UNL     1       0.326  11.566  21.431  0.00  0.00    +0.000 HD
ENDBRANCH   8   9
ENDBRANCH   5   8
BRANCH   6  20
ATOM     20  O   UNL     1       5.095   5.283  19.216  0.00  0.00    +0.000 OA
BRANCH  20  21
ATOM     21  C   UNL     1       4.758   3.911  19.474  0.00  0.00    +0.000 C 
BRANCH  21  22
ATOM     22  C   UNL     1       3.299   3.512  19.579  0.00  0.00    +0.000 A 
ATOM     23  C   UNL     1       2.573   3.244  18.405  0.00  0.00    +0.000 A 
ATOM     24  C   UNL     1       1.202   2.992  18.456  0.00  0.00    +0.000 A 
ATOM     25  C   UNL     1       0.541   2.999  19.682  0.00  0.00    +0.000 A 
ATOM     26  C   UNL     1       1.256   3.213  20.858  0.00  0.00    +0.000 A 
ATOM     27  C   UNL     1       2.633   3.433  20.811  0.00  0.00    +0.000 A 
ENDBRANCH  21  22
ENDBRANCH  20  21
ENDBRANCH   6  20
BRANCH   7  28
ATOM     28  O   UNL     1       6.419   5.008  16.664  0.00  0.00    +0.000 OA
BRANCH  28  29
ATOM     29  C   UNL     1       6.060   3.871  15.869  0.00  0.00    +0.000 C 
BRANCH  29  30
ATOM     30  C   UNL     1       6.498   4.069  14.436  0.00  0.00    +0.000 A 
ATOM     31  C   UNL     1       5.857   3.349  13.415  0.00  0.00    +0.000 A 
ATOM     32  C   UNL     1       6.232   3.515  12.081  0.00  0.00    +0.000 A 
ATOM     33  C   UNL     1       7.244   4.414  11.750  0.00  0.00    +0.000 A 
ATOM     34  C   UNL     1       7.873   5.151  12.751  0.00  0.00    +0.000 A 
ATOM     35  C   UNL     1       7.498   4.986  14.086  0.00  0.00    +0.000 A 
ENDBRANCH  29  30
ENDBRANCH  28  29
ENDBRANCH   7  28
TORSDOF 8
ENDMDL
MODEL 2
REMARK VINA RESULT:      -8.8      0.300      1.432
REMARK  Name = 
REMARK  8 active torsions:
REMARK  status: ('A' for Active; 'I' for Inactive)
REMARK    1  A    between atoms: C_5  and  C_6
REMARK    2  A    between atoms: C_6  and  N_7
REMARK    3  A    between atoms: C_16  and  O_17
REMARK    4  A    between atoms: O_17  and  C_18
REMARK    5  A    between atoms: C_18  and  C_19
REMARK    6  A    between atoms: C_25  and  O_26
REMARK    7  A    between atoms: O_26  and  C_27
REMARK    8  A    between atoms: C_27  and  C_28
REMARK                            x       y       z     vdW  Elec       q    Type
REMARK                         _______ _______ _______ _____ _____    ______ ____
ROOT
ATOM      1  O   UNL     1       5.081   7.149  14.902  0.00  0.00    +0.000 OA
ATOM      2  C   UNL     1       4.724   6.943  16.051  0.00  0.00    +0.000 C 
ATOM      3  O   UNL     1       3.740   7.642  16.698  0.00  0.00    +0.000 OA
ATOM      4  C   UNL     1       3.630   7.061  17.961  0.00  0.00    +0.000 C 
ATOM      5  C   UNL     1       2.645   7.414  18.793  0.00  0.00    +0.000 C 
ATOM      6  C   UNL     1       4.663   6.084  18.117  0.00  0.00    +0.000 C 
ATOM      7  C   UNL     1       5.309   5.941  16.962  0.00  0.00    +0.000 C 
ENDROOT
BRANCH   5   8
ATOM      8  C   UNL     1       1.702   8.561  18.571  0.00  0.00    +0.000 C 
BRANCH   8   9
ATOM      9  N   UNL     1       1.231   9.046  19.855  0.00  0.00    +0.000 N 
ATOM     10  C   UNL     1       0.888  10.375  19.973  0.00  0.00    +0.000 A 
ATOM     11  O   UNL     1       0.947  11.197  19.060  0.00  0.00    +0.000 OA
ATOM     12  N   UNL     1       0.466  10.778  21.205  0.00  0.00    +0.000 N 
ATOM     13  C   UNL     1       0.353   9.965  22.280  0.00  0.00    +0.000 A 
ATOM     14  O   UNL     1      -0.046  10.374  23.368  0.00  0.00    +0.000 OA
ATOM     15  N   UNL     1       0.706   8.673  22.088  0.00  0.00    +0.000 N 
ATOM     16  C   UNL     1       1.144   8.160  20.905  0.00  0.00    +0.000 A 
ATOM     17  O   UNL     1       1.428   6.966  20.828  0.00  0.00    +0.000 OA
ATOM     18  H   UNL     1       0.211  11.749  21.311  0.00  0.00    +0.000 HD
ATOM     19  H   UNL     1       0.626   8.041  22.870  0.00  0.00    +0.000 HD
ENDBRANCH   8   9
ENDBRANCH   5   8
BRANCH   6  20
ATOM     20  O   UNL     1       5.038   5.440  19.264  0.00  0.00    +0.000 OA
BRANCH  20  21
ATOM     21  C   UNL     1       4.800   4.047  19.514  0.00  0.00    +0.000 C 
BRANCH  21  22
ATOM     22  C   UNL     1       3.380   3.516  19.470  0.00  0.00    +0.000 A 
ATOM     23  C   UNL     1       2.983   2.704  18.393  0.00  0.00    +0.000 A 
ATOM     24  C   UNL     1       1.655   2.298  18.258  0.00  0.00    +0.000 A 
ATOM     25  C   UNL     1       0.710   2.693  19.201  0.00  0.00    +0.000 A 
ATOM     26  C   UNL     1       1.099   3.456  20.299  0.00  0.00    +0.000 A 
ATOM     27  C   UNL     1       2.433   3.836  20.452  0.00  0.00    +0.000 A 
ENDBRANCH  21  22
ENDBRANCH  20  21
ENDBRANCH   6  20
BRANCH   7  28
ATOM     28  O   UNL     1       6.357   5.092  16.718  0.00  0.00    +0.000 OA
BRANCH  28  29
ATOM     29  C   UNL     1       6.002   3.943  15.939  0.00  0.00    +0.000 C 
BRANCH  29  30
ATOM     30  C   UNL     1       6.453   4.117  14.506  0.00  0.00    +0.000 A 
ATOM     31  C   UNL     1       5.781   3.426  13.485  0.00  0.00    +0.000 A 
ATOM     32  C   UNL     1       6.168   3.571  12.152  0.00  0.00    +0.000 A 
ATOM     33  C   UNL     1       7.221   4.421  11.822  0.00  0.00    +0.000 A 
ATOM     34  C   UNL     1       7.881   5.131  12.823  0.00  0.00    +0.000 A 
ATOM     35  C   UNL     1       7.495   4.986  14.158  0.00  0.00    +0.000 A 
ENDBRANCH  29  30
ENDBRANCH  28  29
ENDBRANCH   7  28
TORSDOF 8
ENDMDL
MODEL 3
REMARK VINA RESULT:      -8.8      0.228      1.841
REMARK  Name = 
REMARK  8 active torsions:
REMARK  status: ('A' for Active; 'I' for Inactive)
REMARK    1  A    between atoms: C_5  and  C_6
REMARK    2  A    between atoms: C_6  and  N_7
REMARK    3  A    between atoms: C_16  and  O_17
REMARK    4  A    between atoms: O_17  and  C_18
REMARK    5  A    between atoms: C_18  and  C_19
REMARK    6  A    between atoms: C_25  and  O_26
REMARK    7  A    between atoms: O_26  and  C_27
REMARK    8  A    between atoms: C_27  and  C_28
REMARK                            x       y       z     vdW  Elec       q    Type
REMARK                         _______ _______ _______ _____ _____    ______ ____
ROOT
ATOM      1  O   UNL     1       5.127   7.130  14.863  0.00  0.00    +0.000 OA
ATOM      2  C   UNL     1       4.763   6.925  16.011  0.00  0.00    +0.000 C 
ATOM      3  O   UNL     1       3.770   7.618  16.649  0.00  0.00    +0.000 OA
ATOM      4  C   UNL     1       3.657   7.040  17.913  0.00  0.00    +0.000 C 
ATOM      5  C   UNL     1       2.663   7.389  18.738  0.00  0.00    +0.000 C 
ATOM      6  C   UNL     1       4.696   6.072  18.079  0.00  0.00    +0.000 C 
ATOM      7  C   UNL     1       5.350   5.930  16.928  0.00  0.00    +0.000 C 
ENDROOT
BRANCH   5   8
ATOM      8  C   UNL     1       1.714   8.527  18.507  0.00  0.00    +0.000 C 
BRANCH   8   9
ATOM      9  N   UNL     1       1.251   9.030  19.786  0.00  0.00    +0.000 N 
ATOM     10  C   UNL     1       0.895  10.358  19.885  0.00  0.00    +0.000 A 
ATOM     11  O   UNL     1       0.936  11.163  18.957  0.00  0.00    +0.000 OA
ATOM     12  N   UNL     1       0.481  10.777  21.114  0.00  0.00    +0.000 N 
ATOM     13  C   UNL     1       0.389   9.983  22.205  0.00  0.00    +0.000 A 
ATOM     14  O   UNL     1      -0.003  10.406  23.290  0.00  0.00    +0.000 OA
ATOM     15  N   UNL     1       0.753   8.691  22.031  0.00  0.00    +0.000 N 
ATOM     16  C   UNL     1       1.185   8.162  20.853  0.00  0.00    +0.000 A 
ATOM     17  O   UNL     1       1.480   6.969  20.794  0.00  0.00    +0.000 OA
ATOM     18  H   UNL     1       0.218  11.747  21.206  0.00  0.00    +0.000 HD
ATOM     19  H   UNL     1       0.689   8.072  22.825  0.00  0.00    +0.000 HD
ENDBRANCH   8   9
ENDBRANCH   5   8
BRANCH   6  20
ATOM     20  O   UNL     1       5.068   5.434  19.230  0.00  0.00    +0.000 OA
BRANCH  20  21
ATOM     21  C   UNL     1       4.737   4.070  19.533  0.00  0.00    +0.000 C 
BRANCH  21  22
ATOM     22  C   UNL     1       3.288   3.626  19.467  0.00  0.00    +0.000 A 
ATOM     23  C   UNL     1       2.462   3.805  20.590  0.00  0.00    +0.000 A 
ATOM     24  C   UNL     1       1.161   3.301  20.606  0.00  0.00    +0.000 A 
ATOM     25  C   UNL     1       0.669   2.616  19.498  0.00  0.00    +0.000 A 
ATOM     26  C   UNL     1       1.459   2.474  18.360  0.00  0.00    +0.000 A 
ATOM     27  C   UNL     1       2.749   3.006  18.331  0.00  0.00    +0.000 A 
ENDBRANCH  21  22
ENDBRANCH  20  21
ENDBRANCH   6  20
BRANCH   7  28
ATOM     28  O   UNL     1       6.406   5.088  16.695  0.00  0.00    +0.000 OA
BRANCH  28  29
ATOM     29  C   UNL     1       6.058   3.918  15.943  0.00  0.00    +0.000 C 
BRANCH  29  30
ATOM     30  C   UNL     1       6.430   4.095  14.489  0.00  0.00    +0.000 A 
ATOM     31  C   UNL     1       7.506   4.932  14.150  0.00  0.00    +0.000 A 
ATOM     32  C   UNL     1       7.880   5.109  12.817  0.00  0.00    +0.000 A 
ATOM     33  C   UNL     1       7.192   4.441  11.807  0.00  0.00    +0.000 A 
ATOM     34  C   UNL     1       6.137   3.590  12.131  0.00  0.00    +0.000 A 
ATOM     35  C   UNL     1       5.762   3.411  13.464  0.00  0.00    +0.000 A 
ENDBRANCH  29  30
ENDBRANCH  28  29
ENDBRANCH   7  28
TORSDOF 8
ENDMDL
MODEL 4
REMARK VINA RESULT:      -8.7      4.175      7.629
REMARK  Name = 
REMARK  8 active torsions:
REMARK  status: ('A' for Active; 'I' for Inactive)
REMARK    1  A    between atoms: C_5  and  C_6
REMARK    2  A    between atoms: C_6  and  N_7
REMARK    3  A    between atoms: C_16  and  O_17
REMARK    4  A    between atoms: O_17  and  C_18
REMARK    5  A    between atoms: C_18  and  C_19
REMARK    6  A    between atoms: C_25  and  O_26
REMARK    7  A    between atoms: O_26  and  C_27
REMARK    8  A    between atoms: C_27  and  C_28
REMARK                            x       y       z     vdW  Elec       q    Type
REMARK                         _______ _______ _______ _____ _____    ______ ____
ROOT
ATOM      1  O   UNL     1       2.473   8.950  17.282  0.00  0.00    +0.000 OA
ATOM      2  C   UNL     1       1.574   9.204  18.069  0.00  0.00    +0.000 C 
ATOM      3  O   UNL     1       0.578  10.117  17.846  0.00  0.00    +0.000 OA
ATOM      4  C   UNL     1      -0.245  10.061  18.971  0.00  0.00    +0.000 C 
ATOM      5  C   UNL     1      -1.405  10.726  19.001  0.00  0.00    +0.000 C 
ATOM      6  C   UNL     1       0.348   9.196  19.941  0.00  0.00    +0.000 C 
ATOM      7  C   UNL     1       1.420   8.611  19.411  0.00  0.00    +0.000 C 
ENDROOT
BRANCH   5   8
ATOM      8  C   UNL     1      -1.854  11.722  17.972  0.00  0.00    +0.000 C 
BRANCH   8   9
ATOM      9  N   UNL     1      -3.303  11.737  17.924  0.00  0.00    +0.000 N 
ATOM     10  C   UNL     1      -3.931  11.299  16.777  0.00  0.00    +0.000 A 
ATOM     11  O   UNL     1      -3.349  10.887  15.776  0.00  0.00    +0.000 OA
ATOM     12  N   UNL     1      -5.293  11.350  16.783  0.00  0.00    +0.000 N 
ATOM     13  C   UNL     1      -6.040  11.777  17.827  0.00  0.00    +0.000 A 
ATOM     14  O   UNL     1      -7.268  11.791  17.788  0.00  0.00    +0.000 OA
ATOM     15  N   UNL     1      -5.355  12.188  18.919  0.00  0.00    +0.000 N 
ATOM     16  C   UNL     1      -3.997  12.187  19.025  0.00  0.00    +0.000 A 
ATOM     17  O   UNL     1      -3.468  12.569  20.067  0.00  0.00    +0.000 OA
ATOM     18  H   UNL     1      -5.770  11.035  15.951  0.00  0.00    +0.000 HD
ATOM     19  H   UNL     1      -5.885  12.507  19.716  0.00  0.00    +0.000 HD
ENDBRANCH   8   9
ENDBRANCH   5   8
BRANCH   6  20
ATOM     20  O   UNL     1      -0.021   9.029  21.248  0.00  0.00    +0.000 OA
BRANCH  20  21
ATOM     21  C   UNL     1       0.303   9.955  22.296  0.00  0.00    +0.000 C 
BRANCH  21  22
ATOM     22  C   UNL     1      -0.542  11.202  22.471  0.00  0.00    +0.000 A 
ATOM     23  C   UNL     1      -0.082  12.423  21.947  0.00  0.00    +0.000 A 
ATOM     24  C   UNL     1      -0.773  13.610  22.192  0.00  0.00    +0.000 A 
ATOM     25  C   UNL     1      -1.935  13.590  22.961  0.00  0.00    +0.000 A 
ATOM     26  C   UNL     1      -2.429  12.381  23.444  0.00  0.00    +0.000 A 
ATOM     27  C   UNL     1      -1.756  11.189  23.172  0.00  0.00    +0.000 A 
ENDBRANCH  21  22
ENDBRANCH  20  21
ENDBRANCH   6  20
BRANCH   7  28
ATOM     28  O   UNL     1       2.245   7.711  20.035  0.00  0.00    +0.000 OA
BRANCH  28  29
ATOM     29  C   UNL     1       2.823   6.746  19.148  0.00  0.00    +0.000 C 
BRANCH  29  30
ATOM     30  C   UNL     1       2.141   5.406  19.308  0.00  0.00    +0.000 A 
ATOM     31  C   UNL     1       1.975   4.580  18.184  0.00  0.00    +0.000 A 
ATOM     32  C   UNL     1       1.357   3.334  18.300  0.00  0.00    +0.000 A 
ATOM     33  C   UNL     1       0.912   2.892  19.544  0.00  0.00    +0.000 A 
ATOM     34  C   UNL     1       1.092   3.691  20.671  0.00  0.00    +0.000 A 
ATOM     35  C   UNL     1       1.710   4.939  20.557  0.00  0.00    +0.000 A 
ENDBRANCH  29  30
ENDBRANCH  28  29
ENDBRANCH   7  28
TORSDOF 8
ENDMDL
MODEL 5
REMARK VINA RESULT:      -8.7      3.716      6.883
REMARK  Name = 
REMARK  8 active torsions:
REMARK  status: ('A' for Active; 'I' for Inactive)
REMARK    1  A    between atoms: C_5  and  C_6
REMARK    2  A    between atoms: C_6  and  N_7
REMARK    3  A    between atoms: C_16  and  O_17
REMARK    4  A    between atoms: O_17  and  C_18
REMARK    5  A    between atoms: C_18  and  C_19
REMARK    6  A    between atoms: C_25  and  O_26
REMARK    7  A    between atoms: O_26  and  C_27
REMARK    8  A    between atoms: C_27  and  C_28
REMARK                            x       y       z     vdW  Elec       q    Type
REMARK                         _______ _______ _______ _____ _____    ______ ____
ROOT
ATOM      1  O   UNL     1       7.596   5.725  19.865  0.00  0.00    +0.000 OA
ATOM      2  C   UNL     1       7.068   5.439  18.802  0.00  0.00    +0.000 C 
ATOM      3  O   UNL     1       6.304   4.324  18.586  0.00  0.00    +0.000 OA
ATOM      4  C   UNL     1       5.873   4.410  17.263  0.00  0.00    +0.000 C 
ATOM      5  C   UNL     1       4.974   3.546  16.779  0.00  0.00    +0.000 C 
ATOM      6  C   UNL     1       6.503   5.531  16.638  0.00  0.00    +0.000 C 
ATOM      7  C   UNL     1       7.188   6.214  17.552  0.00  0.00    +0.000 C 
ENDROOT
BRANCH   5   8
ATOM      8  C   UNL     1       4.491   2.318  17.494  0.00  0.00    +0.000 C 
BRANCH   8   9
ATOM      9  N   UNL     1       3.503   2.700  18.484  0.00  0.00    +0.000 N 
ATOM     10  C   UNL     1       3.809   2.540  19.819  0.00  0.00    +0.000 A 
ATOM     11  O   UNL     1       4.872   2.094  20.243  0.00  0.00    +0.000 OA
ATOM     12  N   UNL     1       2.838   2.903  20.703  0.00  0.00    +0.000 N 
ATOM     13  C   UNL     1       1.634   3.412  20.355  0.00  0.00    +0.000 A 
ATOM     14  O   UNL     1       0.795   3.737  21.193  0.00  0.00    +0.000 OA
ATOM     15  N   UNL     1       1.406   3.542  19.028  0.00  0.00    +0.000 N 
ATOM     16  C   UNL     1       2.298   3.210  18.055  0.00  0.00    +0.000 A 
ATOM     17  O   UNL     1       2.000   3.379  16.873  0.00  0.00    +0.000 OA
ATOM     18  H   UNL     1       3.043   2.791  21.685  0.00  0.00    +0.000 HD
ATOM     19  H   UNL     1       0.518   3.925  18.737  0.00  0.00    +0.000 HD
ENDBRANCH   8   9
ENDBRANCH   5   8
BRANCH   6  20
ATOM     20  O   UNL     1       6.519   5.846  15.307  0.00  0.00    +0.000 OA
BRANCH  20  21
ATOM     21  C   UNL     1       7.272   5.122  14.322  0.00  0.00    +0.000 C 
BRANCH  21  22
ATOM     22  C   UNL     1       6.545   4.199  13.362  0.00  0.00    +0.000 A 
ATOM     23  C   UNL     1       7.285   3.477  12.410  0.00  0.00    +0.000 A 
ATOM     24  C   UNL     1       6.641   2.713  11.437  0.00  0.00    +0.000 A 
ATOM     25  C   UNL     1       5.250   2.656  11.407  0.00  0.00    +0.000 A 
ATOM     26  C   UNL     1       4.506   3.326  12.376  0.00  0.00    +0.000 A 
ATOM     27  C   UNL     1       5.149   4.065  13.369  0.00  0.00    +0.000 A 
ENDBRANCH  21  22
ENDBRANCH  20  21
ENDBRANCH   6  20
BRANCH   7  28
ATOM     28  O   UNL     1       7.919   7.353  17.334  0.00  0.00    +0.000 OA
BRANCH  28  29
ATOM     29  C   UNL     1       7.184   8.563  17.557  0.00  0.00    +0.000 C 
BRANCH  29  30
ATOM     30  C   UNL     1       8.100   9.650  18.071  0.00  0.00    +0.000 A 
ATOM     31  C   UNL     1       8.980   9.366  19.129  0.00  0.00    +0.000 A 
ATOM     32  C   UNL     1       9.843  10.345  19.621  0.00  0.00    +0.000 A 
ATOM     33  C   UNL     1       9.850  11.617  19.052  0.00  0.00    +0.000 A 
ATOM     34  C   UNL     1       8.999  11.906  17.987  0.00  0.00    +0.000 A 
ATOM     35  C   UNL     1       8.134  10.927  17.493  0.00  0.00    +0.000 A 
ENDBRANCH  29  30
ENDBRANCH  28  29
ENDBRANCH   7  28
TORSDOF 8
ENDMDL
MODEL 6
REMARK VINA RESULT:      -8.7      3.732      6.318
REMARK  Name = 
REMARK  8 active torsions:
REMARK  status: ('A' for Active; 'I' for Inactive)
REMARK    1  A    between atoms: C_5  and  C_6
REMARK    2  A    between atoms: C_6  and  N_7
REMARK    3  A    between atoms: C_16  and  O_17
REMARK    4  A    between atoms: O_17  and  C_18
REMARK    5  A    between atoms: C_18  and  C_19
REMARK    6  A    between atoms: C_25  and  O_26
REMARK    7  A    between atoms: O_26  and  C_27
REMARK    8  A    between atoms: C_27  and  C_28
REMARK                            x       y       z     vdW  Elec       q    Type
REMARK                         _______ _______ _______ _____ _____    ______ ____
ROOT
ATOM      1  O   UNL     1       8.538   4.362  17.930  0.00  0.00    +0.000 OA
ATOM      2  C   UNL     1       7.405   4.799  17.805  0.00  0.00    +0.000 C 
ATOM      3  O   UNL     1       6.270   4.035  17.814  0.00  0.00    +0.000 OA
ATOM      4  C   UNL     1       5.209   4.932  17.683  0.00  0.00    +0.000 C 
ATOM      5  C   UNL     1       3.944   4.517  17.811  0.00  0.00    +0.000 C 
ATOM      6  C   UNL     1       5.731   6.243  17.456  0.00  0.00    +0.000 C 
ATOM      7  C   UNL     1       7.056   6.215  17.582  0.00  0.00    +0.000 C 
ENDROOT
BRANCH   5   8
ATOM      8  C   UNL     1       3.515   3.082  17.906  0.00  0.00    +0.000 C 
BRANCH   8   9
ATOM      9  N   UNL     1       2.835   2.870  19.170  0.00  0.00    +0.000 N 
ATOM     10  C   UNL     1       1.462   2.984  19.209  0.00  0.00    +0.000 A 
ATOM     11  O   UNL     1       0.755   3.253  18.240  0.00  0.00    +0.000 OA
ATOM     12  N   UNL     1       0.879   2.788  20.425  0.00  0.00    +0.000 N 
ATOM     13  C   UNL     1       1.552   2.481  21.558  0.00  0.00    +0.000 A 
ATOM     14  O   UNL     1       0.978   2.301  22.630  0.00  0.00    +0.000 OA
ATOM     15  N   UNL     1       2.897   2.384  21.442  0.00  0.00    +0.000 N 
ATOM     16  C   UNL     1       3.587   2.562  20.282  0.00  0.00    +0.000 A 
ATOM     17  O   UNL     1       4.810   2.438  20.277  0.00  0.00    +0.000 OA
ATOM     18  H   UNL     1      -0.126   2.869  20.474  0.00  0.00    +0.000 HD
ATOM     19  H   UNL     1       3.425   2.150  22.269  0.00  0.00    +0.000 HD
ENDBRANCH   8   9
ENDBRANCH   5   8
BRANCH   6  20
ATOM     20  O   UNL     1       5.043   7.361  17.072  0.00  0.00    +0.000 OA
BRANCH  20  21
ATOM     21  C   UNL     1       3.616   7.409  16.917  0.00  0.00    +0.000 C 
BRANCH  21  22
ATOM     22  C   UNL     1       2.773   8.046  18.005  0.00  0.00    +0.000 A 
ATOM     23  C   UNL     1       2.589   7.363  19.220  0.00  0.00    +0.000 A 
ATOM     24  C   UNL     1       1.723   7.861  20.194  0.00  0.00    +0.000 A 
ATOM     25  C   UNL     1       1.036   9.052  19.968  0.00  0.00    +0.000 A 
ATOM     26  C   UNL     1       1.248   9.764  18.790  0.00  0.00    +0.000 A 
ATOM     27  C   UNL     1       2.137   9.283  17.829  0.00  0.00    +0.000 A 
ENDBRANCH  21  22
ENDBRANCH  20  21
ENDBRANCH   6  20
BRANCH   7  28
ATOM     28  O   UNL     1       7.906   7.281  17.441  0.00  0.00    +0.000 OA
BRANCH  28  29
ATOM     29  C   UNL     1       7.249   8.554  17.478  0.00  0.00    +0.000 C 
BRANCH  29  30
ATOM     30  C   UNL     1       8.175   9.611  18.037  0.00  0.00    +0.000 A 
ATOM     31  C   UNL     1       8.161  10.901  17.483  0.00  0.00    +0.000 A 
ATOM     32  C   UNL     1       8.997  11.901  17.982  0.00  0.00    +0.000 A 
ATOM     33  C   UNL     1       9.846  11.627  19.052  0.00  0.00    +0.000 A 
ATOM     34  C   UNL     1       9.854  10.357  19.626  0.00  0.00    +0.000 A 
ATOM     35  C   UNL     1       9.017   9.356  19.128  0.00  0.00    +0.000 A 
ENDBRANCH  29  30
ENDBRANCH  28  29
ENDBRANCH   7  28
TORSDOF 8
ENDMDL
MODEL 7
REMARK VINA RESULT:      -8.7      3.827     10.164
REMARK  Name = 
REMARK  8 active torsions:
REMARK  status: ('A' for Active; 'I' for Inactive)
REMARK    1  A    between atoms: C_5  and  C_6
REMARK    2  A    between atoms: C_6  and  N_7
REMARK    3  A    between atoms: C_16  and  O_17
REMARK    4  A    between atoms: O_17  and  C_18
REMARK    5  A    between atoms: C_18  and  C_19
REMARK    6  A    between atoms: C_25  and  O_26
REMARK    7  A    between atoms: O_26  and  C_27
REMARK    8  A    between atoms: C_27  and  C_28
REMARK                            x       y       z     vdW  Elec       q    Type
REMARK                         _______ _______ _______ _____ _____    ______ ____
ROOT
ATOM      1  O   UNL     1       0.514   9.620  23.453  0.00  0.00    +0.000 OA
ATOM      2  C   UNL     1       0.639   9.478  22.247  0.00  0.00    +0.000 C 
ATOM      3  O   UNL     1       1.527   8.624  21.651  0.00  0.00    +0.000 OA
ATOM      4  C   UNL     1       1.310   8.748  20.279  0.00  0.00    +0.000 C 
ATOM      5  C   UNL     1       1.916   7.927  19.414  0.00  0.00    +0.000 C 
ATOM      6  C   UNL     1       0.366   9.796  20.049  0.00  0.00    +0.000 C 
ATOM      7  C   UNL     1      -0.109  10.224  21.216  0.00  0.00    +0.000 C 
ENDROOT
BRANCH   5   8
ATOM      8  C   UNL     1       3.002   6.954  19.769  0.00  0.00    +0.000 C 
BRANCH   8   9
ATOM      9  N   UNL     1       2.744   5.690  19.107  0.00  0.00    +0.000 N 
ATOM     10  C   UNL     1       1.868   4.803  19.696  0.00  0.00    +0.000 A 
ATOM     11  O   UNL     1       1.276   5.003  20.754  0.00  0.00    +0.000 OA
ATOM     12  N   UNL     1       1.675   3.626  19.036  0.00  0.00    +0.000 N 
ATOM     13  C   UNL     1       2.264   3.297  17.864  0.00  0.00    +0.000 A 
ATOM     14  O   UNL     1       2.047   2.226  17.302  0.00  0.00    +0.000 OA
ATOM     15  N   UNL     1       3.109   4.218  17.346  0.00  0.00    +0.000 N 
ATOM     16  C   UNL     1       3.382   5.424  17.916  0.00  0.00    +0.000 A 
ATOM     17  O   UNL     1       4.156   6.200  17.358  0.00  0.00    +0.000 OA
ATOM     18  H   UNL     1       1.038   2.963  19.453  0.00  0.00    +0.000 HD
ATOM     19  H   UNL     1       3.559   4.004  16.469  0.00  0.00    +0.000 HD
ENDBRANCH   8   9
ENDBRANCH   5   8
BRANCH   6  20
ATOM     20  O   UNL     1       0.036  10.376  18.854  0.00  0.00    +0.000 OA
BRANCH  20  21
ATOM     21  C   UNL     1      -0.763   9.737  17.848  0.00  0.00    +0.000 C 
BRANCH  21  22
ATOM     22  C   UNL     1      -2.062  10.385  17.409  0.00  0.00    +0.000 A 
ATOM     23  C   UNL     1      -2.828  11.095  18.350  0.00  0.00    +0.000 A 
ATOM     24  C   UNL     1      -4.084  11.600  18.012  0.00  0.00    +0.000 A 
ATOM     25  C   UNL     1      -4.586  11.407  16.727  0.00  0.00    +0.000 A 
ATOM     26  C   UNL     1      -3.817  10.750  15.771  0.00  0.00    +0.000 A 
ATOM     27  C   UNL     1      -2.548  10.272  16.098  0.00  0.00    +0.000 A 
ENDBRANCH  21  22
ENDBRANCH  20  21
ENDBRANCH   6  20
BRANCH   7  28
ATOM     28  O   UNL     1      -1.038  11.215  21.401  0.00  0.00    +0.000 OA
BRANCH  28  29
ATOM     29  C   UNL     1      -0.494  12.421  21.952  0.00  0.00    +0.000 C 
BRANCH  29  30
ATOM     30  C   UNL     1      -1.474  13.048  22.918  0.00  0.00    +0.000 A 
ATOM     31  C   UNL     1      -2.689  12.397  23.186  0.00  0.00    +0.000 A 
ATOM     32  C   UNL     1      -3.610  12.945  24.079  0.00  0.00    +0.000 A 
ATOM     33  C   UNL     1      -3.322  14.144  24.727  0.00  0.00    +0.000 A 
ATOM     34  C   UNL     1      -2.110  14.789  24.488  0.00  0.00    +0.000 A 
ATOM     35  C   UNL     1      -1.186  14.241  23.595  0.00  0.00    +0.000 A 
ENDBRANCH  29  30
ENDBRANCH  28  29
ENDBRANCH   7  28
TORSDOF 8
ENDMDL
MODEL 8
REMARK VINA RESULT:      -8.6      2.459      5.547
REMARK  Name = 
REMARK  8 active torsions:
REMARK  status: ('A' for Active; 'I' for Inactive)
REMARK    1  A    between atoms: C_5  and  C_6
REMARK    2  A    between atoms: C_6  and  N_7
REMARK    3  A    between atoms: C_16  and  O_17
REMARK    4  A    between atoms: O_17  and  C_18
REMARK    5  A    between atoms: C_18  and  C_19
REMARK    6  A    between atoms: C_25  and  O_26
REMARK    7  A    between atoms: O_26  and  C_27
REMARK    8  A    between atoms: C_27  and  C_28
REMARK                            x       y       z     vdW  Elec       q    Type
REMARK                         _______ _______ _______ _____ _____    ______ ____
ROOT
ATOM      1  O   UNL     1       0.732   8.048  22.182  0.00  0.00    +0.000 OA
ATOM      2  C   UNL     1       1.057   8.333  21.040  0.00  0.00    +0.000 C 
ATOM      3  O   UNL     1       0.638   9.450  20.367  0.00  0.00    +0.000 OA
ATOM      4  C   UNL     1       1.272   9.402  19.125  0.00  0.00    +0.000 C 
ATOM      5  C   UNL     1       1.195  10.436  18.279  0.00  0.00    +0.000 C 
ATOM      6  C   UNL     1       1.975   8.164  19.006  0.00  0.00    +0.000 C 
ATOM      7  C   UNL     1       1.918   7.514  20.167  0.00  0.00    +0.000 C 
ENDROOT
BRANCH   5   8
ATOM      8  C   UNL     1       0.303  11.629  18.458  0.00  0.00    +0.000 C 
BRANCH   8   9
ATOM      9  N   UNL     1       0.864  12.495  19.478  0.00  0.00    +0.000 N 
ATOM     10  C   UNL     1       2.103  13.056  19.260  0.00  0.00    +0.000 A 
ATOM     11  O   UNL     1       2.783  12.880  18.251  0.00  0.00    +0.000 OA
ATOM     12  N   UNL     1       2.585  13.849  20.259  0.00  0.00    +0.000 N 
ATOM     13  C   UNL     1       1.927  14.120  21.408  0.00  0.00    +0.000 A 
ATOM     14  O   UNL     1       2.400  14.853  22.274  0.00  0.00    +0.000 OA
ATOM     15  N   UNL     1       0.714  13.536  21.550  0.00  0.00    +0.000 N 
ATOM     16  C   UNL     1       0.135  12.724  20.624  0.00  0.00    +0.000 A 
ATOM     17  O   UNL     1      -0.979  12.251  20.841  0.00  0.00    +0.000 OA
ATOM     18  H   UNL     1       3.493  14.267  20.118  0.00  0.00    +0.000 HD
ATOM     19  H   UNL     1       0.196  13.725  22.395  0.00  0.00    +0.000 HD
ENDBRANCH   8   9
ENDBRANCH   5   8
BRANCH   6  20
ATOM     20  O   UNL     1       2.548   7.632  17.884  0.00  0.00    +0.000 OA
BRANCH  20  21
ATOM     21  C   UNL     1       3.949   7.718  17.582  0.00  0.00    +0.000 C 
BRANCH  21  22
ATOM     22  C   UNL     1       4.725   6.449  17.289  0.00  0.00    +0.000 A 
ATOM     23  C   UNL     1       5.308   5.737  18.352  0.00  0.00    +0.000 A 
ATOM     24  C   UNL     1       6.127   4.635  18.109  0.00  0.00    +0.000 A 
ATOM     25  C   UNL     1       6.368   4.226  16.799  0.00  0.00    +0.000 A 
ATOM     26  C   UNL     1       5.757   4.890  15.739  0.00  0.00    +0.000 A 
ATOM     27  C   UNL     1       4.912   5.973  15.983  0.00  0.00    +0.000 A 
ENDBRANCH  21  22
ENDBRANCH  20  21
ENDBRANCH   6  20
BRANCH   7  28
ATOM     28  O   UNL     1       2.481   6.294  20.442  0.00  0.00    +0.000 OA
BRANCH  28  29
ATOM     29  C   UNL     1       1.567   5.197  20.327  0.00  0.00    +0.000 C 
BRANCH  29  30
ATOM     30  C   UNL     1       2.143   4.121  19.435  0.00  0.00    +0.000 A 
ATOM     31  C   UNL     1       1.974   4.216  18.045  0.00  0.00    +0.000 A 
ATOM     32  C   UNL     1       2.501   3.243  17.194  0.00  0.00    +0.000 A 
ATOM     33  C   UNL     1       3.216   2.170  17.722  0.00  0.00    +0.000 A 
ATOM     34  C   UNL     1       3.411   2.076  19.099  0.00  0.00    +0.000 A 
ATOM     35  C   UNL     1       2.885   3.049  19.952  0.00  0.00    +0.000 A 
ENDBRANCH  29  30
ENDBRANCH  28  29
ENDBRANCH   7  28
TORSDOF 8
ENDMDL
MODEL 9
REMARK VINA RESULT:      -8.6      2.459      5.563
REMARK  Name = 
REMARK  8 active torsions:
REMARK  status: ('A' for Active; 'I' for Inactive)
REMARK    1  A    between atoms: C_5  and  C_6
REMARK    2  A    between atoms: C_6  and  N_7
REMARK    3  A    between atoms: C_16  and  O_17
REMARK    4  A    between atoms: O_17  and  C_18
REMARK    5  A    between atoms: C_18  and  C_19
REMARK    6  A    between atoms: C_25  and  O_26
REMARK    7  A    between atoms: O_26  and  C_27
REMARK    8  A    between atoms: C_27  and  C_28
REMARK                            x       y       z     vdW  Elec       q    Type
REMARK                         _______ _______ _______ _____ _____    ______ ____
ROOT
ATOM      1  O   UNL     1       0.535   8.108  22.203  0.00  0.00    +0.000 OA
ATOM      2  C   UNL     1       0.901   8.377  21.069  0.00  0.00    +0.000 C 
ATOM      3  O   UNL     1       0.538   9.503  20.380  0.00  0.00    +0.000 OA
ATOM      4  C   UNL     1       1.204   9.428  19.156  0.00  0.00    +0.000 C 
ATOM      5  C   UNL     1       1.184  10.459  18.304  0.00  0.00    +0.000 C 
ATOM      6  C   UNL     1       1.869   8.166  19.062  0.00  0.00    +0.000 C 
ATOM      7  C   UNL     1       1.759   7.525  20.224  0.00  0.00    +0.000 C 
ENDROOT
BRANCH   5   8
ATOM      8  C   UNL     1       0.328  11.682  18.452  0.00  0.00    +0.000 C 
BRANCH   8   9
ATOM      9  N   UNL     1       0.895  12.540  19.475  0.00  0.00    +0.000 N 
ATOM     10  C   UNL     1       2.144  13.083  19.264  0.00  0.00    +0.000 A 
ATOM     11  O   UNL     1       2.826  12.897  18.258  0.00  0.00    +0.000 OA
ATOM     12  N   UNL     1       2.632  13.870  20.264  0.00  0.00    +0.000 N 
ATOM     13  C   UNL     1       1.971  14.151  21.410  0.00  0.00    +0.000 A 
ATOM     14  O   UNL     1       2.450  14.878  22.278  0.00  0.00    +0.000 OA
ATOM     15  N   UNL     1       0.750  13.584  21.546  0.00  0.00    +0.000 N 
ATOM     16  C   UNL     1       0.164  12.780  20.617  0.00  0.00    +0.000 A 
ATOM     17  O   UNL     1      -0.958  12.323  20.829  0.00  0.00    +0.000 OA
ATOM     18  H   UNL     1       3.546  14.275  20.128  0.00  0.00    +0.000 HD
ATOM     19  H   UNL     1       0.230  13.781  22.388  0.00  0.00    +0.000 HD
ENDBRANCH   8   9
ENDBRANCH   5   8
BRANCH   6  20
ATOM     20  O   UNL     1       2.454   7.610  17.958  0.00  0.00    +0.000 OA
BRANCH  20  21
ATOM     21  C   UNL     1       3.823   7.827  17.584  0.00  0.00    +0.000 C 
BRANCH  21  22
ATOM     22  C   UNL     1       4.702   6.634  17.261  0.00  0.00    +0.000 A 
ATOM     23  C   UNL     1       5.016   6.354  15.919  0.00  0.00    +0.000 A 
ATOM     24  C   UNL     1       5.720   5.199  15.578  0.00  0.00    +0.000 A 
ATOM     25  C   UNL     1       6.125   4.313  16.574  0.00  0.00    +0.000 A 
ATOM     26  C   UNL     1       5.865   4.603  17.911  0.00  0.00    +0.000 A 
ATOM     27  C   UNL     1       5.189   5.774  18.256  0.00  0.00    +0.000 A 
ENDBRANCH  21  22
ENDBRANCH  20  21
ENDBRANCH   6  20
BRANCH   7  28
ATOM     28  O   UNL     1       2.273   6.289  20.520  0.00  0.00    +0.000 OA
BRANCH  28  29
ATOM     29  C   UNL     1       1.359   5.211  20.282  0.00  0.00    +0.000 C 
BRANCH  29  30
ATOM     30  C   UNL     1       1.990   4.172  19.383  0.00  0.00    +0.000 A 
ATOM     31  C   UNL     1       2.692   3.100  19.956  0.00  0.00    +0.000 A 
ATOM     32  C   UNL     1       3.279   2.121  19.153  0.00  0.00    +0.000 A 
ATOM     33  C   UNL     1       3.158   2.193  17.768  0.00  0.00    +0.000 A 
ATOM     34  C   UNL     1       2.444   3.239  17.186  0.00  0.00    +0.000 A 
ATOM     35  C   UNL     1       1.856   4.220  17.988  0.00  0.00    +0.000 A 
ENDBRANCH  29  30
ENDBRANCH  28  29
ENDBRANCH   7  28
TORSDOF 8
ENDMDL
