MODEL 1
REMARK VINA RESULT:      -8.0      0.000      0.000
REMARK  Name = 
REMARK  2 active torsions:
REMARK  status: ('A' for Active; 'I' for Inactive)
REMARK    1  A    between atoms: N_10  and  C_11
REMARK    2  A    between atoms: C_11  and  C_12
REMARK                            x       y       z     vdW  Elec       q    Type
REMARK                         _______ _______ _______ _____ _____    ______ ____
ROOT
ATOM      1  C   UNL     1       5.668   4.371  18.485  0.00  0.00    +0.000 C 
ENDROOT
BRANCH   1   2
ATOM      2  C   UNL     1       6.091   4.691  17.067  0.00  0.00    +0.000 A 
ATOM      3  C   UNL     1       5.622   3.865  16.022  0.00  0.00    +0.000 A 
ATOM      4  C   UNL     1       6.053   4.050  14.707  0.00  0.00    +0.000 A 
ATOM      5  C   UNL     1       6.960   5.068  14.410  0.00  0.00    +0.000 A 
ATOM      6  C   UNL     1       7.390   5.931  15.412  0.00  0.00    +0.000 A 
ATOM      7  C   UNL     1       6.968   5.741  16.734  0.00  0.00    +0.000 A 
ATOM      8 BR   UNL     1       7.692   6.935  18.018  0.00  0.00    +0.000 Br
ATOM      9  O   UNL     1       7.485   5.269  13.159  0.00  0.00    +0.000 OA
ATOM     10  C   UNL     1       7.334   4.093  12.355  0.00  0.00    +0.000 C 
ATOM     11  C   UNL     1       5.902   3.586  12.433  0.00  0.00    +0.000 C 
ATOM     12  O   UNL     1       5.575   3.175  13.766  0.00  0.00    +0.000 OA
ENDBRANCH   1   2
BRANCH   1  22
ATOM     13  O   UNL     1       3.792   6.612  18.241  0.00  0.00    +0.000 OA
ATOM     14  C   UNL     1       3.437   5.478  18.525  0.00  0.00    +0.000 C 
ATOM     15  C   UNL     1       2.005   5.091  18.815  0.00  0.00    +0.000 C 
ATOM     16  C   UNL     1       2.151   3.858  19.693  0.00  0.00    +0.000 C 
ATOM     17  C   UNL     1       1.917   4.142  21.212  0.00  0.00    +0.000 C 
ATOM     18  C   UNL     1       1.344   2.717  21.310  0.00  0.00    +0.000 C 
ATOM     19  C   UNL     1       0.984   2.839  19.810  0.00  0.00    +0.000 C 
ATOM     20  C   UNL     1       3.588   3.337  19.322  0.00  0.00    +0.000 C 
ATOM     21  O   UNL     1       4.090   2.253  19.597  0.00  0.00    +0.000 OA
ATOM     22  N   UNL     1       4.232   4.367  18.684  0.00  0.00    +0.000 N 
ENDBRANCH   1  22
TORSDOF 2
ENDMDL
MODEL 2
REMARK VINA RESULT:      -7.5      2.729      6.601
REMARK  Name = 
REMARK  2 active torsions:
REMARK  status: ('A' for Active; 'I' for Inactive)
REMARK    1  A    between atoms: N_10  and  C_11
REMARK    2  A    between atoms: C_11  and  C_12
REMARK                            x       y       z     vdW  Elec       q    Type
REMARK                         _______ _______ _______ _____ _____    ______ ____
ROOT
ATOM      1  C   UNL     1       4.371   3.658  19.462  0.00  0.00    +0.000 C 
ENDROOT
BRANCH   1   2
ATOM      2  C   UNL     1       3.336   4.732  19.724  0.00  0.00    +0.000 A 
ATOM      3  C   UNL     1       3.406   5.930  18.980  0.00  0.00    +0.000 A 
ATOM      4  C   UNL     1       2.541   6.995  19.242  0.00  0.00    +0.000 A 
ATOM      5  C   UNL     1       1.588   6.881  20.254  0.00  0.00    +0.000 A 
ATOM      6  C   UNL     1       1.461   5.690  20.960  0.00  0.00    +0.000 A 
ATOM      7  C   UNL     1       2.333   4.624  20.706  0.00  0.00    +0.000 A 
ATOM      8 BR   UNL     1       2.108   3.087  21.795  0.00  0.00    +0.000 Br
ATOM      9  O   UNL     1       0.751   7.905  20.620  0.00  0.00    +0.000 OA
ATOM     10  C   UNL     1       1.264   9.161  20.162  0.00  0.00    +0.000 C 
ATOM     11  C   UNL     1       1.643   9.068  18.692  0.00  0.00    +0.000 C 
ATOM     12  O   UNL     1       2.711   8.132  18.495  0.00  0.00    +0.000 OA
ENDBRANCH   1   2
BRANCH   1  22
ATOM     13  O   UNL     1       6.772   5.314  19.771  0.00  0.00    +0.000 OA
ATOM     14  C   UNL     1       6.459   4.791  18.712  0.00  0.00    +0.000 C 
ATOM     15  C   UNL     1       7.242   4.951  17.429  0.00  0.00    +0.000 C 
ATOM     16  C   UNL     1       6.197   4.705  16.353  0.00  0.00    +0.000 C 
ATOM     17  C   UNL     1       5.673   6.015  15.680  0.00  0.00    +0.000 C 
ATOM     18  C   UNL     1       5.514   5.193  14.388  0.00  0.00    +0.000 C 
ATOM     19  C   UNL     1       6.630   4.267  14.927  0.00  0.00    +0.000 C 
ATOM     20  C   UNL     1       5.108   3.862  17.114  0.00  0.00    +0.000 C 
ATOM     21  O   UNL     1       4.170   3.235  16.635  0.00  0.00    +0.000 OA
ATOM     22  N   UNL     1       5.350   4.018  18.456  0.00  0.00    +0.000 N 
ENDBRANCH   1  22
TORSDOF 2
ENDMDL
MODEL 3
REMARK VINA RESULT:      -6.6      1.230      1.945
REMARK  Name = 
REMARK  2 active torsions:
REMARK  status: ('A' for Active; 'I' for Inactive)
REMARK    1  A    between atoms: N_10  and  C_11
REMARK    2  A    between atoms: C_11  and  C_12
REMARK                            x       y       z     vdW  Elec       q    Type
REMARK                         _______ _______ _______ _____ _____    ______ ____
ROOT
ATOM      1  C   UNL     1       4.583   6.162  18.167  0.00  0.00    +0.000 C 
ENDROOT
BRANCH   1   2
ATOM      2  C   UNL     1       5.346   5.844  16.899  0.00  0.00    +0.000 A 
ATOM      3  C   UNL     1       4.691   5.111  15.885  0.00  0.00    +0.000 A 
ATOM      4  C   UNL     1       5.371   4.705  14.735  0.00  0.00    +0.000 A 
ATOM      5  C   UNL     1       6.719   5.026  14.575  0.00  0.00    +0.000 A 
ATOM      6  C   UNL     1       7.368   5.798  15.532  0.00  0.00    +0.000 A 
ATOM      7  C   UNL     1       6.693   6.198  16.691  0.00  0.00    +0.000 A 
ATOM      8 BR   UNL     1       7.716   7.175  17.955  0.00  0.00    +0.000 Br
ATOM      9  O   UNL     1       7.474   4.603  13.510  0.00  0.00    +0.000 OA
ATOM     10  C   UNL     1       6.850   3.488  12.863  0.00  0.00    +0.000 C 
ATOM     11  C   UNL     1       5.383   3.789  12.597  0.00  0.00    +0.000 C 
ATOM     12  O   UNL     1       4.664   3.963  13.825  0.00  0.00    +0.000 OA
ENDBRANCH   1   2
BRANCH   1  22
ATOM     13  O   UNL     1       6.065   3.850  19.198  0.00  0.00    +0.000 OA
ATOM     14  C   UNL     1       4.854   3.967  19.313  0.00  0.00    +0.000 C 
ATOM     15  C   UNL     1       3.966   2.932  19.966  0.00  0.00    +0.000 C 
ATOM     16  C   UNL     1       2.612   3.183  19.322  0.00  0.00    +0.000 C 
ATOM     17  C   UNL     1       2.248   2.149  18.208  0.00  0.00    +0.000 C 
ATOM     18  C   UNL     1       0.779   2.324  18.635  0.00  0.00    +0.000 C 
ATOM     19  C   UNL     1       1.310   2.719  20.033  0.00  0.00    +0.000 C 
ATOM     20  C   UNL     1       2.729   4.675  18.839  0.00  0.00    +0.000 C 
ATOM     21  O   UNL     1       1.831   5.414  18.452  0.00  0.00    +0.000 OA
ATOM     22  N   UNL     1       4.064   4.994  18.850  0.00  0.00    +0.000 N 
ENDBRANCH   1  22
TORSDOF 2
ENDMDL
MODEL 4
REMARK VINA RESULT:      -6.6      2.195      6.823
REMARK  Name = 
REMARK  2 active torsions:
REMARK  status: ('A' for Active; 'I' for Inactive)
REMARK    1  A    between atoms: N_10  and  C_11
REMARK    2  A    between atoms: C_11  and  C_12
REMARK                            x       y       z     vdW  Elec       q    Type
REMARK                         _______ _______ _______ _____ _____    ______ ____
ROOT
ATOM      1  C   UNL     1       5.406   6.539  17.707  0.00  0.00    +0.000 C 
ENDROOT
BRANCH   1   2
ATOM      2  C   UNL     1       4.244   6.058  18.550  0.00  0.00    +0.000 A 
ATOM      3  C   UNL     1       4.375   4.833  19.241  0.00  0.00    +0.000 A 
ATOM      4  C   UNL     1       3.306   4.291  19.957  0.00  0.00    +0.000 A 
ATOM      5  C   UNL     1       2.084   4.963  19.996  0.00  0.00    +0.000 A 
ATOM      6  C   UNL     1       1.949   6.199  19.372  0.00  0.00    +0.000 A 
ATOM      7  C   UNL     1       3.017   6.741  18.646  0.00  0.00    +0.000 A 
ATOM      8 BR   UNL     1       2.676   8.391  17.774  0.00  0.00    +0.000 Br
ATOM      9  O   UNL     1       0.967   4.462  20.615  0.00  0.00    +0.000 OA
ATOM     10  C   UNL     1       1.093   3.049  20.811  0.00  0.00    +0.000 C 
ATOM     11  C   UNL     1       2.439   2.724  21.440  0.00  0.00    +0.000 C 
ATOM     12  O   UNL     1       3.515   3.079  20.562  0.00  0.00    +0.000 OA
ENDBRANCH   1   2
BRANCH   1  22
ATOM     13  O   UNL     1       7.450   4.491  18.195  0.00  0.00    +0.000 OA
ATOM     14  C   UNL     1       6.871   4.609  17.125  0.00  0.00    +0.000 C 
ATOM     15  C   UNL     1       7.150   3.745  15.917  0.00  0.00    +0.000 C 
ATOM     16  C   UNL     1       6.719   4.625  14.755  0.00  0.00    +0.000 C 
ATOM     17  C   UNL     1       7.914   5.295  14.003  0.00  0.00    +0.000 C 
ATOM     18  C   UNL     1       7.066   5.188  12.723  0.00  0.00    +0.000 C 
ATOM     19  C   UNL     1       6.348   3.989  13.387  0.00  0.00    +0.000 C 
ATOM     20  C   UNL     1       5.711   5.624  15.433  0.00  0.00    +0.000 C 
ATOM     21  O   UNL     1       4.929   6.392  14.885  0.00  0.00    +0.000 OA
ATOM     22  N   UNL     1       5.918   5.542  16.787  0.00  0.00    +0.000 N 
ENDBRANCH   1  22
TORSDOF 2
ENDMDL
MODEL 5
REMARK VINA RESULT:      -6.6      4.286      6.058
REMARK  Name = 
REMARK  2 active torsions:
REMARK  status: ('A' for Active; 'I' for Inactive)
REMARK    1  A    between atoms: N_10  and  C_11
REMARK    2  A    between atoms: C_11  and  C_12
REMARK                            x       y       z     vdW  Elec       q    Type
REMARK                         _______ _______ _______ _____ _____    ______ ____
ROOT
ATOM      1  C   UNL     1       1.630   7.312  18.483  0.00  0.00    +0.000 C 
ENDROOT
BRANCH   1   2
ATOM      2  C   UNL     1       2.983   6.638  18.574  0.00  0.00    +0.000 A 
ATOM      3  C   UNL     1       4.009   7.066  17.703  0.00  0.00    +0.000 A 
ATOM      4  C   UNL     1       5.246   6.420  17.673  0.00  0.00    +0.000 A 
ATOM      5  C   UNL     1       5.483   5.334  18.515  0.00  0.00    +0.000 A 
ATOM      6  C   UNL     1       4.509   4.932  19.423  0.00  0.00    +0.000 A 
ATOM      7  C   UNL     1       3.263   5.571  19.449  0.00  0.00    +0.000 A 
ATOM      8 BR   UNL     1       1.995   4.873  20.675  0.00  0.00    +0.000 Br
ATOM      9  O   UNL     1       6.644   4.602  18.495  0.00  0.00    +0.000 OA
ATOM     10  C   UNL     1       7.347   4.810  17.265  0.00  0.00    +0.000 C 
ATOM     11  C   UNL     1       7.459   6.298  16.970  0.00  0.00    +0.000 C 
ATOM     12  O   UNL     1       6.166   6.880  16.767  0.00  0.00    +0.000 OA
ENDBRANCH   1   2
BRANCH   1  22
ATOM     13  O   UNL     1       0.755   7.791  21.242  0.00  0.00    +0.000 OA
ATOM     14  C   UNL     1       1.142   8.685  20.504  0.00  0.00    +0.000 C 
ATOM     15  C   UNL     1       1.191  10.143  20.901  0.00  0.00    +0.000 C 
ATOM     16  C   UNL     1       1.099  10.867  19.568  0.00  0.00    +0.000 C 
ATOM     17  C   UNL     1      -0.319  11.452  19.271  0.00  0.00    +0.000 C 
ATOM     18  C   UNL     1       0.393  12.593  18.523  0.00  0.00    +0.000 C 
ATOM     19  C   UNL     1       1.616  12.326  19.434  0.00  0.00    +0.000 C 
ATOM     20  C   UNL     1       1.602   9.781  18.548  0.00  0.00    +0.000 C 
ATOM     21  O   UNL     1       1.918   9.939  17.374  0.00  0.00    +0.000 OA
ATOM     22  N   UNL     1       1.552   8.572  19.196  0.00  0.00    +0.000 N 
ENDBRANCH   1  22
TORSDOF 2
ENDMDL
MODEL 6
REMARK VINA RESULT:      -6.5      5.828      8.589
REMARK  Name = 
REMARK  2 active torsions:
REMARK  status: ('A' for Active; 'I' for Inactive)
REMARK    1  A    between atoms: N_10  and  C_11
REMARK    2  A    between atoms: C_11  and  C_12
REMARK                            x       y       z     vdW  Elec       q    Type
REMARK                         _______ _______ _______ _____ _____    ______ ____
ROOT
ATOM      1  C   UNL     1       1.471   9.936  19.169  0.00  0.00    +0.000 C 
ENDROOT
BRANCH   1   2
ATOM      2  C   UNL     1       0.032  10.327  18.906  0.00  0.00    +0.000 A 
ATOM      3  C   UNL     1      -0.583   9.875  17.718  0.00  0.00    +0.000 A 
ATOM      4  C   UNL     1      -1.874  10.280  17.374  0.00  0.00    +0.000 A 
ATOM      5  C   UNL     1      -2.576  11.145  18.213  0.00  0.00    +0.000 A 
ATOM      6  C   UNL     1      -2.015  11.556  19.417  0.00  0.00    +0.000 A 
ATOM      7  C   UNL     1      -0.716  11.159  19.760  0.00  0.00    +0.000 A 
ATOM      8 BR   UNL     1      -0.036  11.856  21.389  0.00  0.00    +0.000 Br
ATOM      9  O   UNL     1      -3.818  11.645  17.912  0.00  0.00    +0.000 OA
ATOM     10  C   UNL     1      -4.080  11.526  16.509  0.00  0.00    +0.000 C 
ATOM     11  C   UNL     1      -3.767  10.116  16.034  0.00  0.00    +0.000 C 
ATOM     12  O   UNL     1      -2.372   9.822  16.182  0.00  0.00    +0.000 OA
ENDBRANCH   1   2
BRANCH   1  22
ATOM     13  O   UNL     1       1.334   8.243  21.561  0.00  0.00    +0.000 OA
ATOM     14  C   UNL     1       1.575   7.800  20.448  0.00  0.00    +0.000 C 
ATOM     15  C   UNL     1       1.862   6.343  20.165  0.00  0.00    +0.000 C 
ATOM     16  C   UNL     1       2.688   6.395  18.890  0.00  0.00    +0.000 C 
ATOM     17  C   UNL     1       4.219   6.193  19.130  0.00  0.00    +0.000 C 
ATOM     18  C   UNL     1       4.265   5.508  17.752  0.00  0.00    +0.000 C 
ATOM     19  C   UNL     1       2.774   5.151  17.963  0.00  0.00    +0.000 C 
ATOM     20  C   UNL     1       2.284   7.783  18.271  0.00  0.00    +0.000 C 
ATOM     21  O   UNL     1       2.511   8.198  17.141  0.00  0.00    +0.000 OA
ATOM     22  N   UNL     1       1.683   8.505  19.271  0.00  0.00    +0.000 N 
ENDBRANCH   1  22
TORSDOF 2
ENDMDL
MODEL 7
REMARK VINA RESULT:      -6.5      1.511      2.206
REMARK  Name = 
REMARK  2 active torsions:
REMARK  status: ('A' for Active; 'I' for Inactive)
REMARK    1  A    between atoms: N_10  and  C_11
REMARK    2  A    between atoms: C_11  and  C_12
REMARK                            x       y       z     vdW  Elec       q    Type
REMARK                         _______ _______ _______ _____ _____    ______ ____
ROOT
ATOM      1  C   UNL     1       5.117   3.333  18.126  0.00  0.00    +0.000 C 
ENDROOT
BRANCH   1   2
ATOM      2  C   UNL     1       5.779   3.984  16.930  0.00  0.00    +0.000 A 
ATOM      3  C   UNL     1       5.398   3.562  15.637  0.00  0.00    +0.000 A 
ATOM      4  C   UNL     1       6.040   4.055  14.499  0.00  0.00    +0.000 A 
ATOM      5  C   UNL     1       7.074   4.981  14.632  0.00  0.00    +0.000 A 
ATOM      6  C   UNL     1       7.427   5.455  15.891  0.00  0.00    +0.000 A 
ATOM      7  C   UNL     1       6.792   4.955  17.034  0.00  0.00    +0.000 A 
ATOM      8 BR   UNL     1       7.424   5.623  18.695  0.00  0.00    +0.000 Br
ATOM      9  O   UNL     1       7.801   5.458  13.570  0.00  0.00    +0.000 OA
ATOM     10  C   UNL     1       7.662   4.592  12.437  0.00  0.00    +0.000 C 
ATOM     11  C   UNL     1       6.193   4.284  12.190  0.00  0.00    +0.000 C 
ATOM     12  O   UNL     1       5.629   3.558  13.289  0.00  0.00    +0.000 OA
ENDBRANCH   1   2
BRANCH   1  22
ATOM     13  O   UNL     1       2.478   2.835  16.945  0.00  0.00    +0.000 OA
ATOM     14  C   UNL     1       2.653   3.606  17.878  0.00  0.00    +0.000 C 
ATOM     15  C   UNL     1       1.550   4.418  18.518  0.00  0.00    +0.000 C 
ATOM     16  C   UNL     1       2.294   5.604  19.109  0.00  0.00    +0.000 C 
ATOM     17  C   UNL     1       2.160   6.911  18.262  0.00  0.00    +0.000 C 
ATOM     18  C   UNL     1       2.232   7.686  19.589  0.00  0.00    +0.000 C 
ATOM     19  C   UNL     1       1.666   6.419  20.274  0.00  0.00    +0.000 C 
ATOM     20  C   UNL     1       3.759   5.053  19.264  0.00  0.00    +0.000 C 
ATOM     21  O   UNL     1       4.688   5.549  19.891  0.00  0.00    +0.000 OA
ATOM     22  N   UNL     1       3.844   3.925  18.488  0.00  0.00    +0.000 N 
ENDBRANCH   1  22
TORSDOF 2
ENDMDL
MODEL 8
REMARK VINA RESULT:      -6.5      2.407      3.477
REMARK  Name = 
REMARK  2 active torsions:
REMARK  status: ('A' for Active; 'I' for Inactive)
REMARK    1  A    between atoms: N_10  and  C_11
REMARK    2  A    between atoms: C_11  and  C_12
REMARK                            x       y       z     vdW  Elec       q    Type
REMARK                         _______ _______ _______ _____ _____    ______ ____
ROOT
ATOM      1  C   UNL     1       4.571   2.454  17.074  0.00  0.00    +0.000 C 
ENDROOT
BRANCH   1   2
ATOM      2  C   UNL     1       5.481   3.653  16.909  0.00  0.00    +0.000 A 
ATOM      3  C   UNL     1       6.035   4.242  18.066  0.00  0.00    +0.000 A 
ATOM      4  C   UNL     1       6.803   5.405  17.987  0.00  0.00    +0.000 A 
ATOM      5  C   UNL     1       7.034   6.001  16.747  0.00  0.00    +0.000 A 
ATOM      6  C   UNL     1       6.548   5.407  15.587  0.00  0.00    +0.000 A 
ATOM      7  C   UNL     1       5.769   4.246  15.665  0.00  0.00    +0.000 A 
ATOM      8 BR   UNL     1       5.099   3.582  14.018  0.00  0.00    +0.000 Br
ATOM      9  O   UNL     1       7.716   7.182  16.593  0.00  0.00    +0.000 OA
ATOM     10  C   UNL     1       7.762   7.901  17.831  0.00  0.00    +0.000 C 
ATOM     11  C   UNL     1       8.213   6.981  18.955  0.00  0.00    +0.000 C 
ATOM     12  O   UNL     1       7.266   5.927  19.167  0.00  0.00    +0.000 OA
ENDBRANCH   1   2
BRANCH   1  22
ATOM     13  O   UNL     1       2.135   3.898  16.308  0.00  0.00    +0.000 OA
ATOM     14  C   UNL     1       2.288   3.393  17.410  0.00  0.00    +0.000 C 
ATOM     15  C   UNL     1       1.267   3.472  18.522  0.00  0.00    +0.000 C 
ATOM     16  C   UNL     1       2.108   3.306  19.777  0.00  0.00    +0.000 C 
ATOM     17  C   UNL     1       2.379   4.649  20.529  0.00  0.00    +0.000 C 
ATOM     18  C   UNL     1       2.363   3.831  21.833  0.00  0.00    +0.000 C 
ATOM     19  C   UNL     1       1.454   2.817  21.098  0.00  0.00    +0.000 C 
ATOM     20  C   UNL     1       3.390   2.569  19.239  0.00  0.00    +0.000 C 
ATOM     21  O   UNL     1       4.271   2.021  19.891  0.00  0.00    +0.000 OA
ATOM     22  N   UNL     1       3.392   2.717  17.875  0.00  0.00    +0.000 N 
ENDBRANCH   1  22
TORSDOF 2
ENDMDL
MODEL 9
REMARK VINA RESULT:      -6.4      7.988     10.258
REMARK  Name = 
REMARK  2 active torsions:
REMARK  status: ('A' for Active; 'I' for Inactive)
REMARK    1  A    between atoms: N_10  and  C_11
REMARK    2  A    between atoms: C_11  and  C_12
REMARK                            x       y       z     vdW  Elec       q    Type
REMARK                         _______ _______ _______ _____ _____    ______ ____
ROOT
ATOM      1  C   UNL     1      -1.792  12.338  18.948  0.00  0.00    +0.000 C 
ENDROOT
BRANCH   1   2
ATOM      2  C   UNL     1      -0.785  11.317  19.433  0.00  0.00    +0.000 A 
ATOM      3  C   UNL     1      -0.037  10.600  18.472  0.00  0.00    +0.000 A 
ATOM      4  C   UNL     1       0.836   9.579  18.853  0.00  0.00    +0.000 A 
ATOM      5  C   UNL     1       0.981   9.256  20.202  0.00  0.00    +0.000 A 
ATOM      6  C   UNL     1       0.300   9.987  21.170  0.00  0.00    +0.000 A 
ATOM      7  C   UNL     1      -0.584  11.005  20.791  0.00  0.00    +0.000 A 
ATOM      8 BR   UNL     1      -1.513  11.869  22.202  0.00  0.00    +0.000 Br
ATOM      9  O   UNL     1       1.762   8.221  20.651  0.00  0.00    +0.000 OA
ATOM     10  C   UNL     1       2.031   7.299  19.589  0.00  0.00    +0.000 C 
ATOM     11  C   UNL     1       2.511   8.046  18.355  0.00  0.00    +0.000 C 
ATOM     12  O   UNL     1       1.489   8.913  17.848  0.00  0.00    +0.000 OA
ENDBRANCH   1   2
BRANCH   1  22
ATOM     13  O   UNL     1      -2.250  11.264  16.257  0.00  0.00    +0.000 OA
ATOM     14  C   UNL     1      -3.108  11.262  17.126  0.00  0.00    +0.000 C 
ATOM     15  C   UNL     1      -4.513  10.741  16.923  0.00  0.00    +0.000 C 
ATOM     16  C   UNL     1      -5.318  11.502  17.965  0.00  0.00    +0.000 C 
ATOM     17  C   UNL     1      -6.145  12.687  17.371  0.00  0.00    +0.000 C 
ATOM     18  C   UNL     1      -7.194  12.399  18.460  0.00  0.00    +0.000 C 
ATOM     19  C   UNL     1      -6.677  10.940  18.466  0.00  0.00    +0.000 C 
ATOM     20  C   UNL     1      -4.223  11.911  19.018  0.00  0.00    +0.000 C 
ATOM     21  O   UNL     1      -4.394  12.352  20.149  0.00  0.00    +0.000 OA
ATOM     22  N   UNL     1      -3.005  11.757  18.406  0.00  0.00    +0.000 N 
ENDBRANCH   1  22
TORSDOF 2
ENDMDL
