MODEL 1
REMARK VINA RESULT:      -6.8      0.000      0.000
REMARK  Name = 
REMARK  11 active torsions:
REMARK  status: ('A' for Active; 'I' for Inactive)
REMARK    1  A    between atoms: C_1  and  O_2
REMARK    2  A    between atoms: O_2  and  C_3
REMARK    3  A    between atoms: C_6  and  C_7
REMARK    4  A    between atoms: C_7  and  N_8
REMARK    5  A    between atoms: N_8  and  C_9
REMARK    6  A    between atoms: N_8  and  C_18
REMARK    7  A    between atoms: C_9  and  C_10
REMARK    8  A    between atoms: C_10  and  C_11
REMARK    9  A    between atoms: C_11  and  N_12
REMARK   10  A    between atoms: C_18  and  C_19
REMARK   11  A    between atoms: C_22  and  C_23
REMARK                            x       y       z     vdW  Elec       q    Type
REMARK                         _______ _______ _______ _____ _____    ______ ____
ROOT
ATOM      1  N   UNL     1       1.679   6.641  19.721  0.00  0.00    +0.000 NA
ENDROOT
BRANCH   1   2
ATOM      2  C   UNL     1       2.218   7.897  20.289  0.00  0.00    +0.000 C 
BRANCH   2   6
ATOM      3  C   UNL     1      -0.379  10.337  22.567  0.00  0.00    +0.000 A 
ATOM      4  N   UNL     1      -0.679  10.203  21.263  0.00  0.00    +0.000 NA
ATOM      5  C   UNL     1       0.150   9.403  20.546  0.00  0.00    +0.000 A 
ATOM      6  C   UNL     1       1.266   8.776  21.060  0.00  0.00    +0.000 A 
ATOM      7  C   UNL     1       1.422   8.945  22.424  0.00  0.00    +0.000 A 
ATOM      8  N   UNL     1       0.636   9.728  23.191  0.00  0.00    +0.000 NA
BRANCH   3  10
ATOM      9  C   UNL     1      -1.563  12.355  22.708  0.00  0.00    +0.000 C 
ATOM     10  O   UNL     1      -1.102  11.188  23.372  0.00  0.00    +0.000 OA
ENDBRANCH   3  10
ENDBRANCH   2   6
ENDBRANCH   1   2
BRANCH   1  11
ATOM     11  C   UNL     1       2.141   6.338  18.343  0.00  0.00    +0.000 C 
BRANCH  11  12
ATOM     12  C   UNL     1       3.476   6.950  17.875  0.00  0.00    +0.000 C 
BRANCH  12  13
ATOM     13  C   UNL     1       4.525   5.854  17.583  0.00  0.00    +0.000 C 
BRANCH  13  14
ATOM     14  N   UNL     1       5.703   6.365  16.863  0.00  0.00    +0.000 NA
ATOM     15  C   UNL     1       6.052   5.585  15.653  0.00  0.00    +0.000 C 
ATOM     16  C   UNL     1       6.697   4.222  15.950  0.00  0.00    +0.000 C 
ATOM     17  O   UNL     1       7.889   4.384  16.728  0.00  0.00    +0.000 OA
ATOM     18  C   UNL     1       7.596   5.052  17.962  0.00  0.00    +0.000 C 
ATOM     19  C   UNL     1       6.910   6.412  17.729  0.00  0.00    +0.000 C 
ENDBRANCH  13  14
ENDBRANCH  12  13
ENDBRANCH  11  12
ENDBRANCH   1  11
BRANCH   1  20
ATOM     20  C   UNL     1       2.012   5.493  20.608  0.00  0.00    +0.000 C 
BRANCH  20  21
ATOM     21  C   UNL     1       1.803   4.132  20.025  0.00  0.00    +0.000 A 
ATOM     22  C   UNL     1       0.689   3.384  19.701  0.00  0.00    +0.000 A 
ATOM     23  C   UNL     1       1.161   2.224  19.031  0.00  0.00    +0.000 A 
ATOM     24  C   UNL     1       2.535   2.325  19.001  0.00  0.00    +0.000 A 
ATOM     25  C   UNL     1       3.603   1.472  18.444  0.00  0.00    +0.000 C 
ATOM     26  O   UNL     1       2.930   3.478  19.613  0.00  0.00    +0.000 OA
ENDBRANCH  20  21
ENDBRANCH   1  20
TORSDOF 9
ENDMDL
MODEL 2
REMARK VINA RESULT:      -6.8      2.387      7.388
REMARK  Name = 
REMARK  11 active torsions:
REMARK  status: ('A' for Active; 'I' for Inactive)
REMARK    1  A    between atoms: C_1  and  O_2
REMARK    2  A    between atoms: O_2  and  C_3
REMARK    3  A    between atoms: C_6  and  C_7
REMARK    4  A    between atoms: C_7  and  N_8
REMARK    5  A    between atoms: N_8  and  C_9
REMARK    6  A    between atoms: N_8  and  C_18
REMARK    7  A    between atoms: C_9  and  C_10
REMARK    8  A    between atoms: C_10  and  C_11
REMARK    9  A    between atoms: C_11  and  N_12
REMARK   10  A    between atoms: C_18  and  C_19
REMARK   11  A    between atoms: C_22  and  C_23
REMARK                            x       y       z     vdW  Elec       q    Type
REMARK                         _______ _______ _______ _____ _____    ______ ____
ROOT
ATOM      1  N   UNL     1       2.916   6.459  18.960  0.00  0.00    +0.000 NA
ENDROOT
BRANCH   1   2
ATOM      2  C   UNL     1       4.226   5.807  19.182  0.00  0.00    +0.000 C 
BRANCH   2   6
ATOM      3  C   UNL     1       6.914   5.433  15.940  0.00  0.00    +0.000 A 
ATOM      4  N   UNL     1       6.049   6.461  15.880  0.00  0.00    +0.000 NA
ATOM      5  C   UNL     1       5.203   6.583  16.934  0.00  0.00    +0.000 A 
ATOM      6  C   UNL     1       5.163   5.713  18.005  0.00  0.00    +0.000 A 
ATOM      7  C   UNL     1       6.146   4.741  17.972  0.00  0.00    +0.000 A 
ATOM      8  N   UNL     1       7.012   4.566  16.954  0.00  0.00    +0.000 NA
BRANCH   3  10
ATOM      9  C   UNL     1       7.094   4.835  13.680  0.00  0.00    +0.000 C 
ATOM     10  O   UNL     1       7.762   5.165  14.888  0.00  0.00    +0.000 OA
ENDBRANCH   3  10
ENDBRANCH   2   6
ENDBRANCH   1   2
BRANCH   1  11
ATOM     11  C   UNL     1       2.028   5.754  18.000  0.00  0.00    +0.000 C 
BRANCH  11  12
ATOM     12  C   UNL     1       1.451   4.387  18.416  0.00  0.00    +0.000 C 
BRANCH  12  13
ATOM     13  C   UNL     1       2.299   3.225  17.856  0.00  0.00    +0.000 C 
BRANCH  13  14
ATOM     14  N   UNL     1       2.242   2.016  18.696  0.00  0.00    +0.000 NA
ATOM     15  C   UNL     1       1.657   2.244  20.038  0.00  0.00    +0.000 C 
ATOM     16  C   UNL     1       2.583   2.998  21.005  0.00  0.00    +0.000 C 
ATOM     17  O   UNL     1       3.818   2.293  21.178  0.00  0.00    +0.000 OA
ATOM     18  C   UNL     1       4.480   2.126  19.918  0.00  0.00    +0.000 C 
ATOM     19  C   UNL     1       3.585   1.409  18.890  0.00  0.00    +0.000 C 
ENDBRANCH  13  14
ENDBRANCH  12  13
ENDBRANCH  11  12
ENDBRANCH   1  11
BRANCH   1  20
ATOM     20  C   UNL     1       2.198   6.620  20.255  0.00  0.00    +0.000 C 
BRANCH  20  21
ATOM     21  C   UNL     1       1.498   7.927  20.458  0.00  0.00    +0.000 A 
ATOM     22  C   UNL     1       0.869   8.525  21.531  0.00  0.00    +0.000 A 
ATOM     23  C   UNL     1       0.542   9.845  21.123  0.00  0.00    +0.000 A 
ATOM     24  C   UNL     1       0.976   9.968  19.821  0.00  0.00    +0.000 A 
ATOM     25  C   UNL     1       0.954  11.075  18.844  0.00  0.00    +0.000 C 
ATOM     26  O   UNL     1       1.548   8.802  19.409  0.00  0.00    +0.000 OA
ENDBRANCH  20  21
ENDBRANCH   1  20
TORSDOF 9
ENDMDL
MODEL 3
REMARK VINA RESULT:      -6.8      4.599      7.496
REMARK  Name = 
REMARK  11 active torsions:
REMARK  status: ('A' for Active; 'I' for Inactive)
REMARK    1  A    between atoms: C_1  and  O_2
REMARK    2  A    between atoms: O_2  and  C_3
REMARK    3  A    between atoms: C_6  and  C_7
REMARK    4  A    between atoms: C_7  and  N_8
REMARK    5  A    between atoms: N_8  and  C_9
REMARK    6  A    between atoms: N_8  and  C_18
REMARK    7  A    between atoms: C_9  and  C_10
REMARK    8  A    between atoms: C_10  and  C_11
REMARK    9  A    between atoms: C_11  and  N_12
REMARK   10  A    between atoms: C_18  and  C_19
REMARK   11  A    between atoms: C_22  and  C_23
REMARK                            x       y       z     vdW  Elec       q    Type
REMARK                         _______ _______ _______ _____ _____    ______ ____
ROOT
ATOM      1  N   UNL     1       6.847   7.036  16.992  0.00  0.00    +0.000 NA
ENDROOT
BRANCH   1   2
ATOM      2  C   UNL     1       5.427   7.061  17.407  0.00  0.00    +0.000 C 
BRANCH   2   6
ATOM      3  C   UNL     1       3.826   3.707  19.424  0.00  0.00    +0.000 A 
ATOM      4  N   UNL     1       5.080   4.059  19.757  0.00  0.00    +0.000 NA
ATOM      5  C   UNL     1       5.577   5.147  19.118  0.00  0.00    +0.000 A 
ATOM      6  C   UNL     1       4.899   5.860  18.150  0.00  0.00    +0.000 A 
ATOM      7  C   UNL     1       3.599   5.432  17.951  0.00  0.00    +0.000 A 
ATOM      8  N   UNL     1       3.048   4.358  18.551  0.00  0.00    +0.000 NA
BRANCH   3  10
ATOM      9  C   UNL     1       2.635   2.768  21.212  0.00  0.00    +0.000 C 
ATOM     10  O   UNL     1       3.251   2.571  19.948  0.00  0.00    +0.000 OA
ENDBRANCH   3  10
ENDBRANCH   2   6
ENDBRANCH   1   2
BRANCH   1  11
ATOM     11  C   UNL     1       7.770   7.764  17.900  0.00  0.00    +0.000 C 
BRANCH  11  12
ATOM     12  C   UNL     1       8.073   9.243  17.590  0.00  0.00    +0.000 C 
BRANCH  12  13
ATOM     13  C   UNL     1       8.911   9.892  18.714  0.00  0.00    +0.000 C 
BRANCH  13  14
ATOM     14  N   UNL     1       9.764  10.991  18.232  0.00  0.00    +0.000 NA
ATOM     15  C   UNL     1      10.957  11.238  19.074  0.00  0.00    +0.000 C 
ATOM     16  C   UNL     1      10.648  11.929  20.411  0.00  0.00    +0.000 C 
ATOM     17  O   UNL     1       9.994  13.185  20.195  0.00  0.00    +0.000 OA
ATOM     18  C   UNL     1       8.777  12.997  19.463  0.00  0.00    +0.000 C 
ATOM     19  C   UNL     1       9.018  12.272  18.125  0.00  0.00    +0.000 C 
ENDBRANCH  13  14
ENDBRANCH  12  13
ENDBRANCH  11  12
ENDBRANCH   1  11
BRANCH   1  20
ATOM     20  C   UNL     1       7.315   5.629  16.852  0.00  0.00    +0.000 C 
BRANCH  20  21
ATOM     21  C   UNL     1       6.965   4.946  15.568  0.00  0.00    +0.000 A 
ATOM     22  C   UNL     1       6.030   3.998  15.206  0.00  0.00    +0.000 A 
ATOM     23  C   UNL     1       6.100   3.879  13.793  0.00  0.00    +0.000 A 
ATOM     24  C   UNL     1       7.085   4.750  13.378  0.00  0.00    +0.000 A 
ATOM     25  C   UNL     1       7.628   5.111  12.054  0.00  0.00    +0.000 C 
ATOM     26  O   UNL     1       7.620   5.393  14.455  0.00  0.00    +0.000 OA
ENDBRANCH  20  21
ENDBRANCH   1  20
TORSDOF 9
ENDMDL
MODEL 4
REMARK VINA RESULT:      -6.8      2.145      7.455
REMARK  Name = 
REMARK  11 active torsions:
REMARK  status: ('A' for Active; 'I' for Inactive)
REMARK    1  A    between atoms: C_1  and  O_2
REMARK    2  A    between atoms: O_2  and  C_3
REMARK    3  A    between atoms: C_6  and  C_7
REMARK    4  A    between atoms: C_7  and  N_8
REMARK    5  A    between atoms: N_8  and  C_9
REMARK    6  A    between atoms: N_8  and  C_18
REMARK    7  A    between atoms: C_9  and  C_10
REMARK    8  A    between atoms: C_10  and  C_11
REMARK    9  A    between atoms: C_11  and  N_12
REMARK   10  A    between atoms: C_18  and  C_19
REMARK   11  A    between atoms: C_22  and  C_23
REMARK                            x       y       z     vdW  Elec       q    Type
REMARK                         _______ _______ _______ _____ _____    ______ ____
ROOT
ATOM      1  N   UNL     1       2.463   6.898  19.561  0.00  0.00    +0.000 NA
ENDROOT
BRANCH   1   2
ATOM      2  C   UNL     1       2.361   6.180  18.270  0.00  0.00    +0.000 C 
BRANCH   2   6
ATOM      3  C   UNL     1       5.980   5.569  16.169  0.00  0.00    +0.000 A 
ATOM      4  N   UNL     1       5.258   4.469  16.444  0.00  0.00    +0.000 NA
ATOM      5  C   UNL     1       4.090   4.677  17.102  0.00  0.00    +0.000 A 
ATOM      6  C   UNL     1       3.642   5.913  17.522  0.00  0.00    +0.000 A 
ATOM      7  C   UNL     1       4.446   6.964  17.119  0.00  0.00    +0.000 A 
ATOM      8  N   UNL     1       5.618   6.823  16.467  0.00  0.00    +0.000 NA
BRANCH   3  10
ATOM      9  C   UNL     1       7.208   4.805  14.324  0.00  0.00    +0.000 C 
ATOM     10  O   UNL     1       7.220   5.469  15.578  0.00  0.00    +0.000 OA
ENDBRANCH   3  10
ENDBRANCH   2   6
ENDBRANCH   1   2
BRANCH   1  11
ATOM     11  C   UNL     1       1.836   8.244  19.570  0.00  0.00    +0.000 C 
BRANCH  11  12
ATOM     12  C   UNL     1       1.814   9.043  18.252  0.00  0.00    +0.000 C 
BRANCH  12  13
ATOM     13  C   UNL     1       0.494   9.828  18.093  0.00  0.00    +0.000 C 
BRANCH  13  14
ATOM     14  N   UNL     1       0.153  10.624  19.285  0.00  0.00    +0.000 NA
ATOM     15  C   UNL     1      -1.248  11.106  19.304  0.00  0.00    +0.000 C 
ATOM     16  C   UNL     1      -1.527  12.259  18.328  0.00  0.00    +0.000 C 
ATOM     17  O   UNL     1      -0.673  13.376  18.605  0.00  0.00    +0.000 OA
ATOM     18  C   UNL     1       0.703  12.992  18.507  0.00  0.00    +0.000 C 
ATOM     19  C   UNL     1       1.036  11.809  19.436  0.00  0.00    +0.000 C 
ENDBRANCH  13  14
ENDBRANCH  12  13
ENDBRANCH  11  12
ENDBRANCH   1  11
BRANCH   1  20
ATOM     20  C   UNL     1       1.867   6.078  20.652  0.00  0.00    +0.000 C 
BRANCH  20  21
ATOM     21  C   UNL     1       1.965   4.595  20.485  0.00  0.00    +0.000 A 
ATOM     22  C   UNL     1       1.051   3.592  20.229  0.00  0.00    +0.000 A 
ATOM     23  C   UNL     1       1.801   2.403  20.030  0.00  0.00    +0.000 A 
ATOM     24  C   UNL     1       3.125   2.747  20.193  0.00  0.00    +0.000 A 
ATOM     25  C   UNL     1       4.389   1.989  20.102  0.00  0.00    +0.000 C 
ATOM     26  O   UNL     1       3.229   4.075  20.480  0.00  0.00    +0.000 OA
ENDBRANCH  20  21
ENDBRANCH   1  20
TORSDOF 9
ENDMDL
MODEL 5
REMARK VINA RESULT:      -6.7      1.856      7.535
REMARK  Name = 
REMARK  11 active torsions:
REMARK  status: ('A' for Active; 'I' for Inactive)
REMARK    1  A    between atoms: C_1  and  O_2
REMARK    2  A    between atoms: O_2  and  C_3
REMARK    3  A    between atoms: C_6  and  C_7
REMARK    4  A    between atoms: C_7  and  N_8
REMARK    5  A    between atoms: N_8  and  C_9
REMARK    6  A    between atoms: N_8  and  C_18
REMARK    7  A    between atoms: C_9  and  C_10
REMARK    8  A    between atoms: C_10  and  C_11
REMARK    9  A    between atoms: C_11  and  N_12
REMARK   10  A    between atoms: C_18  and  C_19
REMARK   11  A    between atoms: C_22  and  C_23
REMARK                            x       y       z     vdW  Elec       q    Type
REMARK                         _______ _______ _______ _____ _____    ______ ____
ROOT
ATOM      1  N   UNL     1       2.459   6.815  19.582  0.00  0.00    +0.000 NA
ENDROOT
BRANCH   1   2
ATOM      2  C   UNL     1       2.457   6.134  18.268  0.00  0.00    +0.000 C 
BRANCH   2   6
ATOM      3  C   UNL     1       6.136   5.707  16.227  0.00  0.00    +0.000 A 
ATOM      4  N   UNL     1       5.728   6.967  16.461  0.00  0.00    +0.000 NA
ATOM      5  C   UNL     1       4.556   7.092  17.133  0.00  0.00    +0.000 A 
ATOM      6  C   UNL     1       3.772   6.031  17.538  0.00  0.00    +0.000 A 
ATOM      7  C   UNL     1       4.338   4.794  17.291  0.00  0.00    +0.000 A 
ATOM      8  N   UNL     1       5.496   4.602  16.627  0.00  0.00    +0.000 NA
BRANCH   3  10
ATOM      9  C   UNL     1       7.014   4.816  14.245  0.00  0.00    +0.000 C 
ATOM     10  O   UNL     1       7.268   5.461  15.483  0.00  0.00    +0.000 OA
ENDBRANCH   3  10
ENDBRANCH   2   6
ENDBRANCH   1   2
BRANCH   1  11
ATOM     11  C   UNL     1       1.858   8.173  19.575  0.00  0.00    +0.000 C 
BRANCH  11  12
ATOM     12  C   UNL     1       1.109   8.642  20.838  0.00  0.00    +0.000 C 
BRANCH  12  13
ATOM     13  C   UNL     1       0.060   9.723  20.501  0.00  0.00    +0.000 C 
BRANCH  13  14
ATOM     14  N   UNL     1       0.358  10.441  19.250  0.00  0.00    +0.000 NA
ATOM     15  C   UNL     1       0.799  11.841  19.452  0.00  0.00    +0.000 C 
ATOM     16  C   UNL     1      -0.331  12.802  19.855  0.00  0.00    +0.000 C 
ATOM     17  O   UNL     1      -1.370  12.806  18.868  0.00  0.00    +0.000 OA
ATOM     18  C   UNL     1      -1.904  11.487  18.698  0.00  0.00    +0.000 C 
ATOM     19  C   UNL     1      -0.809  10.468  18.330  0.00  0.00    +0.000 C 
ENDBRANCH  13  14
ENDBRANCH  12  13
ENDBRANCH  11  12
ENDBRANCH   1  11
BRANCH   1  20
ATOM     20  C   UNL     1       1.754   5.979  20.593  0.00  0.00    +0.000 C 
BRANCH  20  21
ATOM     21  C   UNL     1       1.902   4.499  20.438  0.00  0.00    +0.000 A 
ATOM     22  C   UNL     1       1.029   3.468  20.155  0.00  0.00    +0.000 A 
ATOM     23  C   UNL     1       1.821   2.301  19.990  0.00  0.00    +0.000 A 
ATOM     24  C   UNL     1       3.128   2.686  20.198  0.00  0.00    +0.000 A 
ATOM     25  C   UNL     1       4.416   1.966  20.157  0.00  0.00    +0.000 C 
ATOM     26  O   UNL     1       3.181   4.018  20.482  0.00  0.00    +0.000 OA
ENDBRANCH  20  21
ENDBRANCH   1  20
TORSDOF 9
ENDMDL
MODEL 6
REMARK VINA RESULT:      -6.7      2.109      5.618
REMARK  Name = 
REMARK  11 active torsions:
REMARK  status: ('A' for Active; 'I' for Inactive)
REMARK    1  A    between atoms: C_1  and  O_2
REMARK    2  A    between atoms: O_2  and  C_3
REMARK    3  A    between atoms: C_6  and  C_7
REMARK    4  A    between atoms: C_7  and  N_8
REMARK    5  A    between atoms: N_8  and  C_9
REMARK    6  A    between atoms: N_8  and  C_18
REMARK    7  A    between atoms: C_9  and  C_10
REMARK    8  A    between atoms: C_10  and  C_11
REMARK    9  A    between atoms: C_11  and  N_12
REMARK   10  A    between atoms: C_18  and  C_19
REMARK   11  A    between atoms: C_22  and  C_23
REMARK                            x       y       z     vdW  Elec       q    Type
REMARK                         _______ _______ _______ _____ _____    ______ ____
ROOT
ATOM      1  N   UNL     1       4.200   5.960  17.433  0.00  0.00    +0.000 NA
ENDROOT
BRANCH   1   2
ATOM      2  C   UNL     1       3.406   7.178  17.155  0.00  0.00    +0.000 C 
BRANCH   2   6
ATOM      3  C   UNL     1       1.066   8.872  20.243  0.00  0.00    +0.000 A 
ATOM      4  N   UNL     1       1.674   7.708  20.528  0.00  0.00    +0.000 NA
ATOM      5  C   UNL     1       2.438   7.182  19.537  0.00  0.00    +0.000 A 
ATOM      6  C   UNL     1       2.583   7.743  18.285  0.00  0.00    +0.000 A 
ATOM      7  C   UNL     1       1.958   8.969  18.147  0.00  0.00    +0.000 A 
ATOM      8  N   UNL     1       1.184   9.542  19.091  0.00  0.00    +0.000 NA
BRANCH   3  10
ATOM      9  C   UNL     1       0.585   9.284  22.500  0.00  0.00    +0.000 C 
ATOM     10  O   UNL     1       0.203   9.454  21.144  0.00  0.00    +0.000 OA
ENDBRANCH   3  10
ENDBRANCH   2   6
ENDBRANCH   1   2
BRANCH   1  11
ATOM     11  C   UNL     1       3.541   4.689  17.035  0.00  0.00    +0.000 C 
BRANCH  11  12
ATOM     12  C   UNL     1       4.068   3.377  17.649  0.00  0.00    +0.000 C 
BRANCH  12  13
ATOM     13  C   UNL     1       4.150   3.470  19.188  0.00  0.00    +0.000 C 
BRANCH  13  14
ATOM     14  N   UNL     1       3.347   2.440  19.868  0.00  0.00    +0.000 NA
ATOM     15  C   UNL     1       2.276   1.859  19.026  0.00  0.00    +0.000 C 
ATOM     16  C   UNL     1       1.076   2.794  18.806  0.00  0.00    +0.000 C 
ATOM     17  O   UNL     1       0.493   3.175  20.058  0.00  0.00    +0.000 OA
ATOM     18  C   UNL     1       1.463   3.831  20.883  0.00  0.00    +0.000 C 
ATOM     19  C   UNL     1       2.711   2.956  21.109  0.00  0.00    +0.000 C 
ENDBRANCH  13  14
ENDBRANCH  12  13
ENDBRANCH  11  12
ENDBRANCH   1  11
BRANCH   1  20
ATOM     20  C   UNL     1       5.526   6.049  16.762  0.00  0.00    +0.000 C 
BRANCH  20  21
ATOM     21  C   UNL     1       6.624   6.675  17.561  0.00  0.00    +0.000 A 
ATOM     22  C   UNL     1       7.512   6.207  18.510  0.00  0.00    +0.000 A 
ATOM     23  C   UNL     1       8.417   7.269  18.775  0.00  0.00    +0.000 A 
ATOM     24  C   UNL     1       8.018   8.326  17.986  0.00  0.00    +0.000 A 
ATOM     25  C   UNL     1       8.538   9.692  17.781  0.00  0.00    +0.000 C 
ATOM     26  O   UNL     1       6.923   7.972  17.254  0.00  0.00    +0.000 OA
ENDBRANCH  20  21
ENDBRANCH   1  20
TORSDOF 9
ENDMDL
MODEL 7
REMARK VINA RESULT:      -6.7      1.767      2.300
REMARK  Name = 
REMARK  11 active torsions:
REMARK  status: ('A' for Active; 'I' for Inactive)
REMARK    1  A    between atoms: C_1  and  O_2
REMARK    2  A    between atoms: O_2  and  C_3
REMARK    3  A    between atoms: C_6  and  C_7
REMARK    4  A    between atoms: C_7  and  N_8
REMARK    5  A    between atoms: N_8  and  C_9
REMARK    6  A    between atoms: N_8  and  C_18
REMARK    7  A    between atoms: C_9  and  C_10
REMARK    8  A    between atoms: C_10  and  C_11
REMARK    9  A    between atoms: C_11  and  N_12
REMARK   10  A    between atoms: C_18  and  C_19
REMARK   11  A    between atoms: C_22  and  C_23
REMARK                            x       y       z     vdW  Elec       q    Type
REMARK                         _______ _______ _______ _____ _____    ______ ____
ROOT
ATOM      1  N   UNL     1       1.992   6.639  20.024  0.00  0.00    +0.000 NA
ENDROOT
BRANCH   1   2
ATOM      2  C   UNL     1       1.700   7.801  20.894  0.00  0.00    +0.000 C 
BRANCH   2   6
ATOM      3  C   UNL     1      -0.147  11.092  18.985  0.00  0.00    +0.000 A 
ATOM      4  N   UNL     1      -0.112  11.126  20.329  0.00  0.00    +0.000 NA
ATOM      5  C   UNL     1       0.499  10.074  20.930  0.00  0.00    +0.000 A 
ATOM      6  C   UNL     1       1.032   8.994  20.258  0.00  0.00    +0.000 A 
ATOM      7  C   UNL     1       0.987   9.116  18.881  0.00  0.00    +0.000 A 
ATOM      8  N   UNL     1       0.392  10.132  18.224  0.00  0.00    +0.000 NA
BRANCH   3  10
ATOM      9  C   UNL     1      -0.349  13.381  18.523  0.00  0.00    +0.000 C 
ATOM     10  O   UNL     1      -0.814  12.064  18.273  0.00  0.00    +0.000 OA
ENDBRANCH   3  10
ENDBRANCH   2   6
ENDBRANCH   1   2
BRANCH   1  11
ATOM     11  C   UNL     1       3.241   6.760  19.230  0.00  0.00    +0.000 C 
BRANCH  11  12
ATOM     12  C   UNL     1       3.183   6.412  17.729  0.00  0.00    +0.000 C 
BRANCH  12  13
ATOM     13  C   UNL     1       4.593   6.155  17.157  0.00  0.00    +0.000 C 
BRANCH  13  14
ATOM     14  N   UNL     1       5.007   4.745  17.262  0.00  0.00    +0.000 NA
ATOM     15  C   UNL     1       6.033   4.496  18.301  0.00  0.00    +0.000 C 
ATOM     16  C   UNL     1       7.439   4.988  17.923  0.00  0.00    +0.000 C 
ATOM     17  O   UNL     1       7.883   4.370  16.709  0.00  0.00    +0.000 OA
ATOM     18  C   UNL     1       6.975   4.657  15.639  0.00  0.00    +0.000 C 
ATOM     19  C   UNL     1       5.536   4.222  15.976  0.00  0.00    +0.000 C 
ENDBRANCH  13  14
ENDBRANCH  12  13
ENDBRANCH  11  12
ENDBRANCH   1  11
BRANCH   1  20
ATOM     20  C   UNL     1       2.053   5.393  20.837  0.00  0.00    +0.000 C 
BRANCH  20  21
ATOM     21  C   UNL     1       1.815   4.116  20.097  0.00  0.00    +0.000 A 
ATOM     22  C   UNL     1       0.691   3.481  19.608  0.00  0.00    +0.000 A 
ATOM     23  C   UNL     1       1.151   2.366  18.857  0.00  0.00    +0.000 A 
ATOM     24  C   UNL     1       2.526   2.378  18.947  0.00  0.00    +0.000 A 
ATOM     25  C   UNL     1       3.586   1.516  18.388  0.00  0.00    +0.000 C 
ATOM     26  O   UNL     1       2.933   3.433  19.708  0.00  0.00    +0.000 OA
ENDBRANCH  20  21
ENDBRANCH   1  20
TORSDOF 9
ENDMDL
MODEL 8
REMARK VINA RESULT:      -6.7      1.296      7.715
REMARK  Name = 
REMARK  11 active torsions:
REMARK  status: ('A' for Active; 'I' for Inactive)
REMARK    1  A    between atoms: C_1  and  O_2
REMARK    2  A    between atoms: O_2  and  C_3
REMARK    3  A    between atoms: C_6  and  C_7
REMARK    4  A    between atoms: C_7  and  N_8
REMARK    5  A    between atoms: N_8  and  C_9
REMARK    6  A    between atoms: N_8  and  C_18
REMARK    7  A    between atoms: C_9  and  C_10
REMARK    8  A    between atoms: C_10  and  C_11
REMARK    9  A    between atoms: C_11  and  N_12
REMARK   10  A    between atoms: C_18  and  C_19
REMARK   11  A    between atoms: C_22  and  C_23
REMARK                            x       y       z     vdW  Elec       q    Type
REMARK                         _______ _______ _______ _____ _____    ______ ____
ROOT
ATOM      1  N   UNL     1       2.588   6.501  19.596  0.00  0.00    +0.000 NA
ENDROOT
BRANCH   1   2
ATOM      2  C   UNL     1       2.558   6.008  18.200  0.00  0.00    +0.000 C 
BRANCH   2   6
ATOM      3  C   UNL     1       6.226   5.619  16.132  0.00  0.00    +0.000 A 
ATOM      4  N   UNL     1       5.900   6.858  16.537  0.00  0.00    +0.000 NA
ATOM      5  C   UNL     1       4.730   6.970  17.216  0.00  0.00    +0.000 A 
ATOM      6  C   UNL     1       3.872   5.919  17.467  0.00  0.00    +0.000 A 
ATOM      7  C   UNL     1       4.357   4.691  17.053  0.00  0.00    +0.000 A 
ATOM      8  N   UNL     1       5.508   4.515  16.373  0.00  0.00    +0.000 NA
BRANCH   3  10
ATOM      9  C   UNL     1       7.072   4.869  14.079  0.00  0.00    +0.000 C 
ATOM     10  O   UNL     1       7.348   5.401  15.365  0.00  0.00    +0.000 OA
ENDBRANCH   3  10
ENDBRANCH   2   6
ENDBRANCH   1   2
BRANCH   1  11
ATOM     11  C   UNL     1       1.963   7.834  19.794  0.00  0.00    +0.000 C 
BRANCH  11  12
ATOM     12  C   UNL     1       1.260   8.112  21.137  0.00  0.00    +0.000 C 
BRANCH  12  13
ATOM     13  C   UNL     1       0.212   9.238  20.999  0.00  0.00    +0.000 C 
BRANCH  13  14
ATOM     14  N   UNL     1       0.588  10.464  21.724  0.00  0.00    +0.000 NA
ATOM     15  C   UNL     1      -0.504  11.036  22.544  0.00  0.00    +0.000 C 
ATOM     16  C   UNL     1      -1.602  11.734  21.726  0.00  0.00    +0.000 C 
ATOM     17  O   UNL     1      -1.049  12.790  20.932  0.00  0.00    +0.000 OA
ATOM     18  C   UNL     1      -0.047  12.278  20.045  0.00  0.00    +0.000 C 
ATOM     19  C   UNL     1       1.065  11.531  20.805  0.00  0.00    +0.000 C 
ENDBRANCH  13  14
ENDBRANCH  12  13
ENDBRANCH  11  12
ENDBRANCH   1  11
BRANCH   1  20
ATOM     20  C   UNL     1       1.930   5.518  20.500  0.00  0.00    +0.000 C 
BRANCH  20  21
ATOM     21  C   UNL     1       1.738   4.143  19.945  0.00  0.00    +0.000 A 
ATOM     22  C   UNL     1       0.642   3.422  19.514  0.00  0.00    +0.000 A 
ATOM     23  C   UNL     1       1.145   2.220  18.950  0.00  0.00    +0.000 A 
ATOM     24  C   UNL     1       2.516   2.271  19.085  0.00  0.00    +0.000 A 
ATOM     25  C   UNL     1       3.608   1.358  18.695  0.00  0.00    +0.000 C 
ATOM     26  O   UNL     1       2.880   3.433  19.699  0.00  0.00    +0.000 OA
ENDBRANCH  20  21
ENDBRANCH   1  20
TORSDOF 9
ENDMDL
MODEL 9
REMARK VINA RESULT:      -6.7      1.630      7.629
REMARK  Name = 
REMARK  11 active torsions:
REMARK  status: ('A' for Active; 'I' for Inactive)
REMARK    1  A    between atoms: C_1  and  O_2
REMARK    2  A    between atoms: O_2  and  C_3
REMARK    3  A    between atoms: C_6  and  C_7
REMARK    4  A    between atoms: C_7  and  N_8
REMARK    5  A    between atoms: N_8  and  C_9
REMARK    6  A    between atoms: N_8  and  C_18
REMARK    7  A    between atoms: C_9  and  C_10
REMARK    8  A    between atoms: C_10  and  C_11
REMARK    9  A    between atoms: C_11  and  N_12
REMARK   10  A    between atoms: C_18  and  C_19
REMARK   11  A    between atoms: C_22  and  C_23
REMARK                            x       y       z     vdW  Elec       q    Type
REMARK                         _______ _______ _______ _____ _____    ______ ____
ROOT
ATOM      1  N   UNL     1       2.433   6.451  18.788  0.00  0.00    +0.000 NA
ENDROOT
BRANCH   1   2
ATOM      2  C   UNL     1       3.840   6.031  18.975  0.00  0.00    +0.000 C 
BRANCH   2   6
ATOM      3  C   UNL     1       6.171   5.369  15.509  0.00  0.00    +0.000 A 
ATOM      4  N   UNL     1       6.067   6.644  15.921  0.00  0.00    +0.000 NA
ATOM      5  C   UNL     1       5.333   6.843  17.045  0.00  0.00    +0.000 A 
ATOM      6  C   UNL     1       4.679   5.844  17.736  0.00  0.00    +0.000 A 
ATOM      7  C   UNL     1       4.921   4.574  17.242  0.00  0.00    +0.000 A 
ATOM      8  N   UNL     1       5.637   4.311  16.131  0.00  0.00    +0.000 NA
BRANCH   3  10
ATOM      9  C   UNL     1       6.421   3.825  13.763  0.00  0.00    +0.000 C 
ATOM     10  O   UNL     1       6.822   5.060  14.336  0.00  0.00    +0.000 OA
ENDBRANCH   3  10
ENDBRANCH   2   6
ENDBRANCH   1   2
BRANCH   1  11
ATOM     11  C   UNL     1       2.264   7.765  18.118  0.00  0.00    +0.000 C 
BRANCH  11  12
ATOM     12  C   UNL     1       1.843   8.970  18.981  0.00  0.00    +0.000 C 
BRANCH  12  13
ATOM     13  C   UNL     1       1.297   8.516  20.352  0.00  0.00    +0.000 C 
BRANCH  13  14
ATOM     14  N   UNL     1      -0.063   9.013  20.621  0.00  0.00    +0.000 NA
ATOM     15  C   UNL     1      -0.206  10.480  20.471  0.00  0.00    +0.000 C 
ATOM     16  C   UNL     1       0.428  11.292  21.611  0.00  0.00    +0.000 C 
ATOM     17  O   UNL     1      -0.139  10.922  22.874  0.00  0.00    +0.000 OA
ATOM     18  C   UNL     1       0.054   9.524  23.120  0.00  0.00    +0.000 C 
ATOM     19  C   UNL     1      -0.527   8.656  21.987  0.00  0.00    +0.000 C 
ENDBRANCH  13  14
ENDBRANCH  12  13
ENDBRANCH  11  12
ENDBRANCH   1  11
BRANCH   1  20
ATOM     20  C   UNL     1       1.687   5.416  18.021  0.00  0.00    +0.000 C 
BRANCH  20  21
ATOM     21  C   UNL     1       1.583   4.070  18.664  0.00  0.00    +0.000 A 
ATOM     22  C   UNL     1       1.743   2.774  18.217  0.00  0.00    +0.000 A 
ATOM     23  C   UNL     1       1.663   1.938  19.362  0.00  0.00    +0.000 A 
ATOM     24  C   UNL     1       1.443   2.772  20.437  0.00  0.00    +0.000 A 
ATOM     25  C   UNL     1       1.285   2.539  21.886  0.00  0.00    +0.000 C 
ATOM     26  O   UNL     1       1.384   4.067  20.017  0.00  0.00    +0.000 OA
ENDBRANCH  20  21
ENDBRANCH   1  20
TORSDOF 9
ENDMDL
