MODEL 1
REMARK VINA RESULT:      -7.1      0.000      0.000
REMARK  Name = 
REMARK  5 active torsions:
REMARK  status: ('A' for Active; 'I' for Inactive)
REMARK    1  A    between atoms: C_1  and  C_2
REMARK    2  A    between atoms: C_2  and  N_3
REMARK    3  A    between atoms: C_7  and  C_8
REMARK    4  A    between atoms: C_14  and  C_15
REMARK    5  A    between atoms: C_15  and  O_16
REMARK                            x       y       z     vdW  Elec       q    Type
REMARK                         _______ _______ _______ _____ _____    ______ ____
ROOT
ATOM      1  N   UNL     1       7.742   7.744  17.085  0.00  0.00    +0.000 N 
ATOM      2  C   UNL     1       6.743   6.783  17.225  0.00  0.00    +0.000 A 
ATOM      3  N   UNL     1       5.806   6.729  16.270  0.00  0.00    +0.000 NA
ATOM      4  C   UNL     1       4.774   5.873  16.461  0.00  0.00    +0.000 A 
ATOM      5  C   UNL     1       4.666   5.046  17.555  0.00  0.00    +0.000 A 
ATOM      6  C   UNL     1       5.759   5.063  18.384  0.00  0.00    +0.000 A 
ATOM      7  N   UNL     1       6.777   5.941  18.267  0.00  0.00    +0.000 NA
ATOM      8  H   UNL     1       8.448   7.307  16.502  0.00  0.00    +0.000 HD
ENDROOT
BRANCH   5   9
ATOM      9  C   UNL     1       3.480   4.197  17.748  0.00  0.00    +0.000 C 
ATOM     10  O   UNL     1       3.200   3.412  16.844  0.00  0.00    +0.000 OA
ATOM     11  N   UNL     1       2.692   4.311  18.886  0.00  0.00    +0.000 N 
ATOM     12  C   UNL     1       1.611   3.349  19.069  0.00  0.00    +0.000 C 
ATOM     13  C   UNL     1       1.078   3.703  20.410  0.00  0.00    +0.000 C 
ATOM     14  C   UNL     1       1.686   4.782  20.910  0.00  0.00    +0.000 C 
ATOM     15  C   UNL     1       2.739   5.304  19.980  0.00  0.00    +0.000 C 
BRANCH  15  16
ATOM     16  C   UNL     1       2.473   6.753  19.523  0.00  0.00    +0.000 C 
BRANCH  16  17
ATOM     17  O   UNL     1       2.080   7.601  20.603  0.00  0.00    +0.000 OA
ATOM     18  H   UNL     1       2.797   7.570  21.263  0.00  0.00    +0.000 HD
ENDBRANCH  16  17
ENDBRANCH  15  16
ENDBRANCH   5   9
BRANCH   1  20
ATOM     19  C   UNL     1       8.575   9.688  18.284  0.00  0.00    +0.000 C 
ATOM     20  C   UNL     1       8.291   8.197  18.357  0.00  0.00    +0.000 C 
ENDBRANCH   1  20
TORSDOF 4
ENDMDL
MODEL 2
REMARK VINA RESULT:      -6.9      2.665      3.378
REMARK  Name = 
REMARK  5 active torsions:
REMARK  status: ('A' for Active; 'I' for Inactive)
REMARK    1  A    between atoms: C_1  and  C_2
REMARK    2  A    between atoms: C_2  and  N_3
REMARK    3  A    between atoms: C_7  and  C_8
REMARK    4  A    between atoms: C_14  and  C_15
REMARK    5  A    between atoms: C_15  and  O_16
REMARK                            x       y       z     vdW  Elec       q    Type
REMARK                         _______ _______ _______ _____ _____    ______ ____
ROOT
ATOM      1  N   UNL     1       6.868   5.633  15.190  0.00  0.00    +0.000 N 
ATOM      2  C   UNL     1       6.173   5.054  16.249  0.00  0.00    +0.000 A 
ATOM      3  N   UNL     1       6.429   5.520  17.478  0.00  0.00    +0.000 NA
ATOM      4  C   UNL     1       5.840   4.885  18.519  0.00  0.00    +0.000 A 
ATOM      5  C   UNL     1       4.978   3.824  18.371  0.00  0.00    +0.000 A 
ATOM      6  C   UNL     1       4.657   3.537  17.068  0.00  0.00    +0.000 A 
ATOM      7  N   UNL     1       5.265   4.100  16.003  0.00  0.00    +0.000 NA
ATOM      8  H   UNL     1       6.320   6.447  14.929  0.00  0.00    +0.000 HD
ENDROOT
BRANCH   5   9
ATOM      9  C   UNL     1       4.434   3.121  19.543  0.00  0.00    +0.000 C 
ATOM     10  O   UNL     1       5.174   2.319  20.108  0.00  0.00    +0.000 OA
ATOM     11  N   UNL     1       3.126   3.330  19.963  0.00  0.00    +0.000 N 
ATOM     12  C   UNL     1       2.699   2.700  21.207  0.00  0.00    +0.000 C 
ATOM     13  C   UNL     1       1.320   3.226  21.387  0.00  0.00    +0.000 C 
ATOM     14  C   UNL     1       0.946   3.980  20.350  0.00  0.00    +0.000 C 
ATOM     15  C   UNL     1       2.031   4.088  19.323  0.00  0.00    +0.000 C 
BRANCH  15  16
ATOM     16  C   UNL     1       1.611   3.540  17.944  0.00  0.00    +0.000 C 
BRANCH  16  17
ATOM     17  O   UNL     1       1.523   2.114  17.928  0.00  0.00    +0.000 OA
ATOM     18  H   UNL     1       2.334   1.785  17.499  0.00  0.00    +0.000 HD
ENDBRANCH  16  17
ENDBRANCH  15  16
ENDBRANCH   5   9
BRANCH   1  20
ATOM     19  C   UNL     1       7.901   5.418  13.000  0.00  0.00    +0.000 C 
ATOM     20  C   UNL     1       7.065   4.727  14.064  0.00  0.00    +0.000 C 
ENDBRANCH   1  20
TORSDOF 4
ENDMDL
MODEL 3
REMARK VINA RESULT:      -6.8      2.361      3.678
REMARK  Name = 
REMARK  5 active torsions:
REMARK  status: ('A' for Active; 'I' for Inactive)
REMARK    1  A    between atoms: C_1  and  C_2
REMARK    2  A    between atoms: C_2  and  N_3
REMARK    3  A    between atoms: C_7  and  C_8
REMARK    4  A    between atoms: C_14  and  C_15
REMARK    5  A    between atoms: C_15  and  O_16
REMARK                            x       y       z     vdW  Elec       q    Type
REMARK                         _______ _______ _______ _____ _____    ______ ____
ROOT
ATOM      1  N   UNL     1       7.549   4.879  15.000  0.00  0.00    +0.000 N 
ATOM      2  C   UNL     1       6.605   4.989  16.018  0.00  0.00    +0.000 A 
ATOM      3  N   UNL     1       6.979   4.605  17.245  0.00  0.00    +0.000 NA
ATOM      4  C   UNL     1       6.031   4.605  18.212  0.00  0.00    +0.000 A 
ATOM      5  C   UNL     1       4.732   5.008  18.002  0.00  0.00    +0.000 A 
ATOM      6  C   UNL     1       4.502   5.536  16.757  0.00  0.00    +0.000 A 
ATOM      7  N   UNL     1       5.396   5.499  15.747  0.00  0.00    +0.000 NA
ATOM      8  H   UNL     1       8.083   5.742  15.041  0.00  0.00    +0.000 HD
ENDROOT
BRANCH   5   9
ATOM      9  C   UNL     1       3.727   4.908  19.070  0.00  0.00    +0.000 C 
ATOM     10  O   UNL     1       3.838   5.683  20.018  0.00  0.00    +0.000 OA
ATOM     11  N   UNL     1       2.721   3.950  19.023  0.00  0.00    +0.000 N 
ATOM     12  C   UNL     1       1.686   3.995  20.048  0.00  0.00    +0.000 C 
ATOM     13  C   UNL     1       0.750   2.922  19.620  0.00  0.00    +0.000 C 
ATOM     14  C   UNL     1       1.213   2.267  18.553  0.00  0.00    +0.000 C 
ATOM     15  C   UNL     1       2.527   2.820  18.091  0.00  0.00    +0.000 C 
BRANCH  15  16
ATOM     16  C   UNL     1       3.663   1.777  18.124  0.00  0.00    +0.000 C 
BRANCH  16  17
ATOM     17  O   UNL     1       4.325   1.733  19.390  0.00  0.00    +0.000 OA
ATOM     18  H   UNL     1       4.164   2.591  19.823  0.00  0.00    +0.000 HD
ENDBRANCH  16  17
ENDBRANCH  15  16
ENDBRANCH   5   9
BRANCH   1  20
ATOM     19  C   UNL     1       7.866   5.263  12.620  0.00  0.00    +0.000 C 
ATOM     20  C   UNL     1       6.958   4.668  13.684  0.00  0.00    +0.000 C 
ENDBRANCH   1  20
TORSDOF 4
ENDMDL
MODEL 4
REMARK VINA RESULT:      -6.6      1.769      2.040
REMARK  Name = 
REMARK  5 active torsions:
REMARK  status: ('A' for Active; 'I' for Inactive)
REMARK    1  A    between atoms: C_1  and  C_2
REMARK    2  A    between atoms: C_2  and  N_3
REMARK    3  A    between atoms: C_7  and  C_8
REMARK    4  A    between atoms: C_14  and  C_15
REMARK    5  A    between atoms: C_15  and  O_16
REMARK                            x       y       z     vdW  Elec       q    Type
REMARK                         _______ _______ _______ _____ _____    ______ ____
ROOT
ATOM      1  N   UNL     1       7.233   7.128  16.803  0.00  0.00    +0.000 N 
ATOM      2  C   UNL     1       6.606   6.096  17.497  0.00  0.00    +0.000 A 
ATOM      3  N   UNL     1       6.110   5.084  16.775  0.00  0.00    +0.000 NA
ATOM      4  C   UNL     1       5.402   4.138  17.437  0.00  0.00    +0.000 A 
ATOM      5  C   UNL     1       5.203   4.151  18.798  0.00  0.00    +0.000 A 
ATOM      6  C   UNL     1       5.891   5.138  19.457  0.00  0.00    +0.000 A 
ATOM      7  N   UNL     1       6.556   6.135  18.836  0.00  0.00    +0.000 NA
ATOM      8  H   UNL     1       8.194   6.820  16.686  0.00  0.00    +0.000 HD
ENDROOT
BRANCH   5   9
ATOM      9  C   UNL     1       4.355   3.141  19.449  0.00  0.00    +0.000 C 
ATOM     10  O   UNL     1       4.854   2.034  19.644  0.00  0.00    +0.000 OA
ATOM     11  N   UNL     1       3.038   3.420  19.791  0.00  0.00    +0.000 N 
ATOM     12  C   UNL     1       2.301   2.416  20.549  0.00  0.00    +0.000 C 
ATOM     13  C   UNL     1       1.005   3.093  20.820  0.00  0.00    +0.000 C 
ATOM     14  C   UNL     1       0.942   4.285  20.223  0.00  0.00    +0.000 C 
ATOM     15  C   UNL     1       2.202   4.597  19.474  0.00  0.00    +0.000 C 
BRANCH  15  16
ATOM     16  C   UNL     1       1.968   4.813  17.965  0.00  0.00    +0.000 C 
BRANCH  16  17
ATOM     17  O   UNL     1       1.597   3.608  17.294  0.00  0.00    +0.000 OA
ATOM     18  H   UNL     1       1.447   3.841  16.359  0.00  0.00    +0.000 HD
ENDBRANCH  16  17
ENDBRANCH  15  16
ENDBRANCH   5   9
BRANCH   1  20
ATOM     19  C   UNL     1       8.506   8.753  18.085  0.00  0.00    +0.000 C 
ATOM     20  C   UNL     1       7.154   8.415  17.482  0.00  0.00    +0.000 C 
ENDBRANCH   1  20
TORSDOF 4
ENDMDL
MODEL 5
REMARK VINA RESULT:      -6.5      2.144      6.087
REMARK  Name = 
REMARK  5 active torsions:
REMARK  status: ('A' for Active; 'I' for Inactive)
REMARK    1  A    between atoms: C_1  and  C_2
REMARK    2  A    between atoms: C_2  and  N_3
REMARK    3  A    between atoms: C_7  and  C_8
REMARK    4  A    between atoms: C_14  and  C_15
REMARK    5  A    between atoms: C_15  and  O_16
REMARK                            x       y       z     vdW  Elec       q    Type
REMARK                         _______ _______ _______ _____ _____    ______ ____
ROOT
ATOM      1  N   UNL     1       1.351   2.724  18.613  0.00  0.00    +0.000 N 
ATOM      2  C   UNL     1       2.214   3.684  18.089  0.00  0.00    +0.000 A 
ATOM      3  N   UNL     1       3.175   3.257  17.261  0.00  0.00    +0.000 NA
ATOM      4  C   UNL     1       4.083   4.170  16.840  0.00  0.00    +0.000 A 
ATOM      5  C   UNL     1       4.042   5.499  17.191  0.00  0.00    +0.000 A 
ATOM      6  C   UNL     1       2.926   5.858  17.905  0.00  0.00    +0.000 A 
ATOM      7  N   UNL     1       2.032   4.975  18.397  0.00  0.00    +0.000 NA
ATOM      8  H   UNL     1       0.619   2.619  17.916  0.00  0.00    +0.000 HD
ENDROOT
BRANCH   5   9
ATOM      9  C   UNL     1       5.103   6.427  16.771  0.00  0.00    +0.000 C 
ATOM     10  O   UNL     1       4.928   7.036  15.717  0.00  0.00    +0.000 OA
ATOM     11  N   UNL     1       6.266   6.573  17.515  0.00  0.00    +0.000 N 
ATOM     12  C   UNL     1       7.213   7.604  17.107  0.00  0.00    +0.000 C 
ATOM     13  C   UNL     1       8.248   7.542  18.173  0.00  0.00    +0.000 C 
ATOM     14  C   UNL     1       8.004   6.550  19.034  0.00  0.00    +0.000 C 
ATOM     15  C   UNL     1       6.752   5.808  18.682  0.00  0.00    +0.000 C 
BRANCH  15  16
ATOM     16  C   UNL     1       6.999   4.313  18.394  0.00  0.00    +0.000 C 
BRANCH  16  17
ATOM     17  O   UNL     1       8.246   4.084  17.735  0.00  0.00    +0.000 OA
ATOM     18  H   UNL     1       8.284   4.700  16.981  0.00  0.00    +0.000 HD
ENDBRANCH  16  17
ENDBRANCH  15  16
ENDBRANCH   5   9
BRANCH   1  20
ATOM     19  C   UNL     1       1.722   2.544  21.008  0.00  0.00    +0.000 C 
ATOM     20  C   UNL     1       0.810   3.083  19.918  0.00  0.00    +0.000 C 
ENDBRANCH   1  20
TORSDOF 4
ENDMDL
MODEL 6
REMARK VINA RESULT:      -6.5      2.603      4.204
REMARK  Name = 
REMARK  5 active torsions:
REMARK  status: ('A' for Active; 'I' for Inactive)
REMARK    1  A    between atoms: C_1  and  C_2
REMARK    2  A    between atoms: C_2  and  N_3
REMARK    3  A    between atoms: C_7  and  C_8
REMARK    4  A    between atoms: C_14  and  C_15
REMARK    5  A    between atoms: C_15  and  O_16
REMARK                            x       y       z     vdW  Elec       q    Type
REMARK                         _______ _______ _______ _____ _____    ______ ____
ROOT
ATOM      1  N   UNL     1       7.062   4.262  13.766  0.00  0.00    +0.000 N 
ATOM      2  C   UNL     1       6.499   4.556  15.006  0.00  0.00    +0.000 A 
ATOM      3  N   UNL     1       7.263   4.363  16.088  0.00  0.00    +0.000 NA
ATOM      4  C   UNL     1       6.683   4.540  17.298  0.00  0.00    +0.000 A 
ATOM      5  C   UNL     1       5.376   4.937  17.463  0.00  0.00    +0.000 A 
ATOM      6  C   UNL     1       4.737   5.267  16.294  0.00  0.00    +0.000 A 
ATOM      7  N   UNL     1       5.254   5.047  15.067  0.00  0.00    +0.000 NA
ATOM      8  H   UNL     1       7.555   5.107  13.494  0.00  0.00    +0.000 HD
ENDROOT
BRANCH   5   9
ATOM      9  C   UNL     1       4.777   5.033  18.802  0.00  0.00    +0.000 C 
ATOM     10  O   UNL     1       5.471   5.521  19.692  0.00  0.00    +0.000 OA
ATOM     11  N   UNL     1       3.497   4.554  19.054  0.00  0.00    +0.000 N 
ATOM     12  C   UNL     1       2.921   4.801  20.370  0.00  0.00    +0.000 C 
ATOM     13  C   UNL     1       1.543   4.260  20.233  0.00  0.00    +0.000 C 
ATOM     14  C   UNL     1       1.359   3.685  19.043  0.00  0.00    +0.000 C 
ATOM     15  C   UNL     1       2.588   3.772  18.190  0.00  0.00    +0.000 C 
BRANCH  15  16
ATOM     16  C   UNL     1       3.141   2.389  17.787  0.00  0.00    +0.000 C 
BRANCH  16  17
ATOM     17  O   UNL     1       2.541   1.326  18.529  0.00  0.00    +0.000 OA
ATOM     18  H   UNL     1       2.756   0.498  18.061  0.00  0.00    +0.000 HD
ENDBRANCH  16  17
ENDBRANCH  15  16
ENDBRANCH   5   9
BRANCH   1  20
ATOM     19  C   UNL     1       6.731   2.913  11.772  0.00  0.00    +0.000 C 
ATOM     20  C   UNL     1       6.081   3.860  12.766  0.00  0.00    +0.000 C 
ENDBRANCH   1  20
TORSDOF 4
ENDMDL
MODEL 7
REMARK VINA RESULT:      -6.3      2.387      2.874
REMARK  Name = 
REMARK  5 active torsions:
REMARK  status: ('A' for Active; 'I' for Inactive)
REMARK    1  A    between atoms: C_1  and  C_2
REMARK    2  A    between atoms: C_2  and  N_3
REMARK    3  A    between atoms: C_7  and  C_8
REMARK    4  A    between atoms: C_14  and  C_15
REMARK    5  A    between atoms: C_15  and  O_16
REMARK                            x       y       z     vdW  Elec       q    Type
REMARK                         _______ _______ _______ _____ _____    ______ ____
ROOT
ATOM      1  N   UNL     1       7.560   5.423  15.017  0.00  0.00    +0.000 N 
ATOM      2  C   UNL     1       6.576   4.902  15.854  0.00  0.00    +0.000 A 
ATOM      3  N   UNL     1       6.879   4.778  17.152  0.00  0.00    +0.000 NA
ATOM      4  C   UNL     1       5.967   4.169  17.947  0.00  0.00    +0.000 A 
ATOM      5  C   UNL     1       4.750   3.712  17.495  0.00  0.00    +0.000 A 
ATOM      6  C   UNL     1       4.476   4.039  16.191  0.00  0.00    +0.000 A 
ATOM      7  N   UNL     1       5.376   4.587  15.348  0.00  0.00    +0.000 NA
ATOM      8  H   UNL     1       7.451   6.431  15.076  0.00  0.00    +0.000 HD
ENDROOT
BRANCH   5   9
ATOM      9  C   UNL     1       3.836   2.985  18.388  0.00  0.00    +0.000 C 
ATOM     10  O   UNL     1       3.733   1.772  18.215  0.00  0.00    +0.000 OA
ATOM     11  N   UNL     1       3.094   3.651  19.356  0.00  0.00    +0.000 N 
ATOM     12  C   UNL     1       2.310   2.849  20.287  0.00  0.00    +0.000 C 
ATOM     13  C   UNL     1       1.759   3.870  21.218  0.00  0.00    +0.000 C 
ATOM     14  C   UNL     1       2.086   5.107  20.836  0.00  0.00    +0.000 C 
ATOM     15  C   UNL     1       2.926   5.099  19.595  0.00  0.00    +0.000 C 
BRANCH  15  16
ATOM     16  C   UNL     1       2.274   5.858  18.422  0.00  0.00    +0.000 C 
BRANCH  16  17
ATOM     17  O   UNL     1       2.878   7.132  18.194  0.00  0.00    +0.000 OA
ATOM     18  H   UNL     1       3.783   7.085  18.554  0.00  0.00    +0.000 HD
ENDBRANCH  16  17
ENDBRANCH  15  16
ENDBRANCH   5   9
BRANCH   1  20
ATOM     19  C   UNL     1       8.368   5.780  12.753  0.00  0.00    +0.000 C 
ATOM     20  C   UNL     1       7.463   4.946  13.643  0.00  0.00    +0.000 C 
ENDBRANCH   1  20
TORSDOF 4
ENDMDL
MODEL 8
REMARK VINA RESULT:      -6.3      1.867      5.997
REMARK  Name = 
REMARK  5 active torsions:
REMARK  status: ('A' for Active; 'I' for Inactive)
REMARK    1  A    between atoms: C_1  and  C_2
REMARK    2  A    between atoms: C_2  and  N_3
REMARK    3  A    between atoms: C_7  and  C_8
REMARK    4  A    between atoms: C_14  and  C_15
REMARK    5  A    between atoms: C_15  and  O_16
REMARK                            x       y       z     vdW  Elec       q    Type
REMARK                         _______ _______ _______ _____ _____    ______ ____
ROOT
ATOM      1  N   UNL     1       0.733   3.155  20.269  0.00  0.00    +0.000 N 
ATOM      2  C   UNL     1       1.508   4.121  19.631  0.00  0.00    +0.000 A 
ATOM      3  N   UNL     1       1.614   4.040  18.299  0.00  0.00    +0.000 NA
ATOM      4  C   UNL     1       2.455   4.909  17.689  0.00  0.00    +0.000 A 
ATOM      5  C   UNL     1       3.167   5.875  18.361  0.00  0.00    +0.000 A 
ATOM      6  C   UNL     1       2.858   5.976  19.694  0.00  0.00    +0.000 A 
ATOM      7  N   UNL     1       2.076   5.096  20.354  0.00  0.00    +0.000 NA
ATOM      8  H   UNL     1      -0.217   3.513  20.233  0.00  0.00    +0.000 HD
ENDROOT
BRANCH   5   9
ATOM      9  C   UNL     1       4.129   6.735  17.655  0.00  0.00    +0.000 C 
ATOM     10  O   UNL     1       3.670   7.550  16.857  0.00  0.00    +0.000 OA
ATOM     11  N   UNL     1       5.497   6.600  17.857  0.00  0.00    +0.000 N 
ATOM     12  C   UNL     1       6.380   7.572  17.224  0.00  0.00    +0.000 C 
ATOM     13  C   UNL     1       7.719   7.188  17.742  0.00  0.00    +0.000 C 
ATOM     14  C   UNL     1       7.655   6.086  18.494  0.00  0.00    +0.000 C 
ATOM     15  C   UNL     1       6.251   5.576  18.609  0.00  0.00    +0.000 C 
BRANCH  15  16
ATOM     16  C   UNL     1       6.084   4.144  18.059  0.00  0.00    +0.000 C 
BRANCH  16  17
ATOM     17  O   UNL     1       5.410   3.283  18.977  0.00  0.00    +0.000 OA
ATOM     18  H   UNL     1       5.670   3.566  19.873  0.00  0.00    +0.000 HD
ENDBRANCH  16  17
ENDBRANCH  15  16
ENDBRANCH   5   9
BRANCH   1  20
ATOM     19  C   UNL     1       2.585   2.355  21.626  0.00  0.00    +0.000 C 
ATOM     20  C   UNL     1       1.159   2.881  21.636  0.00  0.00    +0.000 C 
ENDBRANCH   1  20
TORSDOF 4
ENDMDL
MODEL 9
REMARK VINA RESULT:      -6.3      2.242      3.718
REMARK  Name = 
REMARK  5 active torsions:
REMARK  status: ('A' for Active; 'I' for Inactive)
REMARK    1  A    between atoms: C_1  and  C_2
REMARK    2  A    between atoms: C_2  and  N_3
REMARK    3  A    between atoms: C_7  and  C_8
REMARK    4  A    between atoms: C_14  and  C_15
REMARK    5  A    between atoms: C_15  and  O_16
REMARK                            x       y       z     vdW  Elec       q    Type
REMARK                         _______ _______ _______ _____ _____    ______ ____
ROOT
ATOM      1  N   UNL     1       6.428   5.477  14.578  0.00  0.00    +0.000 N 
ATOM      2  C   UNL     1       5.512   5.573  15.623  0.00  0.00    +0.000 A 
ATOM      3  N   UNL     1       5.519   6.702  16.342  0.00  0.00    +0.000 NA
ATOM      4  C   UNL     1       4.709   6.753  17.426  0.00  0.00    +0.000 A 
ATOM      5  C   UNL     1       3.868   5.729  17.795  0.00  0.00    +0.000 A 
ATOM      6  C   UNL     1       3.818   4.692  16.898  0.00  0.00    +0.000 A 
ATOM      7  N   UNL     1       4.650   4.571  15.841  0.00  0.00    +0.000 NA
ATOM      8  H   UNL     1       5.969   5.914  13.784  0.00  0.00    +0.000 HD
ENDROOT
BRANCH   5   9
ATOM      9  C   UNL     1       3.073   5.809  19.029  0.00  0.00    +0.000 C 
ATOM     10  O   UNL     1       2.751   6.931  19.416  0.00  0.00    +0.000 OA
ATOM     11  N   UNL     1       2.737   4.666  19.744  0.00  0.00    +0.000 N 
ATOM     12  C   UNL     1       1.839   4.810  20.883  0.00  0.00    +0.000 C 
ATOM     13  C   UNL     1       1.625   3.404  21.315  0.00  0.00    +0.000 C 
ATOM     14  C   UNL     1       2.367   2.555  20.601  0.00  0.00    +0.000 C 
ATOM     15  C   UNL     1       3.180   3.267  19.563  0.00  0.00    +0.000 C 
BRANCH  15  16
ATOM     16  C   UNL     1       4.698   3.062  19.742  0.00  0.00    +0.000 C 
BRANCH  16  17
ATOM     17  O   UNL     1       5.044   1.688  19.925  0.00  0.00    +0.000 OA
ATOM     18  H   UNL     1       4.784   1.220  19.110  0.00  0.00    +0.000 HD
ENDBRANCH  16  17
ENDBRANCH  15  16
ENDBRANCH   5   9
BRANCH   1  20
ATOM     19  C   UNL     1       6.398   3.743  12.875  0.00  0.00    +0.000 C 
ATOM     20  C   UNL     1       6.830   4.106  14.286  0.00  0.00    +0.000 C 
ENDBRANCH   1  20
TORSDOF 4
ENDMDL
