MODEL 1
REMARK VINA RESULT:      -7.5      0.000      0.000
REMARK  Name = 
REMARK  3 active torsions:
REMARK  status: ('A' for Active; 'I' for Inactive)
REMARK    1  A    between atoms: C_2  and  O_3
REMARK    2  A    between atoms: C_2  and  C_4
REMARK    3  A    between atoms: C_5  and  C_6
REMARK                            x       y       z     vdW  Elec       q    Type
REMARK                         _______ _______ _______ _____ _____    ______ ____
ROOT
ATOM      1  C   UNL     1       4.708   4.410  17.168  0.00  0.00    +0.000 A 
ATOM      2  C   UNL     1       5.102   5.142  18.240  0.00  0.00    +0.000 A 
ATOM      3  N   UNL     1       4.403   5.153  19.444  0.00  0.00    +0.000 N 
ATOM      4  C   UNL     1       3.164   4.525  19.597  0.00  0.00    +0.000 A 
ATOM      5  C   UNL     1       2.435   4.617  20.786  0.00  0.00    +0.000 A 
ATOM      6  C   UNL     1       1.215   3.946  20.923  0.00  0.00    +0.000 A 
ATOM      7  C   UNL     1       0.723   3.156  19.881  0.00  0.00    +0.000 A 
ATOM      8  C   UNL     1       1.455   3.035  18.703  0.00  0.00    +0.000 A 
ATOM      9  C   UNL     1       2.670   3.716  18.572  0.00  0.00    +0.000 A 
ATOM     10  C   UNL     1       3.448   3.622  17.324  0.00  0.00    +0.000 A 
ATOM     11  O   UNL     1       3.032   2.932  16.392  0.00  0.00    +0.000 OA
ATOM     12  H   UNL     1       4.655   5.892  20.095  0.00  0.00    +0.000 HD
ENDROOT
BRANCH   2  13
ATOM     13  C   UNL     1       6.246   5.981  18.145  0.00  0.00    +0.000 A 
ATOM     14  C   UNL     1       7.480   5.971  18.764  0.00  0.00    +0.000 A 
ATOM     15  C   UNL     1       8.165   7.144  18.363  0.00  0.00    +0.000 A 
ATOM     16  C   UNL     1       7.354   7.810  17.473  0.00  0.00    +0.000 A 
ATOM     17  N   UNL     1       6.205   7.078  17.316  0.00  0.00    +0.000 N 
ATOM     18  H   UNL     1       5.412   7.358  16.754  0.00  0.00    +0.000 HD
ENDBRANCH   2  13
BRANCH   1  20
ATOM     19  O   UNL     1       5.429   5.268  15.024  0.00  0.00    +0.000 OA
ATOM     20  C   UNL     1       5.429   4.379  15.858  0.00  0.00    +0.000 C 
BRANCH  20  21
ATOM     21  O   UNL     1       6.135   3.240  15.636  0.00  0.00    +0.000 OA
ATOM     22  H   UNL     1       6.108   2.928  14.699  0.00  0.00    +0.000 HD
ENDBRANCH  20  21
ENDBRANCH   1  20
TORSDOF 3
ENDMDL
MODEL 2
REMARK VINA RESULT:      -7.4      2.215      3.418
REMARK  Name = 
REMARK  3 active torsions:
REMARK  status: ('A' for Active; 'I' for Inactive)
REMARK    1  A    between atoms: C_2  and  O_3
REMARK    2  A    between atoms: C_2  and  C_4
REMARK    3  A    between atoms: C_5  and  C_6
REMARK                            x       y       z     vdW  Elec       q    Type
REMARK                         _______ _______ _______ _____ _____    ______ ____
ROOT
ATOM      1  C   UNL     1       5.920   4.721  17.625  0.00  0.00    +0.000 A 
ATOM      2  C   UNL     1       5.164   4.499  16.520  0.00  0.00    +0.000 A 
ATOM      3  N   UNL     1       3.795   4.252  16.579  0.00  0.00    +0.000 N 
ATOM      4  C   UNL     1       3.118   4.073  17.788  0.00  0.00    +0.000 A 
ATOM      5  C   UNL     1       1.761   3.741  17.829  0.00  0.00    +0.000 A 
ATOM      6  C   UNL     1       1.100   3.606  19.055  0.00  0.00    +0.000 A 
ATOM      7  C   UNL     1       1.784   3.823  20.253  0.00  0.00    +0.000 A 
ATOM      8  C   UNL     1       3.130   4.180  20.223  0.00  0.00    +0.000 A 
ATOM      9  C   UNL     1       3.784   4.306  18.993  0.00  0.00    +0.000 A 
ATOM     10  C   UNL     1       5.214   4.659  18.940  0.00  0.00    +0.000 A 
ATOM     11  O   UNL     1       5.836   4.854  19.985  0.00  0.00    +0.000 OA
ATOM     12  H   UNL     1       3.374   3.886  15.730  0.00  0.00    +0.000 HD
ENDROOT
BRANCH   2  13
ATOM     13  C   UNL     1       5.776   4.461  15.237  0.00  0.00    +0.000 A 
ATOM     14  C   UNL     1       5.638   3.624  14.148  0.00  0.00    +0.000 A 
ATOM     15  C   UNL     1       6.614   4.005  13.194  0.00  0.00    +0.000 A 
ATOM     16  C   UNL     1       7.283   5.094  13.703  0.00  0.00    +0.000 A 
ATOM     17  N   UNL     1       6.743   5.389  14.930  0.00  0.00    +0.000 N 
ATOM     18  H   UNL     1       7.076   6.116  15.550  0.00  0.00    +0.000 HD
ENDBRANCH   2  13
BRANCH   1  20
ATOM     19  O   UNL     1       8.257   4.157  17.361  0.00  0.00    +0.000 OA
ATOM     20  C   UNL     1       7.392   4.982  17.600  0.00  0.00    +0.000 C 
BRANCH  20  21
ATOM     21  O   UNL     1       7.736   6.269  17.864  0.00  0.00    +0.000 OA
ATOM     22  H   UNL     1       7.930   6.444  18.816  0.00  0.00    +0.000 HD
ENDBRANCH  20  21
ENDBRANCH   1  20
TORSDOF 3
ENDMDL
MODEL 3
REMARK VINA RESULT:      -7.2      2.735      6.227
REMARK  Name = 
REMARK  3 active torsions:
REMARK  status: ('A' for Active; 'I' for Inactive)
REMARK    1  A    between atoms: C_2  and  O_3
REMARK    2  A    between atoms: C_2  and  C_4
REMARK    3  A    between atoms: C_5  and  C_6
REMARK                            x       y       z     vdW  Elec       q    Type
REMARK                         _______ _______ _______ _____ _____    ______ ____
ROOT
ATOM      1  C   UNL     1       5.792   4.799  17.026  0.00  0.00    +0.000 A 
ATOM      2  C   UNL     1       5.000   3.831  16.500  0.00  0.00    +0.000 A 
ATOM      3  N   UNL     1       5.137   3.372  15.193  0.00  0.00    +0.000 N 
ATOM      4  C   UNL     1       6.004   3.971  14.275  0.00  0.00    +0.000 A 
ATOM      5  C   UNL     1       6.068   3.554  12.943  0.00  0.00    +0.000 A 
ATOM      6  C   UNL     1       6.973   4.147  12.056  0.00  0.00    +0.000 A 
ATOM      7  C   UNL     1       7.841   5.148  12.499  0.00  0.00    +0.000 A 
ATOM      8  C   UNL     1       7.805   5.552  13.831  0.00  0.00    +0.000 A 
ATOM      9  C   UNL     1       6.891   4.958  14.708  0.00  0.00    +0.000 A 
ATOM     10  C   UNL     1       6.820   5.389  16.116  0.00  0.00    +0.000 A 
ATOM     11  O   UNL     1       7.575   6.270  16.527  0.00  0.00    +0.000 OA
ATOM     12  H   UNL     1       4.365   2.814  14.837  0.00  0.00    +0.000 HD
ENDROOT
BRANCH   2  13
ATOM     13  C   UNL     1       3.947   3.276  17.276  0.00  0.00    +0.000 A 
ATOM     14  C   UNL     1       2.598   3.554  17.377  0.00  0.00    +0.000 A 
ATOM     15  C   UNL     1       2.076   2.753  18.422  0.00  0.00    +0.000 A 
ATOM     16  C   UNL     1       3.105   1.971  18.894  0.00  0.00    +0.000 A 
ATOM     17  N   UNL     1       4.231   2.267  18.167  0.00  0.00    +0.000 N 
ATOM     18  H   UNL     1       5.148   1.873  18.334  0.00  0.00    +0.000 HD
ENDBRANCH   2  13
BRANCH   1  20
ATOM     19  O   UNL     1       4.719   5.938  18.871  0.00  0.00    +0.000 OA
ATOM     20  C   UNL     1       5.670   5.320  18.422  0.00  0.00    +0.000 C 
BRANCH  20  21
ATOM     21  O   UNL     1       6.736   5.046  19.217  0.00  0.00    +0.000 OA
ATOM     22  H   UNL     1       7.435   5.743  19.204  0.00  0.00    +0.000 HD
ENDBRANCH  20  21
ENDBRANCH   1  20
TORSDOF 3
ENDMDL
MODEL 4
REMARK VINA RESULT:      -7.0      2.953      4.009
REMARK  Name = 
REMARK  3 active torsions:
REMARK  status: ('A' for Active; 'I' for Inactive)
REMARK    1  A    between atoms: C_2  and  O_3
REMARK    2  A    between atoms: C_2  and  C_4
REMARK    3  A    between atoms: C_5  and  C_6
REMARK                            x       y       z     vdW  Elec       q    Type
REMARK                         _______ _______ _______ _____ _____    ______ ____
ROOT
ATOM      1  C   UNL     1       3.940   5.055  18.675  0.00  0.00    +0.000 A 
ATOM      2  C   UNL     1       4.262   5.789  17.580  0.00  0.00    +0.000 A 
ATOM      3  N   UNL     1       3.795   7.085  17.377  0.00  0.00    +0.000 N 
ATOM      4  C   UNL     1       2.844   7.678  18.212  0.00  0.00    +0.000 A 
ATOM      5  C   UNL     1       2.321   8.947  17.946  0.00  0.00    +0.000 A 
ATOM      6  C   UNL     1       1.398   9.531  18.821  0.00  0.00    +0.000 A 
ATOM      7  C   UNL     1       1.007   8.863  19.983  0.00  0.00    +0.000 A 
ATOM      8  C   UNL     1       1.543   7.610  20.272  0.00  0.00    +0.000 A 
ATOM      9  C   UNL     1       2.458   7.031  19.387  0.00  0.00    +0.000 A 
ATOM     10  C   UNL     1       3.018   5.695  19.661  0.00  0.00    +0.000 A 
ATOM     11  O   UNL     1       2.685   5.088  20.680  0.00  0.00    +0.000 OA
ATOM     12  H   UNL     1       3.913   7.456  16.438  0.00  0.00    +0.000 HD
ENDROOT
BRANCH   2  13
ATOM     13  C   UNL     1       5.069   5.222  16.557  0.00  0.00    +0.000 A 
ATOM     14  C   UNL     1       4.784   4.465  15.438  0.00  0.00    +0.000 A 
ATOM     15  C   UNL     1       6.019   4.076  14.863  0.00  0.00    +0.000 A 
ATOM     16  C   UNL     1       7.020   4.648  15.614  0.00  0.00    +0.000 A 
ATOM     17  N   UNL     1       6.434   5.374  16.620  0.00  0.00    +0.000 N 
ATOM     18  H   UNL     1       6.937   5.862  17.350  0.00  0.00    +0.000 HD
ENDBRANCH   2  13
BRANCH   1  20
ATOM     19  O   UNL     1       3.739   2.650  18.840  0.00  0.00    +0.000 OA
ATOM     20  C   UNL     1       4.418   3.660  18.923  0.00  0.00    +0.000 C 
BRANCH  20  21
ATOM     21  O   UNL     1       5.730   3.569  19.259  0.00  0.00    +0.000 OA
ATOM     22  H   UNL     1       6.309   4.221  18.794  0.00  0.00    +0.000 HD
ENDBRANCH  20  21
ENDBRANCH   1  20
TORSDOF 3
ENDMDL
MODEL 5
REMARK VINA RESULT:      -7.0      2.415      3.471
REMARK  Name = 
REMARK  3 active torsions:
REMARK  status: ('A' for Active; 'I' for Inactive)
REMARK    1  A    between atoms: C_2  and  O_3
REMARK    2  A    between atoms: C_2  and  C_4
REMARK    3  A    between atoms: C_5  and  C_6
REMARK                            x       y       z     vdW  Elec       q    Type
REMARK                         _______ _______ _______ _____ _____    ______ ____
ROOT
ATOM      1  C   UNL     1       6.016   4.654  17.629  0.00  0.00    +0.000 A 
ATOM      2  C   UNL     1       5.328   4.367  16.495  0.00  0.00    +0.000 A 
ATOM      3  N   UNL     1       3.984   4.005  16.499  0.00  0.00    +0.000 N 
ATOM      4  C   UNL     1       3.275   3.770  17.679  0.00  0.00    +0.000 A 
ATOM      5  C   UNL     1       1.950   3.325  17.665  0.00  0.00    +0.000 A 
ATOM      6  C   UNL     1       1.253   3.135  18.864  0.00  0.00    +0.000 A 
ATOM      7  C   UNL     1       1.865   3.411  20.087  0.00  0.00    +0.000 A 
ATOM      8  C   UNL     1       3.176   3.882  20.112  0.00  0.00    +0.000 A 
ATOM      9  C   UNL     1       3.867   4.062  18.910  0.00  0.00    +0.000 A 
ATOM     10  C   UNL     1       5.263   4.535  18.915  0.00  0.00    +0.000 A 
ATOM     11  O   UNL     1       5.823   4.783  19.983  0.00  0.00    +0.000 OA
ATOM     12  H   UNL     1       3.632   3.604  15.634  0.00  0.00    +0.000 HD
ENDROOT
BRANCH   2  13
ATOM     13  C   UNL     1       5.994   4.380  15.239  0.00  0.00    +0.000 A 
ATOM     14  C   UNL     1       6.791   5.309  14.601  0.00  0.00    +0.000 A 
ATOM     15  C   UNL     1       7.061   4.815  13.301  0.00  0.00    +0.000 A 
ATOM     16  C   UNL     1       6.467   3.578  13.200  0.00  0.00    +0.000 A 
ATOM     17  N   UNL     1       5.852   3.304  14.395  0.00  0.00    +0.000 N 
ATOM     18  H   UNL     1       5.297   2.479  14.585  0.00  0.00    +0.000 HD
ENDBRANCH   2  13
BRANCH   1  20
ATOM     19  O   UNL     1       7.891   6.181  17.677  0.00  0.00    +0.000 OA
ATOM     20  C   UNL     1       7.460   5.041  17.664  0.00  0.00    +0.000 C 
BRANCH  20  21
ATOM     21  O   UNL     1       8.320   3.990  17.691  0.00  0.00    +0.000 OA
ATOM     22  H   UNL     1       8.506   3.648  18.598  0.00  0.00    +0.000 HD
ENDBRANCH  20  21
ENDBRANCH   1  20
TORSDOF 3
ENDMDL
MODEL 6
REMARK VINA RESULT:      -6.8      3.003      3.934
REMARK  Name = 
REMARK  3 active torsions:
REMARK  status: ('A' for Active; 'I' for Inactive)
REMARK    1  A    between atoms: C_2  and  O_3
REMARK    2  A    between atoms: C_2  and  C_4
REMARK    3  A    between atoms: C_5  and  C_6
REMARK                            x       y       z     vdW  Elec       q    Type
REMARK                         _______ _______ _______ _____ _____    ______ ____
ROOT
ATOM      1  C   UNL     1       4.149   5.068  18.587  0.00  0.00    +0.000 A 
ATOM      2  C   UNL     1       4.483   5.822  17.510  0.00  0.00    +0.000 A 
ATOM      3  N   UNL     1       3.977   7.101  17.297  0.00  0.00    +0.000 N 
ATOM      4  C   UNL     1       2.976   7.654  18.100  0.00  0.00    +0.000 A 
ATOM      5  C   UNL     1       2.417   8.905  17.823  0.00  0.00    +0.000 A 
ATOM      6  C   UNL     1       1.444   9.450  18.668  0.00  0.00    +0.000 A 
ATOM      7  C   UNL     1       1.035   8.759  19.811  0.00  0.00    +0.000 A 
ATOM      8  C   UNL     1       1.605   7.525  20.112  0.00  0.00    +0.000 A 
ATOM      9  C   UNL     1       2.572   6.985  19.258  0.00  0.00    +0.000 A 
ATOM     10  C   UNL     1       3.170   5.668  19.544  0.00  0.00    +0.000 A 
ATOM     11  O   UNL     1       2.823   5.042  20.546  0.00  0.00    +0.000 OA
ATOM     12  H   UNL     1       4.115   7.483  16.365  0.00  0.00    +0.000 HD
ENDROOT
BRANCH   2  13
ATOM     13  C   UNL     1       5.346   5.291  16.513  0.00  0.00    +0.000 A 
ATOM     14  C   UNL     1       6.679   5.487  16.214  0.00  0.00    +0.000 A 
ATOM     15  C   UNL     1       6.955   4.780  15.018  0.00  0.00    +0.000 A 
ATOM     16  C   UNL     1       5.800   4.130  14.649  0.00  0.00    +0.000 A 
ATOM     17  N   UNL     1       4.836   4.415  15.583  0.00  0.00    +0.000 N 
ATOM     18  H   UNL     1       3.874   4.106  15.534  0.00  0.00    +0.000 HD
ENDBRANCH   2  13
BRANCH   1  20
ATOM     19  O   UNL     1       5.535   3.395  19.650  0.00  0.00    +0.000 OA
ATOM     20  C   UNL     1       4.668   3.690  18.845  0.00  0.00    +0.000 C 
BRANCH  20  21
ATOM     21  O   UNL     1       4.080   2.722  18.096  0.00  0.00    +0.000 OA
ATOM     22  H   UNL     1       3.302   2.296  18.530  0.00  0.00    +0.000 HD
ENDBRANCH  20  21
ENDBRANCH   1  20
TORSDOF 3
ENDMDL
MODEL 7
REMARK VINA RESULT:      -6.7      2.537      3.254
REMARK  Name = 
REMARK  3 active torsions:
REMARK  status: ('A' for Active; 'I' for Inactive)
REMARK    1  A    between atoms: C_2  and  O_3
REMARK    2  A    between atoms: C_2  and  C_4
REMARK    3  A    between atoms: C_5  and  C_6
REMARK                            x       y       z     vdW  Elec       q    Type
REMARK                         _______ _______ _______ _____ _____    ______ ____
ROOT
ATOM      1  C   UNL     1       3.797   5.853  17.690  0.00  0.00    +0.000 A 
ATOM      2  C   UNL     1       4.148   4.667  17.133  0.00  0.00    +0.000 A 
ATOM      3  N   UNL     1       3.604   3.452  17.540  0.00  0.00    +0.000 N 
ATOM      4  C   UNL     1       2.762   3.343  18.650  0.00  0.00    +0.000 A 
ATOM      5  C   UNL     1       2.292   2.105  19.098  0.00  0.00    +0.000 A 
ATOM      6  C   UNL     1       1.419   2.030  20.189  0.00  0.00    +0.000 A 
ATOM      7  C   UNL     1       0.988   3.195  20.829  0.00  0.00    +0.000 A 
ATOM      8  C   UNL     1       1.428   4.435  20.373  0.00  0.00    +0.000 A 
ATOM      9  C   UNL     1       2.306   4.499  19.287  0.00  0.00    +0.000 A 
ATOM     10  C   UNL     1       2.804   5.800  18.805  0.00  0.00    +0.000 A 
ATOM     11  O   UNL     1       2.438   6.839  19.355  0.00  0.00    +0.000 OA
ATOM     12  H   UNL     1       4.088   2.619  17.216  0.00  0.00    +0.000 HD
ENDROOT
BRANCH   2  13
ATOM     13  C   UNL     1       5.146   4.625  16.121  0.00  0.00    +0.000 A 
ATOM     14  C   UNL     1       5.094   4.529  14.745  0.00  0.00    +0.000 A 
ATOM     15  C   UNL     1       6.425   4.398  14.278  0.00  0.00    +0.000 A 
ATOM     16  C   UNL     1       7.254   4.469  15.374  0.00  0.00    +0.000 A 
ATOM     17  N   UNL     1       6.471   4.645  16.487  0.00  0.00    +0.000 N 
ATOM     18  H   UNL     1       6.816   4.682  17.438  0.00  0.00    +0.000 HD
ENDBRANCH   2  13
BRANCH   1  20
ATOM     19  O   UNL     1       5.551   7.447  17.204  0.00  0.00    +0.000 OA
ATOM     20  C   UNL     1       4.365   7.176  17.282  0.00  0.00    +0.000 C 
BRANCH  20  21
ATOM     21  O   UNL     1       3.432   8.114  16.976  0.00  0.00    +0.000 OA
ATOM     22  H   UNL     1       2.826   8.335  17.724  0.00  0.00    +0.000 HD
ENDBRANCH  20  21
ENDBRANCH   1  20
TORSDOF 3
ENDMDL
MODEL 8
REMARK VINA RESULT:      -6.7      3.008      5.375
REMARK  Name = 
REMARK  3 active torsions:
REMARK  status: ('A' for Active; 'I' for Inactive)
REMARK    1  A    between atoms: C_2  and  O_3
REMARK    2  A    between atoms: C_2  and  C_4
REMARK    3  A    between atoms: C_5  and  C_6
REMARK                            x       y       z     vdW  Elec       q    Type
REMARK                         _______ _______ _______ _____ _____    ______ ____
ROOT
ATOM      1  C   UNL     1       2.593   5.235  19.265  0.00  0.00    +0.000 A 
ATOM      2  C   UNL     1       2.676   6.528  18.861  0.00  0.00    +0.000 A 
ATOM      3  N   UNL     1       3.433   6.928  17.764  0.00  0.00    +0.000 N 
ATOM      4  C   UNL     1       4.280   6.053  17.078  0.00  0.00    +0.000 A 
ATOM      5  C   UNL     1       5.098   6.489  16.032  0.00  0.00    +0.000 A 
ATOM      6  C   UNL     1       5.907   5.582  15.338  0.00  0.00    +0.000 A 
ATOM      7  C   UNL     1       5.888   4.225  15.668  0.00  0.00    +0.000 A 
ATOM      8  C   UNL     1       5.056   3.775  16.690  0.00  0.00    +0.000 A 
ATOM      9  C   UNL     1       4.257   4.690  17.383  0.00  0.00    +0.000 A 
ATOM     10  C   UNL     1       3.388   4.239  18.485  0.00  0.00    +0.000 A 
ATOM     11  O   UNL     1       3.358   3.047  18.793  0.00  0.00    +0.000 OA
ATOM     12  H   UNL     1       3.602   7.927  17.683  0.00  0.00    +0.000 HD
ENDROOT
BRANCH   2  13
ATOM     13  C   UNL     1       2.014   7.546  19.599  0.00  0.00    +0.000 A 
ATOM     14  C   UNL     1       1.432   8.746  19.242  0.00  0.00    +0.000 A 
ATOM     15  C   UNL     1       1.043   9.401  20.436  0.00  0.00    +0.000 A 
ATOM     16  C   UNL     1       1.350   8.563  21.484  0.00  0.00    +0.000 A 
ATOM     17  N   UNL     1       1.905   7.421  20.964  0.00  0.00    +0.000 N 
ATOM     18  H   UNL     1       2.268   6.652  21.513  0.00  0.00    +0.000 HD
ENDBRANCH   2  13
BRANCH   1  20
ATOM     19  O   UNL     1       0.600   4.530  20.440  0.00  0.00    +0.000 OA
ATOM     20  C   UNL     1       1.795   4.770  20.441  0.00  0.00    +0.000 C 
BRANCH  20  21
ATOM     21  O   UNL     1       2.518   4.611  21.580  0.00  0.00    +0.000 OA
ATOM     22  H   UNL     1       3.386   4.159  21.443  0.00  0.00    +0.000 HD
ENDBRANCH  20  21
ENDBRANCH   1  20
TORSDOF 3
ENDMDL
MODEL 9
REMARK VINA RESULT:      -6.7      4.410      6.172
REMARK  Name = 
REMARK  3 active torsions:
REMARK  status: ('A' for Active; 'I' for Inactive)
REMARK    1  A    between atoms: C_2  and  O_3
REMARK    2  A    between atoms: C_2  and  C_4
REMARK    3  A    between atoms: C_5  and  C_6
REMARK                            x       y       z     vdW  Elec       q    Type
REMARK                         _______ _______ _______ _____ _____    ______ ____
ROOT
ATOM      1  C   UNL     1       1.894   8.481  19.096  0.00  0.00    +0.000 A 
ATOM      2  C   UNL     1       1.770   7.811  20.269  0.00  0.00    +0.000 A 
ATOM      3  N   UNL     1       2.376   6.579  20.502  0.00  0.00    +0.000 N 
ATOM      4  C   UNL     1       3.040   5.869  19.498  0.00  0.00    +0.000 A 
ATOM      5  C   UNL     1       3.569   4.596  19.725  0.00  0.00    +0.000 A 
ATOM      6  C   UNL     1       4.263   3.925  18.711  0.00  0.00    +0.000 A 
ATOM      7  C   UNL     1       4.455   4.531  17.468  0.00  0.00    +0.000 A 
ATOM      8  C   UNL     1       3.956   5.811  17.240  0.00  0.00    +0.000 A 
ATOM      9  C   UNL     1       3.258   6.471  18.257  0.00  0.00    +0.000 A 
ATOM     10  C   UNL     1       2.700   7.816  18.028  0.00  0.00    +0.000 A 
ATOM     11  O   UNL     1       2.856   8.368  16.939  0.00  0.00    +0.000 OA
ATOM     12  H   UNL     1       2.044   6.069  21.317  0.00  0.00    +0.000 HD
ENDROOT
BRANCH   2  13
ATOM     13  C   UNL     1       0.954   8.339  21.307  0.00  0.00    +0.000 A 
ATOM     14  C   UNL     1      -0.406   8.320  21.543  0.00  0.00    +0.000 A 
ATOM     15  C   UNL     1      -0.651   9.133  22.677  0.00  0.00    +0.000 A 
ATOM     16  C   UNL     1       0.567   9.583  23.132  0.00  0.00    +0.000 A 
ATOM     17  N   UNL     1       1.542   9.066  22.316  0.00  0.00    +0.000 N 
ATOM     18  H   UNL     1       2.529   9.272  22.391  0.00  0.00    +0.000 HD
ENDBRANCH   2  13
BRANCH   1  20
ATOM     19  O   UNL     1       1.378  10.813  19.479  0.00  0.00    +0.000 OA
ATOM     20  C   UNL     1       1.253   9.802  18.809  0.00  0.00    +0.000 C 
BRANCH  20  21
ATOM     21  O   UNL     1       0.484   9.819  17.690  0.00  0.00    +0.000 OA
ATOM     22  H   UNL     1       0.992   9.687  16.853  0.00  0.00    +0.000 HD
ENDBRANCH  20  21
ENDBRANCH   1  20
TORSDOF 3
ENDMDL
