MODEL 1
REMARK VINA RESULT:      -6.7      0.000      0.000
REMARK  Name = 
REMARK  5 active torsions:
REMARK  status: ('A' for Active; 'I' for Inactive)
REMARK    1  A    between atoms: C_2  and  O_3
REMARK    2  A    between atoms: C_2  and  C_4
REMARK    3  A    between atoms: C_4  and  C_5
REMARK    4  A    between atoms: C_5  and  C_6
REMARK    5  A    between atoms: N_13  and  O_14
REMARK                            x       y       z     vdW  Elec       q    Type
REMARK                         _______ _______ _______ _____ _____    ______ ____
ROOT
ATOM      1  C   UNL     1       5.970   5.270  17.885  0.00  0.00    +0.000 C 
ATOM      2  N   UNL     1       5.829   5.346  19.181  0.00  0.00    +0.000 NA
ENDROOT
BRANCH   1   4
ATOM      3  O   UNL     1       8.064   4.244  17.276  0.00  0.00    +0.000 OA
ATOM      4  C   UNL     1       7.315   5.194  17.159  0.00  0.00    +0.000 C 
BRANCH   4   5
ATOM      5  O   UNL     1       7.496   6.205  16.296  0.00  0.00    +0.000 OA
ATOM      6  H   UNL     1       8.464   6.304  16.139  0.00  0.00    +0.000 HD
ENDBRANCH   4   5
ENDBRANCH   1   4
BRANCH   2   7
ATOM      7  O   UNL     1       7.035   5.305  19.886  0.00  0.00    +0.000 OA
ATOM      8  H   UNL     1       6.964   6.084  20.475  0.00  0.00    +0.000 HD
ENDBRANCH   2   7
BRANCH   1   9
ATOM      9  C   UNL     1       4.751   5.299  16.993  0.00  0.00    +0.000 C 
BRANCH   9  10
ATOM     10  C   UNL     1       3.653   4.370  17.454  0.00  0.00    +0.000 A 
ATOM     11  C   UNL     1       3.849   2.980  17.450  0.00  0.00    +0.000 A 
ATOM     12  C   UNL     1       2.833   2.123  17.879  0.00  0.00    +0.000 A 
ATOM     13  C   UNL     1       1.620   2.653  18.301  0.00  0.00    +0.000 A 
ATOM     14  F   UNL     1       0.647   1.828  18.709  0.00  0.00    +0.000 F 
ATOM     15  C   UNL     1       1.404   4.025  18.306  0.00  0.00    +0.000 A 
ATOM     16  C   UNL     1       2.418   4.884  17.881  0.00  0.00    +0.000 A 
ENDBRANCH   9  10
ENDBRANCH   1   9
TORSDOF 5
ENDMDL
MODEL 2
REMARK VINA RESULT:      -6.6      0.296      1.316
REMARK  Name = 
REMARK  5 active torsions:
REMARK  status: ('A' for Active; 'I' for Inactive)
REMARK    1  A    between atoms: C_2  and  O_3
REMARK    2  A    between atoms: C_2  and  C_4
REMARK    3  A    between atoms: C_4  and  C_5
REMARK    4  A    between atoms: C_5  and  C_6
REMARK    5  A    between atoms: N_13  and  O_14
REMARK                            x       y       z     vdW  Elec       q    Type
REMARK                         _______ _______ _______ _____ _____    ______ ____
ROOT
ATOM      1  C   UNL     1       6.031   5.461  18.076  0.00  0.00    +0.000 C 
ATOM      2  N   UNL     1       6.012   5.474  19.381  0.00  0.00    +0.000 NA
ENDROOT
BRANCH   1   4
ATOM      3  O   UNL     1       7.983   4.280  17.301  0.00  0.00    +0.000 OA
ATOM      4  C   UNL     1       7.289   5.275  17.226  0.00  0.00    +0.000 C 
BRANCH   4   5
ATOM      5  O   UNL     1       7.448   6.248  16.316  0.00  0.00    +0.000 OA
ATOM      6  H   UNL     1       6.727   6.907  16.443  0.00  0.00    +0.000 HD
ENDBRANCH   4   5
ENDBRANCH   1   4
BRANCH   2   7
ATOM      7  O   UNL     1       7.260   5.253  19.969  0.00  0.00    +0.000 OA
ATOM      8  H   UNL     1       7.654   6.150  19.977  0.00  0.00    +0.000 HD
ENDBRANCH   2   7
BRANCH   1   9
ATOM      9  C   UNL     1       4.751   5.682  17.303  0.00  0.00    +0.000 C 
BRANCH   9  10
ATOM     10  C   UNL     1       3.666   4.690  17.649  0.00  0.00    +0.000 A 
ATOM     11  C   UNL     1       2.469   5.123  18.240  0.00  0.00    +0.000 A 
ATOM     12  C   UNL     1       1.466   4.205  18.557  0.00  0.00    +0.000 A 
ATOM     13  C   UNL     1       1.662   2.855  18.293  0.00  0.00    +0.000 A 
ATOM     14  F   UNL     1       0.700   1.976  18.601  0.00  0.00    +0.000 F 
ATOM     15  C   UNL     1       2.842   2.406  17.715  0.00  0.00    +0.000 A 
ATOM     16  C   UNL     1       3.846   3.321  17.395  0.00  0.00    +0.000 A 
ENDBRANCH   9  10
ENDBRANCH   1   9
TORSDOF 5
ENDMDL
MODEL 3
REMARK VINA RESULT:      -6.4      1.252      2.033
REMARK  Name = 
REMARK  5 active torsions:
REMARK  status: ('A' for Active; 'I' for Inactive)
REMARK    1  A    between atoms: C_2  and  O_3
REMARK    2  A    between atoms: C_2  and  C_4
REMARK    3  A    between atoms: C_4  and  C_5
REMARK    4  A    between atoms: C_5  and  C_6
REMARK    5  A    between atoms: N_13  and  O_14
REMARK                            x       y       z     vdW  Elec       q    Type
REMARK                         _______ _______ _______ _____ _____    ______ ____
ROOT
ATOM      1  C   UNL     1       6.246   4.869  17.663  0.00  0.00    +0.000 C 
ATOM      2  N   UNL     1       7.273   4.591  18.420  0.00  0.00    +0.000 NA
ENDROOT
BRANCH   1   4
ATOM      3  O   UNL     1       6.480   5.534  15.359  0.00  0.00    +0.000 OA
ATOM      4  C   UNL     1       6.198   4.654  16.149  0.00  0.00    +0.000 C 
BRANCH   4   5
ATOM      5  O   UNL     1       5.955   3.379  15.813  0.00  0.00    +0.000 OA
ATOM      6  H   UNL     1       6.815   2.948  15.600  0.00  0.00    +0.000 HD
ENDBRANCH   4   5
ENDBRANCH   1   4
BRANCH   2   7
ATOM      7  O   UNL     1       8.347   4.021  17.732  0.00  0.00    +0.000 OA
ATOM      8  H   UNL     1       8.458   4.627  16.970  0.00  0.00    +0.000 HD
ENDBRANCH   2   7
BRANCH   1   9
ATOM      9  C   UNL     1       5.008   5.486  18.271  0.00  0.00    +0.000 C 
BRANCH   9  10
ATOM     10  C   UNL     1       3.838   4.534  18.340  0.00  0.00    +0.000 A 
ATOM     11  C   UNL     1       2.574   4.926  17.871  0.00  0.00    +0.000 A 
ATOM     12  C   UNL     1       1.494   4.044  17.933  0.00  0.00    +0.000 A 
ATOM     13  C   UNL     1       1.673   2.775  18.471  0.00  0.00    +0.000 A 
ATOM     14  F   UNL     1       0.635   1.932  18.532  0.00  0.00    +0.000 F 
ATOM     15  C   UNL     1       2.914   2.371  18.947  0.00  0.00    +0.000 A 
ATOM     16  C   UNL     1       3.996   3.250  18.884  0.00  0.00    +0.000 A 
ENDBRANCH   9  10
ENDBRANCH   1   9
TORSDOF 5
ENDMDL
MODEL 4
REMARK VINA RESULT:      -6.4      1.151      1.309
REMARK  Name = 
REMARK  5 active torsions:
REMARK  status: ('A' for Active; 'I' for Inactive)
REMARK    1  A    between atoms: C_2  and  O_3
REMARK    2  A    between atoms: C_2  and  C_4
REMARK    3  A    between atoms: C_4  and  C_5
REMARK    4  A    between atoms: C_5  and  C_6
REMARK    5  A    between atoms: N_13  and  O_14
REMARK                            x       y       z     vdW  Elec       q    Type
REMARK                         _______ _______ _______ _____ _____    ______ ____
ROOT
ATOM      1  C   UNL     1       6.059   4.854  16.997  0.00  0.00    +0.000 C 
ATOM      2  N   UNL     1       6.668   4.628  18.129  0.00  0.00    +0.000 NA
ENDROOT
BRANCH   1   4
ATOM      3  O   UNL     1       6.229   3.691  14.893  0.00  0.00    +0.000 OA
ATOM      4  C   UNL     1       6.654   4.571  15.616  0.00  0.00    +0.000 C 
BRANCH   4   5
ATOM      5  O   UNL     1       7.577   5.475  15.254  0.00  0.00    +0.000 OA
ATOM      6  H   UNL     1       8.064   5.757  16.063  0.00  0.00    +0.000 HD
ENDBRANCH   4   5
ENDBRANCH   1   4
BRANCH   2   7
ATOM      7  O   UNL     1       7.930   4.044  17.987  0.00  0.00    +0.000 OA
ATOM      8  H   UNL     1       8.102   4.140  17.028  0.00  0.00    +0.000 HD
ENDBRANCH   2   7
BRANCH   1   9
ATOM      9  C   UNL     1       4.683   5.480  16.995  0.00  0.00    +0.000 C 
BRANCH   9  10
ATOM     10  C   UNL     1       3.600   4.541  17.471  0.00  0.00    +0.000 A 
ATOM     11  C   UNL     1       3.702   3.161  17.235  0.00  0.00    +0.000 A 
ATOM     12  C   UNL     1       2.701   2.293  17.678  0.00  0.00    +0.000 A 
ATOM     13  C   UNL     1       1.596   2.805  18.347  0.00  0.00    +0.000 A 
ATOM     14  F   UNL     1       0.636   1.971  18.768  0.00  0.00    +0.000 F 
ATOM     15  C   UNL     1       1.473   4.167  18.584  0.00  0.00    +0.000 A 
ATOM     16  C   UNL     1       2.473   5.037  18.145  0.00  0.00    +0.000 A 
ENDBRANCH   9  10
ENDBRANCH   1   9
TORSDOF 5
ENDMDL
MODEL 5
REMARK VINA RESULT:      -6.4      1.385      1.938
REMARK  Name = 
REMARK  5 active torsions:
REMARK  status: ('A' for Active; 'I' for Inactive)
REMARK    1  A    between atoms: C_2  and  O_3
REMARK    2  A    between atoms: C_2  and  C_4
REMARK    3  A    between atoms: C_4  and  C_5
REMARK    4  A    between atoms: C_5  and  C_6
REMARK    5  A    between atoms: N_13  and  O_14
REMARK                            x       y       z     vdW  Elec       q    Type
REMARK                         _______ _______ _______ _____ _____    ______ ____
ROOT
ATOM      1  C   UNL     1       6.187   5.346  16.720  0.00  0.00    +0.000 C 
ATOM      2  N   UNL     1       6.406   6.544  16.249  0.00  0.00    +0.000 NA
ENDROOT
BRANCH   1   4
ATOM      3  O   UNL     1       6.679   4.531  18.933  0.00  0.00    +0.000 OA
ATOM      4  C   UNL     1       7.047   4.658  17.781  0.00  0.00    +0.000 C 
BRANCH   4   5
ATOM      5  O   UNL     1       8.157   4.105  17.271  0.00  0.00    +0.000 OA
ATOM      6  H   UNL     1       8.875   4.779  17.298  0.00  0.00    +0.000 HD
ENDBRANCH   4   5
ENDBRANCH   1   4
BRANCH   2   7
ATOM      7  O   UNL     1       7.493   7.195  16.838  0.00  0.00    +0.000 OA
ATOM      8  H   UNL     1       7.439   8.094  16.451  0.00  0.00    +0.000 HD
ENDBRANCH   2   7
BRANCH   1   9
ATOM      9  C   UNL     1       5.039   4.524  16.179  0.00  0.00    +0.000 C 
BRANCH   9  10
ATOM     10  C   UNL     1       3.885   4.404  17.144  0.00  0.00    +0.000 A 
ATOM     11  C   UNL     1       3.300   3.154  17.401  0.00  0.00    +0.000 A 
ATOM     12  C   UNL     1       2.233   3.045  18.296  0.00  0.00    +0.000 A 
ATOM     13  C   UNL     1       1.745   4.183  18.925  0.00  0.00    +0.000 A 
ATOM     14  F   UNL     1       0.720   4.076  19.780  0.00  0.00    +0.000 F 
ATOM     15  C   UNL     1       2.305   5.430  18.678  0.00  0.00    +0.000 A 
ATOM     16  C   UNL     1       3.373   5.542  17.787  0.00  0.00    +0.000 A 
ENDBRANCH   9  10
ENDBRANCH   1   9
TORSDOF 5
ENDMDL
MODEL 6
REMARK VINA RESULT:      -6.2      1.034      1.829
REMARK  Name = 
REMARK  5 active torsions:
REMARK  status: ('A' for Active; 'I' for Inactive)
REMARK    1  A    between atoms: C_2  and  O_3
REMARK    2  A    between atoms: C_2  and  C_4
REMARK    3  A    between atoms: C_4  and  C_5
REMARK    4  A    between atoms: C_5  and  C_6
REMARK    5  A    between atoms: N_13  and  O_14
REMARK                            x       y       z     vdW  Elec       q    Type
REMARK                         _______ _______ _______ _____ _____    ______ ____
ROOT
ATOM      1  C   UNL     1       5.942   4.802  17.583  0.00  0.00    +0.000 C 
ATOM      2  N   UNL     1       6.391   4.354  18.725  0.00  0.00    +0.000 NA
ENDROOT
BRANCH   1   4
ATOM      3  O   UNL     1       5.420   7.112  17.138  0.00  0.00    +0.000 OA
ATOM      4  C   UNL     1       6.217   6.201  17.028  0.00  0.00    +0.000 C 
BRANCH   4   5
ATOM      5  O   UNL     1       7.463   6.331  16.547  0.00  0.00    +0.000 OA
ATOM      6  H   UNL     1       7.545   7.230  16.151  0.00  0.00    +0.000 HD
ENDBRANCH   4   5
ENDBRANCH   1   4
BRANCH   2   7
ATOM      7  O   UNL     1       7.210   5.259  19.406  0.00  0.00    +0.000 OA
ATOM      8  H   UNL     1       7.162   6.058  18.840  0.00  0.00    +0.000 HD
ENDBRANCH   2   7
BRANCH   1   9
ATOM      9  C   UNL     1       5.046   3.930  16.734  0.00  0.00    +0.000 C 
BRANCH   9  10
ATOM     10  C   UNL     1       3.746   3.570  17.412  0.00  0.00    +0.000 A 
ATOM     11  C   UNL     1       2.753   4.542  17.605  0.00  0.00    +0.000 A 
ATOM     12  C   UNL     1       1.550   4.208  18.231  0.00  0.00    +0.000 A 
ATOM     13  C   UNL     1       1.344   2.906  18.672  0.00  0.00    +0.000 A 
ATOM     14  F   UNL     1       0.191   2.588  19.274  0.00  0.00    +0.000 F 
ATOM     15  C   UNL     1       2.317   1.931  18.496  0.00  0.00    +0.000 A 
ATOM     16  C   UNL     1       3.519   2.262  17.869  0.00  0.00    +0.000 A 
ENDBRANCH   9  10
ENDBRANCH   1   9
TORSDOF 5
ENDMDL
MODEL 7
REMARK VINA RESULT:      -6.2      1.674      2.202
REMARK  Name = 
REMARK  5 active torsions:
REMARK  status: ('A' for Active; 'I' for Inactive)
REMARK    1  A    between atoms: C_2  and  O_3
REMARK    2  A    between atoms: C_2  and  C_4
REMARK    3  A    between atoms: C_4  and  C_5
REMARK    4  A    between atoms: C_5  and  C_6
REMARK    5  A    between atoms: N_13  and  O_14
REMARK                            x       y       z     vdW  Elec       q    Type
REMARK                         _______ _______ _______ _____ _____    ______ ____
ROOT
ATOM      1  C   UNL     1       5.557   4.961  16.659  0.00  0.00    +0.000 C 
ATOM      2  N   UNL     1       5.174   6.192  16.450  0.00  0.00    +0.000 NA
ENDROOT
BRANCH   1   4
ATOM      3  O   UNL     1       7.853   4.585  16.034  0.00  0.00    +0.000 OA
ATOM      4  C   UNL     1       7.004   4.530  16.903  0.00  0.00    +0.000 C 
BRANCH   4   5
ATOM      5  O   UNL     1       7.247   4.231  18.187  0.00  0.00    +0.000 OA
ATOM      6  H   UNL     1       6.666   3.476  18.441  0.00  0.00    +0.000 HD
ENDBRANCH   4   5
ENDBRANCH   1   4
BRANCH   2   7
ATOM      7  O   UNL     1       6.210   7.127  16.514  0.00  0.00    +0.000 OA
ATOM      8  H   UNL     1       6.686   6.862  17.328  0.00  0.00    +0.000 HD
ENDBRANCH   2   7
BRANCH   1   9
ATOM      9  C   UNL     1       4.542   3.842  16.624  0.00  0.00    +0.000 C 
BRANCH   9  10
ATOM     10  C   UNL     1       3.520   3.929  17.732  0.00  0.00    +0.000 A 
ATOM     11  C   UNL     1       3.912   4.270  19.036  0.00  0.00    +0.000 A 
ATOM     12  C   UNL     1       2.965   4.353  20.059  0.00  0.00    +0.000 A 
ATOM     13  C   UNL     1       1.630   4.085  19.782  0.00  0.00    +0.000 A 
ATOM     14  F   UNL     1       0.724   4.162  20.765  0.00  0.00    +0.000 F 
ATOM     15  C   UNL     1       1.223   3.739  18.500  0.00  0.00    +0.000 A 
ATOM     16  C   UNL     1       2.166   3.658  17.475  0.00  0.00    +0.000 A 
ENDBRANCH   9  10
ENDBRANCH   1   9
TORSDOF 5
ENDMDL
MODEL 8
REMARK VINA RESULT:      -6.2      1.929      2.316
REMARK  Name = 
REMARK  5 active torsions:
REMARK  status: ('A' for Active; 'I' for Inactive)
REMARK    1  A    between atoms: C_2  and  O_3
REMARK    2  A    between atoms: C_2  and  C_4
REMARK    3  A    between atoms: C_4  and  C_5
REMARK    4  A    between atoms: C_5  and  C_6
REMARK    5  A    between atoms: N_13  and  O_14
REMARK                            x       y       z     vdW  Elec       q    Type
REMARK                         _______ _______ _______ _____ _____    ______ ____
ROOT
ATOM      1  C   UNL     1       6.380   5.297  18.448  0.00  0.00    +0.000 C 
ATOM      2  N   UNL     1       6.679   5.397  19.715  0.00  0.00    +0.000 NA
ENDROOT
BRANCH   1   4
ATOM      3  O   UNL     1       7.851   4.358  16.786  0.00  0.00    +0.000 OA
ATOM      4  C   UNL     1       7.397   5.358  17.306  0.00  0.00    +0.000 C 
BRANCH   4   5
ATOM      5  O   UNL     1       7.611   6.608  16.869  0.00  0.00    +0.000 OA
ATOM      6  H   UNL     1       8.583   6.739  16.779  0.00  0.00    +0.000 HD
ENDBRANCH   4   5
ENDBRANCH   1   4
BRANCH   2   7
ATOM      7  O   UNL     1       8.048   5.522  19.966  0.00  0.00    +0.000 OA
ATOM      8  H   UNL     1       8.225   4.764  20.560  0.00  0.00    +0.000 HD
ENDBRANCH   2   7
BRANCH   1   9
ATOM      9  C   UNL     1       4.936   5.152  18.025  0.00  0.00    +0.000 C 
BRANCH   9  10
ATOM     10  C   UNL     1       4.061   4.540  19.093  0.00  0.00    +0.000 A 
ATOM     11  C   UNL     1       3.130   5.328  19.787  0.00  0.00    +0.000 A 
ATOM     12  C   UNL     1       2.320   4.761  20.772  0.00  0.00    +0.000 A 
ATOM     13  C   UNL     1       2.446   3.410  21.071  0.00  0.00    +0.000 A 
ATOM     14  F   UNL     1       1.670   2.868  22.019  0.00  0.00    +0.000 F 
ATOM     15  C   UNL     1       3.366   2.614  20.401  0.00  0.00    +0.000 A 
ATOM     16  C   UNL     1       4.176   3.178  19.414  0.00  0.00    +0.000 A 
ENDBRANCH   9  10
ENDBRANCH   1   9
TORSDOF 5
ENDMDL
MODEL 9
REMARK VINA RESULT:      -6.2      1.185      1.745
REMARK  Name = 
REMARK  5 active torsions:
REMARK  status: ('A' for Active; 'I' for Inactive)
REMARK    1  A    between atoms: C_2  and  O_3
REMARK    2  A    between atoms: C_2  and  C_4
REMARK    3  A    between atoms: C_4  and  C_5
REMARK    4  A    between atoms: C_5  and  C_6
REMARK    5  A    between atoms: N_13  and  O_14
REMARK                            x       y       z     vdW  Elec       q    Type
REMARK                         _______ _______ _______ _____ _____    ______ ____
ROOT
ATOM      1  C   UNL     1       6.010   5.028  17.089  0.00  0.00    +0.000 C 
ATOM      2  N   UNL     1       6.527   4.814  18.269  0.00  0.00    +0.000 NA
ENDROOT
BRANCH   1   4
ATOM      3  O   UNL     1       6.391   3.780  15.063  0.00  0.00    +0.000 OA
ATOM      4  C   UNL     1       6.711   4.720  15.764  0.00  0.00    +0.000 C 
BRANCH   4   5
ATOM      5  O   UNL     1       7.596   5.666  15.414  0.00  0.00    +0.000 OA
ATOM      6  H   UNL     1       7.337   6.507  15.857  0.00  0.00    +0.000 HD
ENDBRANCH   4   5
ENDBRANCH   1   4
BRANCH   2   7
ATOM      7  O   UNL     1       7.792   4.221  18.236  0.00  0.00    +0.000 OA
ATOM      8  H   UNL     1       7.624   3.340  18.630  0.00  0.00    +0.000 HD
ENDBRANCH   2   7
BRANCH   1   9
ATOM      9  C   UNL     1       4.643   5.661  16.970  0.00  0.00    +0.000 C 
BRANCH   9  10
ATOM     10  C   UNL     1       3.540   4.814  17.559  0.00  0.00    +0.000 A 
ATOM     11  C   UNL     1       2.744   5.309  18.603  0.00  0.00    +0.000 A 
ATOM     12  C   UNL     1       1.723   4.526  19.145  0.00  0.00    +0.000 A 
ATOM     13  C   UNL     1       1.504   3.245  18.651  0.00  0.00    +0.000 A 
ATOM     14  F   UNL     1       0.527   2.495  19.175  0.00  0.00    +0.000 F 
ATOM     15  C   UNL     1       2.286   2.734  17.623  0.00  0.00    +0.000 A 
ATOM     16  C   UNL     1       3.305   3.516  17.078  0.00  0.00    +0.000 A 
ENDBRANCH   9  10
ENDBRANCH   1   9
TORSDOF 5
ENDMDL
