MODEL 1
REMARK VINA RESULT:      -7.6      0.000      0.000
REMARK  Name = 
REMARK  6 active torsions:
REMARK  status: ('A' for Active; 'I' for Inactive)
REMARK    1  A    between atoms: C_2  and  C_3
REMARK    2  A    between atoms: C_3  and  C_4
REMARK    3  A    between atoms: C_4  and  O_5
REMARK    4  A    between atoms: O_5  and  C_6
REMARK    5  A    between atoms: C_9  and  C_10
REMARK    6  A    between atoms: C_14  and  C_15
REMARK                            x       y       z     vdW  Elec       q    Type
REMARK                         _______ _______ _______ _____ _____    ______ ____
ROOT
ATOM      1  C   UNL     1       3.096   5.708  18.835  0.00  0.00    +0.000 A 
ATOM      2  N   UNL     1       2.892   4.604  19.585  0.00  0.00    +0.000 NA
ATOM      3  C   UNL     1       2.126   4.742  20.672  0.00  0.00    +0.000 A 
ATOM      4  C   UNL     1       1.560   5.934  21.041  0.00  0.00    +0.000 A 
ATOM      5  C   UNL     1       1.818   7.021  20.224  0.00  0.00    +0.000 A 
ATOM      6  N   UNL     1       2.577   6.916  19.109  0.00  0.00    +0.000 NA
ENDROOT
BRANCH   5   7
ATOM      7  C   UNL     1       1.281   8.364  20.511  0.00  0.00    +0.000 A 
ATOM      8  C   UNL     1       1.167   9.343  19.504  0.00  0.00    +0.000 A 
ATOM      9  C   UNL     1       0.680  10.622  19.787  0.00  0.00    +0.000 A 
ATOM     10  C   UNL     1       0.291  10.932  21.082  0.00  0.00    +0.000 A 
ATOM     11  F   UNL     1      -0.172  12.158  21.355  0.00  0.00    +0.000 F 
ATOM     12  C   UNL     1       0.373   9.987  22.097  0.00  0.00    +0.000 A 
ATOM     13  C   UNL     1       0.862   8.711  21.811  0.00  0.00    +0.000 A 
ENDBRANCH   5   7
BRANCH   1  17
ATOM     14  C   UNL     1       5.628   5.372  15.355  0.00  0.00    +0.000 A 
ATOM     15  C   UNL     1       5.283   6.611  15.888  0.00  0.00    +0.000 A 
ATOM     16  C   UNL     1       4.473   6.700  17.017  0.00  0.00    +0.000 A 
ATOM     17  C   UNL     1       3.970   5.556  17.659  0.00  0.00    +0.000 A 
ATOM     18  C   UNL     1       4.330   4.308  17.116  0.00  0.00    +0.000 A 
ATOM     19  C   UNL     1       5.149   4.216  15.977  0.00  0.00    +0.000 A 
BRANCH  14  20
ATOM     20  O   UNL     1       6.417   5.192  14.245  0.00  0.00    +0.000 OA
BRANCH  20  21
ATOM     21  C   UNL     1       6.487   3.837  13.794  0.00  0.00    +0.000 C 
BRANCH  21  22
ATOM     22  C   UNL     1       6.483   3.767  12.276  0.00  0.00    +0.000 C 
BRANCH  22  24
ATOM     23  F   UNL     1       4.254   3.496  11.591  0.00  0.00    +0.000 F 
ATOM     24  C   UNL     1       5.403   2.804  11.820  0.00  0.00    +0.000 C 
ENDBRANCH  22  24
ENDBRANCH  21  22
ENDBRANCH  20  21
ENDBRANCH  14  20
ENDBRANCH   1  17
TORSDOF 6
ENDMDL
MODEL 2
REMARK VINA RESULT:      -7.5      0.822      1.314
REMARK  Name = 
REMARK  6 active torsions:
REMARK  status: ('A' for Active; 'I' for Inactive)
REMARK    1  A    between atoms: C_2  and  C_3
REMARK    2  A    between atoms: C_3  and  C_4
REMARK    3  A    between atoms: C_4  and  O_5
REMARK    4  A    between atoms: O_5  and  C_6
REMARK    5  A    between atoms: C_9  and  C_10
REMARK    6  A    between atoms: C_14  and  C_15
REMARK                            x       y       z     vdW  Elec       q    Type
REMARK                         _______ _______ _______ _____ _____    ______ ____
ROOT
ATOM      1  C   UNL     1       3.592   5.630  18.912  0.00  0.00    +0.000 A 
ATOM      2  N   UNL     1       3.287   4.518  19.615  0.00  0.00    +0.000 NA
ATOM      3  C   UNL     1       2.342   4.633  20.553  0.00  0.00    +0.000 A 
ATOM      4  C   UNL     1       1.694   5.810  20.821  0.00  0.00    +0.000 A 
ATOM      5  C   UNL     1       2.065   6.907  20.063  0.00  0.00    +0.000 A 
ATOM      6  N   UNL     1       3.007   6.825  19.095  0.00  0.00    +0.000 NA
ENDROOT
BRANCH   5   7
ATOM      7  C   UNL     1       1.456   8.237  20.255  0.00  0.00    +0.000 A 
ATOM      8  C   UNL     1       0.954   8.645  21.507  0.00  0.00    +0.000 A 
ATOM      9  C   UNL     1       0.356   9.896  21.675  0.00  0.00    +0.000 A 
ATOM     10  C   UNL     1       0.264  10.759  20.594  0.00  0.00    +0.000 A 
ATOM     11  F   UNL     1      -0.312  11.958  20.754  0.00  0.00    +0.000 F 
ATOM     12  C   UNL     1       0.764  10.399  19.349  0.00  0.00    +0.000 A 
ATOM     13  C   UNL     1       1.359   9.147  19.183  0.00  0.00    +0.000 A 
ENDBRANCH   5   7
BRANCH   1  17
ATOM     14  C   UNL     1       6.646   5.304  15.879  0.00  0.00    +0.000 A 
ATOM     15  C   UNL     1       5.590   6.204  15.756  0.00  0.00    +0.000 A 
ATOM     16  C   UNL     1       4.619   6.302  16.749  0.00  0.00    +0.000 A 
ATOM     17  C   UNL     1       4.659   5.504  17.904  0.00  0.00    +0.000 A 
ATOM     18  C   UNL     1       5.734   4.603  18.023  0.00  0.00    +0.000 A 
ATOM     19  C   UNL     1       6.716   4.503  17.021  0.00  0.00    +0.000 A 
BRANCH  14  20
ATOM     20  O   UNL     1       7.643   5.139  14.948  0.00  0.00    +0.000 OA
BRANCH  20  21
ATOM     21  C   UNL     1       7.166   4.948  13.614  0.00  0.00    +0.000 C 
BRANCH  21  22
ATOM     22  C   UNL     1       6.169   3.804  13.550  0.00  0.00    +0.000 C 
BRANCH  22  24
ATOM     23  F   UNL     1       4.815   2.981  11.818  0.00  0.00    +0.000 F 
ATOM     24  C   UNL     1       6.107   3.270  12.131  0.00  0.00    +0.000 C 
ENDBRANCH  22  24
ENDBRANCH  21  22
ENDBRANCH  20  21
ENDBRANCH  14  20
ENDBRANCH   1  17
TORSDOF 6
ENDMDL
MODEL 3
REMARK VINA RESULT:      -7.4      0.745      1.584
REMARK  Name = 
REMARK  6 active torsions:
REMARK  status: ('A' for Active; 'I' for Inactive)
REMARK    1  A    between atoms: C_2  and  C_3
REMARK    2  A    between atoms: C_3  and  C_4
REMARK    3  A    between atoms: C_4  and  O_5
REMARK    4  A    between atoms: O_5  and  C_6
REMARK    5  A    between atoms: C_9  and  C_10
REMARK    6  A    between atoms: C_14  and  C_15
REMARK                            x       y       z     vdW  Elec       q    Type
REMARK                         _______ _______ _______ _____ _____    ______ ____
ROOT
ATOM      1  C   UNL     1       3.451   5.329  18.473  0.00  0.00    +0.000 A 
ATOM      2  N   UNL     1       3.291   4.244  19.260  0.00  0.00    +0.000 NA
ATOM      3  C   UNL     1       2.557   4.398  20.365  0.00  0.00    +0.000 A 
ATOM      4  C   UNL     1       1.980   5.590  20.719  0.00  0.00    +0.000 A 
ATOM      5  C   UNL     1       2.193   6.658  19.865  0.00  0.00    +0.000 A 
ATOM      6  N   UNL     1       2.919   6.535  18.729  0.00  0.00    +0.000 NA
ENDROOT
BRANCH   5   7
ATOM      7  C   UNL     1       1.640   7.999  20.131  0.00  0.00    +0.000 A 
ATOM      8  C   UNL     1       1.232   8.386  21.423  0.00  0.00    +0.000 A 
ATOM      9  C   UNL     1       0.686   9.649  21.663  0.00  0.00    +0.000 A 
ATOM     10  C   UNL     1       0.552  10.545  20.613  0.00  0.00    +0.000 A 
ATOM     11  F   UNL     1       0.025  11.755  20.842  0.00  0.00    +0.000 F 
ATOM     12  C   UNL     1       0.959  10.205  19.329  0.00  0.00    +0.000 A 
ATOM     13  C   UNL     1       1.502   8.941  19.092  0.00  0.00    +0.000 A 
ENDBRANCH   5   7
BRANCH   1  17
ATOM     14  C   UNL     1       5.956   4.734  15.007  0.00  0.00    +0.000 A 
ATOM     15  C   UNL     1       5.553   3.667  15.807  0.00  0.00    +0.000 A 
ATOM     16  C   UNL     1       4.737   3.877  16.916  0.00  0.00    +0.000 A 
ATOM     17  C   UNL     1       4.292   5.160  17.275  0.00  0.00    +0.000 A 
ATOM     18  C   UNL     1       4.699   6.231  16.456  0.00  0.00    +0.000 A 
ATOM     19  C   UNL     1       5.522   6.021  15.336  0.00  0.00    +0.000 A 
BRANCH  14  20
ATOM     20  O   UNL     1       6.761   4.619  13.901  0.00  0.00    +0.000 OA
BRANCH  20  21
ATOM     21  C   UNL     1       6.359   3.589  12.994  0.00  0.00    +0.000 C 
BRANCH  21  22
ATOM     22  C   UNL     1       5.026   3.922  12.347  0.00  0.00    +0.000 C 
BRANCH  22  24
ATOM     23  F   UNL     1       3.449   3.114  10.807  0.00  0.00    +0.000 F 
ATOM     24  C   UNL     1       4.640   2.809  11.390  0.00  0.00    +0.000 C 
ENDBRANCH  22  24
ENDBRANCH  21  22
ENDBRANCH  20  21
ENDBRANCH  14  20
ENDBRANCH   1  17
TORSDOF 6
ENDMDL
MODEL 4
REMARK VINA RESULT:      -7.2      2.894      8.285
REMARK  Name = 
REMARK  6 active torsions:
REMARK  status: ('A' for Active; 'I' for Inactive)
REMARK    1  A    between atoms: C_2  and  C_3
REMARK    2  A    between atoms: C_3  and  C_4
REMARK    3  A    between atoms: C_4  and  O_5
REMARK    4  A    between atoms: O_5  and  C_6
REMARK    5  A    between atoms: C_9  and  C_10
REMARK    6  A    between atoms: C_14  and  C_15
REMARK                            x       y       z     vdW  Elec       q    Type
REMARK                         _______ _______ _______ _____ _____    ______ ____
ROOT
ATOM      1  C   UNL     1       3.211   6.142  18.859  0.00  0.00    +0.000 A 
ATOM      2  N   UNL     1       3.152   5.182  19.806  0.00  0.00    +0.000 NA
ATOM      3  C   UNL     1       3.857   4.068  19.586  0.00  0.00    +0.000 A 
ATOM      4  C   UNL     1       4.614   3.872  18.460  0.00  0.00    +0.000 A 
ATOM      5  C   UNL     1       4.620   4.899  17.533  0.00  0.00    +0.000 A 
ATOM      6  N   UNL     1       3.930   6.047  17.729  0.00  0.00    +0.000 NA
ENDROOT
BRANCH   5   7
ATOM      7  C   UNL     1       5.383   4.816  16.273  0.00  0.00    +0.000 A 
ATOM      8  C   UNL     1       4.830   4.238  15.113  0.00  0.00    +0.000 A 
ATOM      9  C   UNL     1       5.566   4.139  13.930  0.00  0.00    +0.000 A 
ATOM     10  C   UNL     1       6.864   4.629  13.892  0.00  0.00    +0.000 A 
ATOM     11  F   UNL     1       7.571   4.531  12.759  0.00  0.00    +0.000 F 
ATOM     12  C   UNL     1       7.437   5.220  15.010  0.00  0.00    +0.000 A 
ATOM     13  C   UNL     1       6.698   5.315  16.192  0.00  0.00    +0.000 A 
ENDBRANCH   5   7
BRANCH   1  17
ATOM     14  C   UNL     1       0.789   9.632  19.627  0.00  0.00    +0.000 A 
ATOM     15  C   UNL     1       1.038   8.685  20.618  0.00  0.00    +0.000 A 
ATOM     16  C   UNL     1       1.830   7.570  20.354  0.00  0.00    +0.000 A 
ATOM     17  C   UNL     1       2.403   7.352  19.091  0.00  0.00    +0.000 A 
ATOM     18  C   UNL     1       2.151   8.318  18.098  0.00  0.00    +0.000 A 
ATOM     19  C   UNL     1       1.353   9.444  18.362  0.00  0.00    +0.000 A 
BRANCH  14  20
ATOM     20  O   UNL     1       0.019  10.756  19.798  0.00  0.00    +0.000 OA
BRANCH  20  21
ATOM     21  C   UNL     1      -0.493  11.302  18.580  0.00  0.00    +0.000 C 
BRANCH  21  22
ATOM     22  C   UNL     1      -1.994  11.090  18.475  0.00  0.00    +0.000 C 
BRANCH  22  24
ATOM     23  F   UNL     1      -3.205   9.158  17.920  0.00  0.00    +0.000 F 
ATOM     24  C   UNL     1      -2.280  10.028  17.431  0.00  0.00    +0.000 C 
ENDBRANCH  22  24
ENDBRANCH  21  22
ENDBRANCH  20  21
ENDBRANCH  14  20
ENDBRANCH   1  17
TORSDOF 6
ENDMDL
MODEL 5
REMARK VINA RESULT:      -7.2      2.940      8.268
REMARK  Name = 
REMARK  6 active torsions:
REMARK  status: ('A' for Active; 'I' for Inactive)
REMARK    1  A    between atoms: C_2  and  C_3
REMARK    2  A    between atoms: C_3  and  C_4
REMARK    3  A    between atoms: C_4  and  O_5
REMARK    4  A    between atoms: O_5  and  C_6
REMARK    5  A    between atoms: C_9  and  C_10
REMARK    6  A    between atoms: C_14  and  C_15
REMARK                            x       y       z     vdW  Elec       q    Type
REMARK                         _______ _______ _______ _____ _____    ______ ____
ROOT
ATOM      1  C   UNL     1       2.322   6.940  19.479  0.00  0.00    +0.000 A 
ATOM      2  N   UNL     1       2.028   6.051  20.452  0.00  0.00    +0.000 NA
ATOM      3  C   UNL     1       2.574   4.836  20.349  0.00  0.00    +0.000 A 
ATOM      4  C   UNL     1       3.395   4.470  19.315  0.00  0.00    +0.000 A 
ATOM      5  C   UNL     1       3.646   5.434  18.354  0.00  0.00    +0.000 A 
ATOM      6  N   UNL     1       3.122   6.680  18.433  0.00  0.00    +0.000 NA
ENDROOT
BRANCH   5   7
ATOM      7  C   UNL     1       4.503   5.172  17.182  0.00  0.00    +0.000 A 
ATOM      8  C   UNL     1       4.925   6.211  16.329  0.00  0.00    +0.000 A 
ATOM      9  C   UNL     1       5.716   5.952  15.208  0.00  0.00    +0.000 A 
ATOM     10  C   UNL     1       6.104   4.649  14.933  0.00  0.00    +0.000 A 
ATOM     11  F   UNL     1       6.860   4.400  13.856  0.00  0.00    +0.000 F 
ATOM     12  C   UNL     1       5.722   3.601  15.761  0.00  0.00    +0.000 A 
ATOM     13  C   UNL     1       4.929   3.863  16.880  0.00  0.00    +0.000 A 
ENDBRANCH   5   7
BRANCH   1  17
ATOM     14  C   UNL     1       0.400  10.786  19.864  0.00  0.00    +0.000 A 
ATOM     15  C   UNL     1       0.463   9.893  20.931  0.00  0.00    +0.000 A 
ATOM     16  C   UNL     1       1.096   8.661  20.791  0.00  0.00    +0.000 A 
ATOM     17  C   UNL     1       1.688   8.267  19.581  0.00  0.00    +0.000 A 
ATOM     18  C   UNL     1       1.625   9.179  18.510  0.00  0.00    +0.000 A 
ATOM     19  C   UNL     1       0.988  10.424  18.650  0.00  0.00    +0.000 A 
BRANCH  14  20
ATOM     20  O   UNL     1      -0.206  12.018  19.913  0.00  0.00    +0.000 OA
BRANCH  20  21
ATOM     21  C   UNL     1      -0.954  12.345  18.739  0.00  0.00    +0.000 C 
BRANCH  21  22
ATOM     22  C   UNL     1      -2.392  11.872  18.859  0.00  0.00    +0.000 C 
BRANCH  22  24
ATOM     23  F   UNL     1      -2.356   9.648  18.108  0.00  0.00    +0.000 F 
ATOM     24  C   UNL     1      -2.700  10.908  17.728  0.00  0.00    +0.000 C 
ENDBRANCH  22  24
ENDBRANCH  21  22
ENDBRANCH  20  21
ENDBRANCH  14  20
ENDBRANCH   1  17
TORSDOF 6
ENDMDL
MODEL 6
REMARK VINA RESULT:      -7.2      2.550      8.811
REMARK  Name = 
REMARK  6 active torsions:
REMARK  status: ('A' for Active; 'I' for Inactive)
REMARK    1  A    between atoms: C_2  and  C_3
REMARK    2  A    between atoms: C_3  and  C_4
REMARK    3  A    between atoms: C_4  and  O_5
REMARK    4  A    between atoms: O_5  and  C_6
REMARK    5  A    between atoms: C_9  and  C_10
REMARK    6  A    between atoms: C_14  and  C_15
REMARK                            x       y       z     vdW  Elec       q    Type
REMARK                         _______ _______ _______ _____ _____    ______ ____
ROOT
ATOM      1  C   UNL     1       3.291   5.662  18.406  0.00  0.00    +0.000 A 
ATOM      2  N   UNL     1       3.096   4.580  19.190  0.00  0.00    +0.000 NA
ATOM      3  C   UNL     1       3.709   3.449  18.828  0.00  0.00    +0.000 A 
ATOM      4  C   UNL     1       4.503   3.352  17.715  0.00  0.00    +0.000 A 
ATOM      5  C   UNL     1       4.651   4.502  16.959  0.00  0.00    +0.000 A 
ATOM      6  N   UNL     1       4.057   5.669  17.303  0.00  0.00    +0.000 NA
ENDROOT
BRANCH   5   7
ATOM      7  C   UNL     1       5.468   4.536  15.731  0.00  0.00    +0.000 A 
ATOM      8  C   UNL     1       6.711   5.199  15.691  0.00  0.00    +0.000 A 
ATOM      9  C   UNL     1       7.468   5.248  14.518  0.00  0.00    +0.000 A 
ATOM     10  C   UNL     1       6.995   4.623  13.374  0.00  0.00    +0.000 A 
ATOM     11  F   UNL     1       7.719   4.673  12.248  0.00  0.00    +0.000 F 
ATOM     12  C   UNL     1       5.783   3.945  13.380  0.00  0.00    +0.000 A 
ATOM     13  C   UNL     1       5.027   3.900  14.554  0.00  0.00    +0.000 A 
ENDBRANCH   5   7
BRANCH   1  17
ATOM     14  C   UNL     1       1.273   9.332  19.449  0.00  0.00    +0.000 A 
ATOM     15  C   UNL     1       1.766   9.112  18.166  0.00  0.00    +0.000 A 
ATOM     16  C   UNL     1       2.406   7.917  17.845  0.00  0.00    +0.000 A 
ATOM     17  C   UNL     1       2.584   6.895  18.791  0.00  0.00    +0.000 A 
ATOM     18  C   UNL     1       2.076   7.125  20.084  0.00  0.00    +0.000 A 
ATOM     19  C   UNL     1       1.428   8.330  20.410  0.00  0.00    +0.000 A 
BRANCH  14  20
ATOM     20  O   UNL     1       0.634  10.479  19.853  0.00  0.00    +0.000 OA
BRANCH  20  21
ATOM     21  C   UNL     1       0.742  10.743  21.254  0.00  0.00    +0.000 C 
BRANCH  21  22
ATOM     22  C   UNL     1      -0.617  11.055  21.856  0.00  0.00    +0.000 C 
BRANCH  22  24
ATOM     23  F   UNL     1       0.344   9.564  23.394  0.00  0.00    +0.000 F 
ATOM     24  C   UNL     1      -0.808  10.233  23.117  0.00  0.00    +0.000 C 
ENDBRANCH  22  24
ENDBRANCH  21  22
ENDBRANCH  20  21
ENDBRANCH  14  20
ENDBRANCH   1  17
TORSDOF 6
ENDMDL
MODEL 7
REMARK VINA RESULT:      -7.1      1.185      1.659
REMARK  Name = 
REMARK  6 active torsions:
REMARK  status: ('A' for Active; 'I' for Inactive)
REMARK    1  A    between atoms: C_2  and  C_3
REMARK    2  A    between atoms: C_3  and  C_4
REMARK    3  A    between atoms: C_4  and  O_5
REMARK    4  A    between atoms: O_5  and  C_6
REMARK    5  A    between atoms: C_9  and  C_10
REMARK    6  A    between atoms: C_14  and  C_15
REMARK                            x       y       z     vdW  Elec       q    Type
REMARK                         _______ _______ _______ _____ _____    ______ ____
ROOT
ATOM      1  C   UNL     1       3.240   5.461  18.791  0.00  0.00    +0.000 A 
ATOM      2  N   UNL     1       2.925   4.360  19.507  0.00  0.00    +0.000 NA
ATOM      3  C   UNL     1       2.092   4.525  20.539  0.00  0.00    +0.000 A 
ATOM      4  C   UNL     1       1.565   5.741  20.888  0.00  0.00    +0.000 A 
ATOM      5  C   UNL     1       1.939   6.823  20.110  0.00  0.00    +0.000 A 
ATOM      6  N   UNL     1       2.769   6.692  19.048  0.00  0.00    +0.000 NA
ENDROOT
BRANCH   5   7
ATOM      7  C   UNL     1       1.455   8.190  20.380  0.00  0.00    +0.000 A 
ATOM      8  C   UNL     1       1.316   9.141  19.349  0.00  0.00    +0.000 A 
ATOM      9  C   UNL     1       0.881  10.441  19.617  0.00  0.00    +0.000 A 
ATOM     10  C   UNL     1       0.568  10.802  20.919  0.00  0.00    +0.000 A 
ATOM     11  F   UNL     1       0.154  12.049  21.176  0.00  0.00    +0.000 F 
ATOM     12  C   UNL     1       0.675   9.886  21.958  0.00  0.00    +0.000 A 
ATOM     13  C   UNL     1       1.113   8.588  21.688  0.00  0.00    +0.000 A 
ENDBRANCH   5   7
BRANCH   1  17
ATOM     14  C   UNL     1       6.041   4.819  15.570  0.00  0.00    +0.000 A 
ATOM     15  C   UNL     1       5.465   3.754  16.258  0.00  0.00    +0.000 A 
ATOM     16  C   UNL     1       4.556   3.980  17.288  0.00  0.00    +0.000 A 
ATOM     17  C   UNL     1       4.187   5.278  17.677  0.00  0.00    +0.000 A 
ATOM     18  C   UNL     1       4.769   6.348  16.971  0.00  0.00    +0.000 A 
ATOM     19  C   UNL     1       5.687   6.121  15.931  0.00  0.00    +0.000 A 
BRANCH  14  20
ATOM     20  O   UNL     1       6.948   4.688  14.547  0.00  0.00    +0.000 OA
BRANCH  20  21
ATOM     21  C   UNL     1       6.449   3.969  13.416  0.00  0.00    +0.000 C 
BRANCH  21  22
ATOM     22  C   UNL     1       7.130   4.425  12.137  0.00  0.00    +0.000 C 
BRANCH  22  24
ATOM     23  F   UNL     1       8.000   6.526  11.556  0.00  0.00    +0.000 F 
ATOM     24  C   UNL     1       8.130   5.519  12.462  0.00  0.00    +0.000 C 
ENDBRANCH  22  24
ENDBRANCH  21  22
ENDBRANCH  20  21
ENDBRANCH  14  20
ENDBRANCH   1  17
TORSDOF 6
ENDMDL
MODEL 8
REMARK VINA RESULT:      -7.1      2.793      8.289
REMARK  Name = 
REMARK  6 active torsions:
REMARK  status: ('A' for Active; 'I' for Inactive)
REMARK    1  A    between atoms: C_2  and  C_3
REMARK    2  A    between atoms: C_3  and  C_4
REMARK    3  A    between atoms: C_4  and  O_5
REMARK    4  A    between atoms: O_5  and  C_6
REMARK    5  A    between atoms: C_9  and  C_10
REMARK    6  A    between atoms: C_14  and  C_15
REMARK                            x       y       z     vdW  Elec       q    Type
REMARK                         _______ _______ _______ _____ _____    ______ ____
ROOT
ATOM      1  C   UNL     1       3.243   6.218  18.825  0.00  0.00    +0.000 A 
ATOM      2  N   UNL     1       3.223   5.303  19.818  0.00  0.00    +0.000 NA
ATOM      3  C   UNL     1       3.960   4.202  19.645  0.00  0.00    +0.000 A 
ATOM      4  C   UNL     1       4.711   3.975  18.521  0.00  0.00    +0.000 A 
ATOM      5  C   UNL     1       4.677   4.956  17.545  0.00  0.00    +0.000 A 
ATOM      6  N   UNL     1       3.954   6.090  17.693  0.00  0.00    +0.000 NA
ENDROOT
BRANCH   5   7
ATOM      7  C   UNL     1       5.429   4.834  16.282  0.00  0.00    +0.000 A 
ATOM      8  C   UNL     1       6.722   5.378  16.139  0.00  0.00    +0.000 A 
ATOM      9  C   UNL     1       7.419   5.281  14.932  0.00  0.00    +0.000 A 
ATOM     10  C   UNL     1       6.834   4.628  13.857  0.00  0.00    +0.000 A 
ATOM     11  F   UNL     1       7.500   4.538  12.699  0.00  0.00    +0.000 F 
ATOM     12  C   UNL     1       5.569   4.065  13.967  0.00  0.00    +0.000 A 
ATOM     13  C   UNL     1       4.874   4.165  15.174  0.00  0.00    +0.000 A 
ENDBRANCH   5   7
BRANCH   1  17
ATOM     14  C   UNL     1       0.824   9.765  19.268  0.00  0.00    +0.000 A 
ATOM     15  C   UNL     1       1.365   9.401  18.037  0.00  0.00    +0.000 A 
ATOM     16  C   UNL     1       2.135   8.248  17.911  0.00  0.00    +0.000 A 
ATOM     17  C   UNL     1       2.400   7.413  19.008  0.00  0.00    +0.000 A 
ATOM     18  C   UNL     1       1.843   7.786  20.247  0.00  0.00    +0.000 A 
ATOM     19  C   UNL     1       1.065   8.949  20.375  0.00  0.00    +0.000 A 
BRANCH  14  20
ATOM     20  O   UNL     1       0.058  10.885  19.482  0.00  0.00    +0.000 OA
BRANCH  20  21
ATOM     21  C   UNL     1       0.814  12.052  19.817  0.00  0.00    +0.000 C 
BRANCH  21  22
ATOM     22  C   UNL     1       0.924  12.989  18.626  0.00  0.00    +0.000 C 
BRANCH  22  24
ATOM     23  F   UNL     1       3.006  12.223  17.858  0.00  0.00    +0.000 F 
ATOM     24  C   UNL     1       2.385  13.317  18.377  0.00  0.00    +0.000 C 
ENDBRANCH  22  24
ENDBRANCH  21  22
ENDBRANCH  20  21
ENDBRANCH  14  20
ENDBRANCH   1  17
TORSDOF 6
ENDMDL
MODEL 9
REMARK VINA RESULT:      -7.0      2.938      8.483
REMARK  Name = 
REMARK  6 active torsions:
REMARK  status: ('A' for Active; 'I' for Inactive)
REMARK    1  A    between atoms: C_2  and  C_3
REMARK    2  A    between atoms: C_3  and  C_4
REMARK    3  A    between atoms: C_4  and  O_5
REMARK    4  A    between atoms: O_5  and  C_6
REMARK    5  A    between atoms: C_9  and  C_10
REMARK    6  A    between atoms: C_14  and  C_15
REMARK                            x       y       z     vdW  Elec       q    Type
REMARK                         _______ _______ _______ _____ _____    ______ ____
ROOT
ATOM      1  C   UNL     1       3.364   6.216  18.683  0.00  0.00    +0.000 A 
ATOM      2  N   UNL     1       3.374   5.321  19.694  0.00  0.00    +0.000 NA
ATOM      3  C   UNL     1       4.117   4.224  19.527  0.00  0.00    +0.000 A 
ATOM      4  C   UNL     1       4.847   3.981  18.392  0.00  0.00    +0.000 A 
ATOM      5  C   UNL     1       4.782   4.942  17.398  0.00  0.00    +0.000 A 
ATOM      6  N   UNL     1       4.051   6.073  17.539  0.00  0.00    +0.000 NA
ENDROOT
BRANCH   5   7
ATOM      7  C   UNL     1       5.508   4.803  16.122  0.00  0.00    +0.000 A 
ATOM      8  C   UNL     1       6.814   5.307  15.958  0.00  0.00    +0.000 A 
ATOM      9  C   UNL     1       7.487   5.194  14.739  0.00  0.00    +0.000 A 
ATOM     10  C   UNL     1       6.864   4.563  13.672  0.00  0.00    +0.000 A 
ATOM     11  F   UNL     1       7.507   4.457  12.502  0.00  0.00    +0.000 F 
ATOM     12  C   UNL     1       5.584   4.038  13.801  0.00  0.00    +0.000 A 
ATOM     13  C   UNL     1       4.913   4.155  15.021  0.00  0.00    +0.000 A 
ENDBRANCH   5   7
BRANCH   1  17
ATOM     14  C   UNL     1       0.821   9.650  19.294  0.00  0.00    +0.000 A 
ATOM     15  C   UNL     1       1.113   8.767  20.331  0.00  0.00    +0.000 A 
ATOM     16  C   UNL     1       1.944   7.670  20.117  0.00  0.00    +0.000 A 
ATOM     17  C   UNL     1       2.513   7.406  18.861  0.00  0.00    +0.000 A 
ATOM     18  C   UNL     1       2.217   8.309  17.822  0.00  0.00    +0.000 A 
ATOM     19  C   UNL     1       1.379   9.418  18.035  0.00  0.00    +0.000 A 
BRANCH  14  20
ATOM     20  O   UNL     1       0.010  10.753  19.415  0.00  0.00    +0.000 OA
BRANCH  20  21
ATOM     21  C   UNL     1      -0.912  10.918  18.335  0.00  0.00    +0.000 C 
BRANCH  21  22
ATOM     22  C   UNL     1      -2.247  11.443  18.835  0.00  0.00    +0.000 C 
BRANCH  22  24
ATOM     23  F   UNL     1      -3.492   9.700  17.875  0.00  0.00    +0.000 F 
ATOM     24  C   UNL     1      -3.339  11.052  17.857  0.00  0.00    +0.000 C 
ENDBRANCH  22  24
ENDBRANCH  21  22
ENDBRANCH  20  21
ENDBRANCH  14  20
ENDBRANCH   1  17
TORSDOF 6
ENDMDL
