MODEL 1
REMARK VINA RESULT:      -7.8      0.000      0.000
REMARK  Name = 
REMARK  9 active torsions:
REMARK  status: ('A' for Active; 'I' for Inactive)
REMARK    1  A    between atoms: C_1  and  N_2
REMARK    2  A    between atoms: N_2  and  C_3
REMARK    3  A    between atoms: N_2  and  C_4
REMARK    4  A    between atoms: C_4  and  C_5
REMARK    5  A    between atoms: C_5  and  N_6
REMARK    6  A    between atoms: C_7  and  N_8
REMARK    7  A    between atoms: C_9  and  C_10
REMARK    8  A    between atoms: C_22  and  C_23
REMARK    9  A    between atoms: C_25  and  C_26
REMARK                            x       y       z     vdW  Elec       q    Type
REMARK                         _______ _______ _______ _____ _____    ______ ____
ROOT
ATOM      1  N   UNL     1       3.674   6.637  17.800  0.00  0.00    +0.000 N 
ATOM      2  C   UNL     1       2.959   7.747  18.196  0.00  0.00    +0.000 A 
ATOM      3  C   UNL     1       2.244   7.416  19.342  0.00  0.00    +0.000 A 
ATOM      4  C   UNL     1       2.519   6.043  19.629  0.00  0.00    +0.000 A 
ATOM      5  N   UNL     1       2.075   5.195  20.608  0.00  0.00    +0.000 NA
ATOM      6  C   UNL     1       2.590   3.922  20.491  0.00  0.00    +0.000 A 
ATOM      7  C   UNL     1       3.487   3.515  19.509  0.00  0.00    +0.000 A 
ATOM      8  N   UNL     1       3.946   4.359  18.558  0.00  0.00    +0.000 NA
ATOM      9  C   UNL     1       3.418   5.598  18.660  0.00  0.00    +0.000 A 
ENDROOT
BRANCH   3  10
ATOM     10  C   UNL     1       1.372   8.383  20.098  0.00  0.00    +0.000 A 
ATOM     11  N   UNL     1       0.926   9.539  19.629  0.00  0.00    +0.000 NA
ATOM     12  C   UNL     1       0.222  10.127  20.660  0.00  0.00    +0.000 A 
ATOM     13  C   UNL     1      -0.458  11.355  20.712  0.00  0.00    +0.000 A 
ATOM     14  C   UNL     1      -1.066  11.730  21.916  0.00  0.00    +0.000 A 
ATOM     15 CL   UNL     1      -1.919  13.227  22.010  0.00  0.00    +0.000 Cl
ATOM     16  C   UNL     1      -0.997  10.917  23.049  0.00  0.00    +0.000 A 
ATOM     17  C   UNL     1      -0.339   9.681  23.008  0.00  0.00    +0.000 A 
ATOM     18  C   UNL     1       0.248   9.317  21.790  0.00  0.00    +0.000 A 
ATOM     19  N   UNL     1       0.942   8.199  21.395  0.00  0.00    +0.000 N 
ATOM     20  H   UNL     1       1.140   7.385  21.955  0.00  0.00    +0.000 HD
ENDBRANCH   3  10
BRANCH   2  21
ATOM     21  N   UNL     1       3.023   8.918  17.532  0.00  0.00    +0.000 N 
ATOM     22  H   UNL     1       2.759   9.830  17.886  0.00  0.00    +0.000 HD
ATOM     23  H   UNL     1       3.403   8.931  16.579  0.00  0.00    +0.000 HD
ENDBRANCH   2  21
BRANCH   6  24
ATOM     24  C   UNL     1       2.130   2.982  21.469  0.00  0.00    +0.000 C 
ATOM     25  N   UNL     1       1.731   2.258  22.285  0.00  0.00    +0.000 NA
ENDBRANCH   6  24
BRANCH   7  26
ATOM     26  C   UNL     1       3.987   2.164  19.411  0.00  0.00    +0.000 C 
ATOM     27  N   UNL     1       4.375   1.075  19.347  0.00  0.00    +0.000 NA
ENDBRANCH   7  26
BRANCH   1  28
ATOM     28  C   UNL     1       4.600   6.519  16.683  0.00  0.00    +0.000 C 
BRANCH  28  29
ATOM     29  C   UNL     1       6.061   6.785  17.090  0.00  0.00    +0.000 C 
BRANCH  29  31
ATOM     30  C   UNL     1       7.468   4.880  17.487  0.00  0.00    +0.000 C 
ATOM     31  N   UNL     1       7.039   5.861  16.484  0.00  0.00    +0.000 NA
ATOM     32  C   UNL     1       6.504   5.172  15.312  0.00  0.00    +0.000 C 
ENDBRANCH  29  31
ENDBRANCH  28  29
ENDBRANCH   1  28
TORSDOF 7
ENDMDL
MODEL 2
REMARK VINA RESULT:      -6.8      0.614      1.239
REMARK  Name = 
REMARK  9 active torsions:
REMARK  status: ('A' for Active; 'I' for Inactive)
REMARK    1  A    between atoms: C_1  and  N_2
REMARK    2  A    between atoms: N_2  and  C_3
REMARK    3  A    between atoms: N_2  and  C_4
REMARK    4  A    between atoms: C_4  and  C_5
REMARK    5  A    between atoms: C_5  and  N_6
REMARK    6  A    between atoms: C_7  and  N_8
REMARK    7  A    between atoms: C_9  and  C_10
REMARK    8  A    between atoms: C_22  and  C_23
REMARK    9  A    between atoms: C_25  and  C_26
REMARK                            x       y       z     vdW  Elec       q    Type
REMARK                         _______ _______ _______ _____ _____    ______ ____
ROOT
ATOM      1  N   UNL     1       3.876   6.616  17.712  0.00  0.00    +0.000 N 
ATOM      2  C   UNL     1       3.160   7.760  17.991  0.00  0.00    +0.000 A 
ATOM      3  C   UNL     1       2.371   7.514  19.111  0.00  0.00    +0.000 A 
ATOM      4  C   UNL     1       2.604   6.160  19.502  0.00  0.00    +0.000 A 
ATOM      5  N   UNL     1       2.088   5.384  20.506  0.00  0.00    +0.000 NA
ATOM      6  C   UNL     1       2.586   4.099  20.503  0.00  0.00    +0.000 A 
ATOM      7  C   UNL     1       3.531   3.616  19.605  0.00  0.00    +0.000 A 
ATOM      8  N   UNL     1       4.062   4.389  18.631  0.00  0.00    +0.000 NA
ATOM      9  C   UNL     1       3.551   5.640  18.620  0.00  0.00    +0.000 A 
ENDROOT
BRANCH   3  10
ATOM     10  C   UNL     1       1.474   8.542  19.750  0.00  0.00    +0.000 A 
ATOM     11  N   UNL     1       1.137   8.573  21.030  0.00  0.00    +0.000 NA
ATOM     12  C   UNL     1       0.264   9.632  21.173  0.00  0.00    +0.000 A 
ATOM     13  C   UNL     1      -0.399  10.117  22.313  0.00  0.00    +0.000 A 
ATOM     14  C   UNL     1      -1.271  11.202  22.166  0.00  0.00    +0.000 A 
ATOM     15 CL   UNL     1      -2.092  11.829  23.548  0.00  0.00    +0.000 Cl
ATOM     16  C   UNL     1      -1.494  11.791  20.919  0.00  0.00    +0.000 A 
ATOM     17  C   UNL     1      -0.826  11.332  19.777  0.00  0.00    +0.000 A 
ATOM     18  C   UNL     1       0.054  10.256  19.948  0.00  0.00    +0.000 A 
ATOM     19  N   UNL     1       0.867   9.577  19.073  0.00  0.00    +0.000 N 
ATOM     20  H   UNL     1       0.986   9.770  18.091  0.00  0.00    +0.000 HD
ENDBRANCH   3  10
BRANCH   2  21
ATOM     21  N   UNL     1       3.284   8.884  17.258  0.00  0.00    +0.000 N 
ATOM     22  H   UNL     1       3.437   9.822  17.609  0.00  0.00    +0.000 HD
ATOM     23  H   UNL     1       3.259   8.817  16.235  0.00  0.00    +0.000 HD
ENDBRANCH   2  21
BRANCH   6  24
ATOM     24  C   UNL     1       2.051   3.232  21.510  0.00  0.00    +0.000 C 
ATOM     25  N   UNL     1       1.589   2.506  22.290  0.00  0.00    +0.000 NA
ENDBRANCH   6  24
BRANCH   7  26
ATOM     26  C   UNL     1       4.012   2.255  19.625  0.00  0.00    +0.000 C 
ATOM     27  N   UNL     1       4.408   1.166  19.625  0.00  0.00    +0.000 NA
ENDBRANCH   7  26
BRANCH   1  28
ATOM     28  C   UNL     1       4.865   6.412  16.663  0.00  0.00    +0.000 C 
BRANCH  28  29
ATOM     29  C   UNL     1       6.304   6.674  17.142  0.00  0.00    +0.000 C 
BRANCH  29  31
ATOM     30  C   UNL     1       7.590   4.761  17.818  0.00  0.00    +0.000 C 
ATOM     31  N   UNL     1       7.286   5.664  16.703  0.00  0.00    +0.000 NA
ATOM     32  C   UNL     1       6.816   4.893  15.553  0.00  0.00    +0.000 C 
ENDBRANCH  29  31
ENDBRANCH  28  29
ENDBRANCH   1  28
TORSDOF 7
ENDMDL
MODEL 3
REMARK VINA RESULT:      -6.5      1.367      1.798
REMARK  Name = 
REMARK  9 active torsions:
REMARK  status: ('A' for Active; 'I' for Inactive)
REMARK    1  A    between atoms: C_1  and  N_2
REMARK    2  A    between atoms: N_2  and  C_3
REMARK    3  A    between atoms: N_2  and  C_4
REMARK    4  A    between atoms: C_4  and  C_5
REMARK    5  A    between atoms: C_5  and  N_6
REMARK    6  A    between atoms: C_7  and  N_8
REMARK    7  A    between atoms: C_9  and  C_10
REMARK    8  A    between atoms: C_22  and  C_23
REMARK    9  A    between atoms: C_25  and  C_26
REMARK                            x       y       z     vdW  Elec       q    Type
REMARK                         _______ _______ _______ _____ _____    ______ ____
ROOT
ATOM      1  N   UNL     1       4.718   5.626  17.283  0.00  0.00    +0.000 N 
ATOM      2  C   UNL     1       4.019   6.812  17.337  0.00  0.00    +0.000 A 
ATOM      3  C   UNL     1       3.135   6.745  18.410  0.00  0.00    +0.000 A 
ATOM      4  C   UNL     1       3.291   5.456  19.005  0.00  0.00    +0.000 A 
ATOM      5  N   UNL     1       2.670   4.842  20.061  0.00  0.00    +0.000 NA
ATOM      6  C   UNL     1       3.125   3.559  20.281  0.00  0.00    +0.000 A 
ATOM      7  C   UNL     1       4.124   2.934  19.543  0.00  0.00    +0.000 A 
ATOM      8  N   UNL     1       4.756   3.549  18.518  0.00  0.00    +0.000 NA
ATOM      9  C   UNL     1       4.289   4.796  18.289  0.00  0.00    +0.000 A 
ENDROOT
BRANCH   3  10
ATOM     10  C   UNL     1       2.223   7.872  18.819  0.00  0.00    +0.000 A 
ATOM     11  N   UNL     1       1.812   8.850  18.026  0.00  0.00    +0.000 NA
ATOM     12  C   UNL     1       1.049   9.688  18.813  0.00  0.00    +0.000 A 
ATOM     13  C   UNL     1       0.373  10.876  18.486  0.00  0.00    +0.000 A 
ATOM     14  C   UNL     1      -0.307  11.557  19.503  0.00  0.00    +0.000 A 
ATOM     15 CL   UNL     1      -1.157  13.012  19.132  0.00  0.00    +0.000 Cl
ATOM     16  C   UNL     1      -0.311  11.085  20.817  0.00  0.00    +0.000 A 
ATOM     17  C   UNL     1       0.342   9.893  21.155  0.00  0.00    +0.000 A 
ATOM     18  C   UNL     1       1.002   9.218  20.120  0.00  0.00    +0.000 A 
ATOM     19  N   UNL     1       1.714   8.043  20.088  0.00  0.00    +0.000 N 
ATOM     20  H   UNL     1       1.874   7.416  20.860  0.00  0.00    +0.000 HD
ENDBRANCH   3  10
BRANCH   2  21
ATOM     21  N   UNL     1       4.239   7.817  16.467  0.00  0.00    +0.000 N 
ATOM     22  H   UNL     1       4.408   7.731  15.471  0.00  0.00    +0.000 HD
ATOM     23  H   UNL     1       4.208   8.785  16.805  0.00  0.00    +0.000 HD
ENDBRANCH   2  21
BRANCH   6  24
ATOM     24  C   UNL     1       2.483   2.856  21.350  0.00  0.00    +0.000 C 
ATOM     25  N   UNL     1       1.973   2.325  22.248  0.00  0.00    +0.000 NA
ENDBRANCH   6  24
BRANCH   7  26
ATOM     26  C   UNL     1       4.556   1.580  19.794  0.00  0.00    +0.000 C 
ATOM     27  N   UNL     1       4.894   0.494  20.014  0.00  0.00    +0.000 NA
ENDBRANCH   7  26
BRANCH   1  28
ATOM     28  C   UNL     1       5.782   5.253  16.360  0.00  0.00    +0.000 C 
BRANCH  28  29
ATOM     29  C   UNL     1       7.170   5.718  16.834  0.00  0.00    +0.000 C 
BRANCH  29  31
ATOM     30  C   UNL     1       7.813   6.027  19.128  0.00  0.00    +0.000 C 
ATOM     31  N   UNL     1       7.143   6.648  17.980  0.00  0.00    +0.000 NA
ATOM     32  C   UNL     1       7.773   7.930  17.671  0.00  0.00    +0.000 C 
ENDBRANCH  29  31
ENDBRANCH  28  29
ENDBRANCH   1  28
TORSDOF 7
ENDMDL
MODEL 4
REMARK VINA RESULT:      -6.4      1.437      4.407
REMARK  Name = 
REMARK  9 active torsions:
REMARK  status: ('A' for Active; 'I' for Inactive)
REMARK    1  A    between atoms: C_1  and  N_2
REMARK    2  A    between atoms: N_2  and  C_3
REMARK    3  A    between atoms: N_2  and  C_4
REMARK    4  A    between atoms: C_4  and  C_5
REMARK    5  A    between atoms: C_5  and  N_6
REMARK    6  A    between atoms: C_7  and  N_8
REMARK    7  A    between atoms: C_9  and  C_10
REMARK    8  A    between atoms: C_22  and  C_23
REMARK    9  A    between atoms: C_25  and  C_26
REMARK                            x       y       z     vdW  Elec       q    Type
REMARK                         _______ _______ _______ _____ _____    ______ ____
ROOT
ATOM      1  N   UNL     1       2.677   4.088  18.420  0.00  0.00    +0.000 N 
ATOM      2  C   UNL     1       1.835   4.919  19.127  0.00  0.00    +0.000 A 
ATOM      3  C   UNL     1       2.405   6.188  19.159  0.00  0.00    +0.000 A 
ATOM      4  C   UNL     1       3.653   6.107  18.468  0.00  0.00    +0.000 A 
ATOM      5  N   UNL     1       4.634   7.029  18.216  0.00  0.00    +0.000 NA
ATOM      6  C   UNL     1       5.701   6.504  17.519  0.00  0.00    +0.000 A 
ATOM      7  C   UNL     1       5.792   5.187  17.082  0.00  0.00    +0.000 A 
ATOM      8  N   UNL     1       4.813   4.282  17.307  0.00  0.00    +0.000 NA
ATOM      9  C   UNL     1       3.781   4.795  18.014  0.00  0.00    +0.000 A 
ENDROOT
BRANCH   3  10
ATOM     10  C   UNL     1       1.760   7.384  19.808  0.00  0.00    +0.000 A 
ATOM     11  N   UNL     1       1.095   7.367  20.953  0.00  0.00    +0.000 NA
ATOM     12  C   UNL     1       0.626   8.651  21.145  0.00  0.00    +0.000 A 
ATOM     13  C   UNL     1      -0.138   9.192  22.193  0.00  0.00    +0.000 A 
ATOM     14  C   UNL     1      -0.513  10.539  22.117  0.00  0.00    +0.000 A 
ATOM     15 CL   UNL     1      -1.441  11.238  23.392  0.00  0.00    +0.000 Cl
ATOM     16  C   UNL     1      -0.152  11.333  21.026  0.00  0.00    +0.000 A 
ATOM     17  C   UNL     1       0.625  10.813  19.983  0.00  0.00    +0.000 A 
ATOM     18  C   UNL     1       1.003   9.469  20.086  0.00  0.00    +0.000 A 
ATOM     19  N   UNL     1       1.759   8.656  19.277  0.00  0.00    +0.000 N 
ATOM     20  H   UNL     1       2.217   8.920  18.419  0.00  0.00    +0.000 HD
ENDBRANCH   3  10
BRANCH   2  21
ATOM     21  N   UNL     1       0.667   4.490  19.644  0.00  0.00    +0.000 N 
ATOM     22  H   UNL     1      -0.073   5.065  20.029  0.00  0.00    +0.000 HD
ATOM     23  H   UNL     1       0.457   3.486  19.635  0.00  0.00    +0.000 HD
ENDBRANCH   2  21
BRANCH   6  24
ATOM     24  C   UNL     1       6.774   7.416  17.261  0.00  0.00    +0.000 C 
ATOM     25  N   UNL     1       7.653   8.157  17.102  0.00  0.00    +0.000 NA
ENDBRANCH   6  24
BRANCH   7  26
ATOM     26  C   UNL     1       6.939   4.672  16.372  0.00  0.00    +0.000 C 
ATOM     27  N   UNL     1       7.866   4.252  15.819  0.00  0.00    +0.000 NA
ENDBRANCH   7  26
BRANCH   1  28
ATOM     28  C   UNL     1       2.477   2.685  18.086  0.00  0.00    +0.000 C 
BRANCH  28  29
ATOM     29  C   UNL     1       2.838   1.740  19.246  0.00  0.00    +0.000 C 
BRANCH  29  31
ATOM     30  C   UNL     1       2.771   2.355  21.567  0.00  0.00    +0.000 C 
ATOM     31  N   UNL     1       3.583   2.382  20.346  0.00  0.00    +0.000 NA
ATOM     32  C   UNL     1       4.874   1.742  20.592  0.00  0.00    +0.000 C 
ENDBRANCH  29  31
ENDBRANCH  28  29
ENDBRANCH   1  28
TORSDOF 7
ENDMDL
MODEL 5
REMARK VINA RESULT:      -6.4      1.662      2.287
REMARK  Name = 
REMARK  9 active torsions:
REMARK  status: ('A' for Active; 'I' for Inactive)
REMARK    1  A    between atoms: C_1  and  N_2
REMARK    2  A    between atoms: N_2  and  C_3
REMARK    3  A    between atoms: N_2  and  C_4
REMARK    4  A    between atoms: C_4  and  C_5
REMARK    5  A    between atoms: C_5  and  N_6
REMARK    6  A    between atoms: C_7  and  N_8
REMARK    7  A    between atoms: C_9  and  C_10
REMARK    8  A    between atoms: C_22  and  C_23
REMARK    9  A    between atoms: C_25  and  C_26
REMARK                            x       y       z     vdW  Elec       q    Type
REMARK                         _______ _______ _______ _____ _____    ______ ____
ROOT
ATOM      1  N   UNL     1       5.157   5.390  17.446  0.00  0.00    +0.000 N 
ATOM      2  C   UNL     1       4.429   6.556  17.358  0.00  0.00    +0.000 A 
ATOM      3  C   UNL     1       3.442   6.526  18.339  0.00  0.00    +0.000 A 
ATOM      4  C   UNL     1       3.567   5.278  19.024  0.00  0.00    +0.000 A 
ATOM      5  N   UNL     1       2.856   4.708  20.047  0.00  0.00    +0.000 NA
ATOM      6  C   UNL     1       3.316   3.454  20.389  0.00  0.00    +0.000 A 
ATOM      7  C   UNL     1       4.399   2.817  19.794  0.00  0.00    +0.000 A 
ATOM      8  N   UNL     1       5.117   3.389  18.802  0.00  0.00    +0.000 NA
ATOM      9  C   UNL     1       4.647   4.607  18.452  0.00  0.00    +0.000 A 
ENDROOT
BRANCH   3  10
ATOM     10  C   UNL     1       2.467   7.647  18.586  0.00  0.00    +0.000 A 
ATOM     11  N   UNL     1       2.103   8.554  17.693  0.00  0.00    +0.000 NA
ATOM     12  C   UNL     1       1.250   9.418  18.348  0.00  0.00    +0.000 A 
ATOM     13  C   UNL     1       0.574  10.558  17.880  0.00  0.00    +0.000 A 
ATOM     14  C   UNL     1      -0.212  11.285  18.782  0.00  0.00    +0.000 A 
ATOM     15 CL   UNL     1      -1.064  12.682  18.236  0.00  0.00    +0.000 Cl
ATOM     16  C   UNL     1      -0.322  10.903  20.121  0.00  0.00    +0.000 A 
ATOM     17  C   UNL     1       0.330   9.759  20.599  0.00  0.00    +0.000 A 
ATOM     18  C   UNL     1       1.098   9.037  19.676  0.00  0.00    +0.000 A 
ATOM     19  N   UNL     1       1.841   7.886  19.790  0.00  0.00    +0.000 N 
ATOM     20  H   UNL     1       1.947   7.319  20.615  0.00  0.00    +0.000 HD
ENDBRANCH   3  10
BRANCH   2  21
ATOM     21  N   UNL     1       4.713   7.515  16.455  0.00  0.00    +0.000 N 
ATOM     22  H   UNL     1       4.048   8.034  15.893  0.00  0.00    +0.000 HD
ATOM     23  H   UNL     1       5.689   7.798  16.319  0.00  0.00    +0.000 HD
ENDBRANCH   2  21
BRANCH   6  24
ATOM     24  C   UNL     1       2.585   2.796  21.429  0.00  0.00    +0.000 C 
ATOM     25  N   UNL     1       2.006   2.216  22.252  0.00  0.00    +0.000 NA
ENDBRANCH   6  24
BRANCH   7  26
ATOM     26  C   UNL     1       4.835   1.493  20.169  0.00  0.00    +0.000 C 
ATOM     27  N   UNL     1       5.174   0.423  20.455  0.00  0.00    +0.000 NA
ENDBRANCH   7  26
BRANCH   1  28
ATOM     28  C   UNL     1       6.317   4.996  16.659  0.00  0.00    +0.000 C 
BRANCH  28  29
ATOM     29  C   UNL     1       5.964   4.009  15.531  0.00  0.00    +0.000 C 
BRANCH  29  31
ATOM     30  C   UNL     1       7.408   5.240  14.058  0.00  0.00    +0.000 C 
ATOM     31  N   UNL     1       6.112   4.561  14.171  0.00  0.00    +0.000 NA
ATOM     32  C   UNL     1       5.997   3.534  13.138  0.00  0.00    +0.000 C 
ENDBRANCH  29  31
ENDBRANCH  28  29
ENDBRANCH   1  28
TORSDOF 7
ENDMDL
MODEL 6
REMARK VINA RESULT:      -6.3      4.052      9.301
REMARK  Name = 
REMARK  9 active torsions:
REMARK  status: ('A' for Active; 'I' for Inactive)
REMARK    1  A    between atoms: C_1  and  N_2
REMARK    2  A    between atoms: N_2  and  C_3
REMARK    3  A    between atoms: N_2  and  C_4
REMARK    4  A    between atoms: C_4  and  C_5
REMARK    5  A    between atoms: C_5  and  N_6
REMARK    6  A    between atoms: C_7  and  N_8
REMARK    7  A    between atoms: C_9  and  C_10
REMARK    8  A    between atoms: C_22  and  C_23
REMARK    9  A    between atoms: C_25  and  C_26
REMARK                            x       y       z     vdW  Elec       q    Type
REMARK                         _______ _______ _______ _____ _____    ______ ____
ROOT
ATOM      1  N   UNL     1      -0.976  11.502  20.503  0.00  0.00    +0.000 N 
ATOM      2  C   UNL     1       0.148  10.706  20.531  0.00  0.00    +0.000 A 
ATOM      3  C   UNL     1       0.190   9.973  19.349  0.00  0.00    +0.000 A 
ATOM      4  C   UNL     1      -0.971  10.324  18.594  0.00  0.00    +0.000 A 
ATOM      5  N   UNL     1      -1.451   9.900  17.383  0.00  0.00    +0.000 NA
ATOM      6  C   UNL     1      -2.644  10.498  17.038  0.00  0.00    +0.000 A 
ATOM      7  C   UNL     1      -3.305  11.452  17.805  0.00  0.00    +0.000 A 
ATOM      8  N   UNL     1      -2.819  11.890  18.988  0.00  0.00    +0.000 NA
ATOM      9  C   UNL     1      -1.663  11.282  19.335  0.00  0.00    +0.000 A 
ENDROOT
BRANCH   3  10
ATOM     10  C   UNL     1       1.298   9.017  18.991  0.00  0.00    +0.000 A 
ATOM     11  N   UNL     1       2.024   9.068  17.884  0.00  0.00    +0.000 NA
ATOM     12  C   UNL     1       2.874   7.982  17.933  0.00  0.00    +0.000 A 
ATOM     13  C   UNL     1       3.853   7.553  17.020  0.00  0.00    +0.000 A 
ATOM     14  C   UNL     1       4.559   6.378  17.304  0.00  0.00    +0.000 A 
ATOM     15 CL   UNL     1       5.776   5.830  16.211  0.00  0.00    +0.000 Cl
ATOM     16  C   UNL     1       4.298   5.634  18.456  0.00  0.00    +0.000 A 
ATOM     17  C   UNL     1       3.338   6.058  19.385  0.00  0.00    +0.000 A 
ATOM     18  C   UNL     1       2.655   7.244  19.090  0.00  0.00    +0.000 A 
ATOM     19  N   UNL     1       1.686   7.946  19.766  0.00  0.00    +0.000 N 
ATOM     20  H   UNL     1       1.291   7.713  20.663  0.00  0.00    +0.000 HD
ENDBRANCH   3  10
BRANCH   2  21
ATOM     21  N   UNL     1       1.014  10.720  21.565  0.00  0.00    +0.000 N 
ATOM     22  H   UNL     1       1.819  11.324  21.672  0.00  0.00    +0.000 HD
ATOM     23  H   UNL     1       0.853  10.088  22.357  0.00  0.00    +0.000 HD
ENDBRANCH   2  21
BRANCH   6  24
ATOM     24  C   UNL     1      -3.211  10.064  15.797  0.00  0.00    +0.000 C 
ATOM     25  N   UNL     1      -3.686   9.668  14.814  0.00  0.00    +0.000 NA
ENDBRANCH   6  24
BRANCH   7  26
ATOM     26  C   UNL     1      -4.565  12.038  17.415  0.00  0.00    +0.000 C 
ATOM     27  N   UNL     1      -5.574  12.502  17.085  0.00  0.00    +0.000 NA
ENDBRANCH   7  26
BRANCH   1  28
ATOM     28  C   UNL     1      -1.413  12.472  21.497  0.00  0.00    +0.000 C 
BRANCH  28  29
ATOM     29  C   UNL     1      -2.210  11.829  22.646  0.00  0.00    +0.000 C 
BRANCH  29  31
ATOM     30  C   UNL     1      -3.924  12.510  24.186  0.00  0.00    +0.000 C 
ATOM     31  N   UNL     1      -3.599  12.312  22.769  0.00  0.00    +0.000 NA
ATOM     32  C   UNL     1      -3.825  13.552  22.029  0.00  0.00    +0.000 C 
ENDBRANCH  29  31
ENDBRANCH  28  29
ENDBRANCH   1  28
TORSDOF 7
ENDMDL
MODEL 7
REMARK VINA RESULT:      -6.2      1.583      4.370
REMARK  Name = 
REMARK  9 active torsions:
REMARK  status: ('A' for Active; 'I' for Inactive)
REMARK    1  A    between atoms: C_1  and  N_2
REMARK    2  A    between atoms: N_2  and  C_3
REMARK    3  A    between atoms: N_2  and  C_4
REMARK    4  A    between atoms: C_4  and  C_5
REMARK    5  A    between atoms: C_5  and  N_6
REMARK    6  A    between atoms: C_7  and  N_8
REMARK    7  A    between atoms: C_9  and  C_10
REMARK    8  A    between atoms: C_22  and  C_23
REMARK    9  A    between atoms: C_25  and  C_26
REMARK                            x       y       z     vdW  Elec       q    Type
REMARK                         _______ _______ _______ _____ _____    ______ ____
ROOT
ATOM      1  N   UNL     1       3.245   4.354  19.999  0.00  0.00    +0.000 N 
ATOM      2  C   UNL     1       2.277   5.299  20.259  0.00  0.00    +0.000 A 
ATOM      3  C   UNL     1       2.696   6.509  19.715  0.00  0.00    +0.000 A 
ATOM      4  C   UNL     1       3.980   6.287  19.129  0.00  0.00    +0.000 A 
ATOM      5  N   UNL     1       4.860   7.115  18.485  0.00  0.00    +0.000 NA
ATOM      6  C   UNL     1       6.016   6.474  18.096  0.00  0.00    +0.000 A 
ATOM      7  C   UNL     1       6.282   5.124  18.298  0.00  0.00    +0.000 A 
ATOM      8  N   UNL     1       5.402   4.299  18.909  0.00  0.00    +0.000 NA
ATOM      9  C   UNL     1       4.282   4.938  19.313  0.00  0.00    +0.000 A 
ENDROOT
BRANCH   3  10
ATOM     10  C   UNL     1       1.883   7.776  19.758  0.00  0.00    +0.000 A 
ATOM     11  N   UNL     1       1.173   8.194  20.795  0.00  0.00    +0.000 NA
ATOM     12  C   UNL     1       0.547   9.355  20.390  0.00  0.00    +0.000 A 
ATOM     13  C   UNL     1      -0.324  10.209  21.087  0.00  0.00    +0.000 A 
ATOM     14  C   UNL     1      -0.853  11.317  20.413  0.00  0.00    +0.000 A 
ATOM     15 CL   UNL     1      -1.916  12.392  21.245  0.00  0.00    +0.000 Cl
ATOM     16  C   UNL     1      -0.538  11.572  19.077  0.00  0.00    +0.000 A 
ATOM     17  C   UNL     1       0.343  10.741  18.374  0.00  0.00    +0.000 A 
ATOM     18  C   UNL     1       0.873   9.648  19.071  0.00  0.00    +0.000 A 
ATOM     19  N   UNL     1       1.757   8.660  18.708  0.00  0.00    +0.000 N 
ATOM     20  H   UNL     1       2.219   8.564  17.818  0.00  0.00    +0.000 HD
ENDBRANCH   3  10
BRANCH   2  21
ATOM     21  N   UNL     1       1.140   5.001  20.919  0.00  0.00    +0.000 N 
ATOM     22  H   UNL     1       1.030   4.317  21.658  0.00  0.00    +0.000 HD
ATOM     23  H   UNL     1       0.286   5.524  20.698  0.00  0.00    +0.000 HD
ENDBRANCH   2  21
BRANCH   6  24
ATOM     24  C   UNL     1       6.990   7.302  17.450  0.00  0.00    +0.000 C 
ATOM     25  N   UNL     1       7.791   7.994  16.973  0.00  0.00    +0.000 NA
ENDBRANCH   6  24
BRANCH   7  26
ATOM     26  C   UNL     1       7.516   4.495  17.891  0.00  0.00    +0.000 C 
ATOM     27  N   UNL     1       8.515   4.009  17.563  0.00  0.00    +0.000 NA
ENDBRANCH   7  26
BRANCH   1  28
ATOM     28  C   UNL     1       3.227   2.936  20.332  0.00  0.00    +0.000 C 
BRANCH  28  29
ATOM     29  C   UNL     1       2.139   2.159  19.569  0.00  0.00    +0.000 C 
BRANCH  29  31
ATOM     30  C   UNL     1       2.405   2.802  17.270  0.00  0.00    +0.000 C 
ATOM     31  N   UNL     1       2.546   1.699  18.228  0.00  0.00    +0.000 NA
ATOM     32  C   UNL     1       3.917   1.194  18.205  0.00  0.00    +0.000 C 
ENDBRANCH  29  31
ENDBRANCH  28  29
ENDBRANCH   1  28
TORSDOF 7
ENDMDL
MODEL 8
REMARK VINA RESULT:      -6.2      4.007      9.311
REMARK  Name = 
REMARK  9 active torsions:
REMARK  status: ('A' for Active; 'I' for Inactive)
REMARK    1  A    between atoms: C_1  and  N_2
REMARK    2  A    between atoms: N_2  and  C_3
REMARK    3  A    between atoms: N_2  and  C_4
REMARK    4  A    between atoms: C_4  and  C_5
REMARK    5  A    between atoms: C_5  and  N_6
REMARK    6  A    between atoms: C_7  and  N_8
REMARK    7  A    between atoms: C_9  and  C_10
REMARK    8  A    between atoms: C_22  and  C_23
REMARK    9  A    between atoms: C_25  and  C_26
REMARK                            x       y       z     vdW  Elec       q    Type
REMARK                         _______ _______ _______ _____ _____    ______ ____
ROOT
ATOM      1  N   UNL     1      -0.924  11.418  20.478  0.00  0.00    +0.000 N 
ATOM      2  C   UNL     1       0.172  10.584  20.518  0.00  0.00    +0.000 A 
ATOM      3  C   UNL     1       0.188   9.835  19.345  0.00  0.00    +0.000 A 
ATOM      4  C   UNL     1      -0.960  10.216  18.586  0.00  0.00    +0.000 A 
ATOM      5  N   UNL     1      -1.455   9.793  17.380  0.00  0.00    +0.000 NA
ATOM      6  C   UNL     1      -2.626  10.428  17.027  0.00  0.00    +0.000 A 
ATOM      7  C   UNL     1      -3.253  11.414  17.781  0.00  0.00    +0.000 A 
ATOM      8  N   UNL     1      -2.752  11.850  18.958  0.00  0.00    +0.000 NA
ATOM      9  C   UNL     1      -1.618  11.207  19.313  0.00  0.00    +0.000 A 
ENDROOT
BRANCH   3  10
ATOM     10  C   UNL     1       1.261   8.836  19.000  0.00  0.00    +0.000 A 
ATOM     11  N   UNL     1       1.624   7.811  19.757  0.00  0.00    +0.000 NA
ATOM     12  C   UNL     1       2.669   7.197  19.098  0.00  0.00    +0.000 A 
ATOM     13  C   UNL     1       3.428   6.068  19.450  0.00  0.00    +0.000 A 
ATOM     14  C   UNL     1       4.472   5.676  18.603  0.00  0.00    +0.000 A 
ATOM     15 CL   UNL     1       5.415   4.287  19.000  0.00  0.00    +0.000 Cl
ATOM     16  C   UNL     1       4.769   6.387  17.438  0.00  0.00    +0.000 A 
ATOM     17  C   UNL     1       4.009   7.504  17.064  0.00  0.00    +0.000 A 
ATOM     18  C   UNL     1       2.960   7.869  17.916  0.00  0.00    +0.000 A 
ATOM     19  N   UNL     1       2.025   8.874  17.854  0.00  0.00    +0.000 N 
ATOM     20  H   UNL     1       1.921   9.554  17.117  0.00  0.00    +0.000 HD
ENDBRANCH   3  10
BRANCH   2  21
ATOM     21  N   UNL     1       1.037  10.581  21.551  0.00  0.00    +0.000 N 
ATOM     22  H   UNL     1       1.552   9.785  21.908  0.00  0.00    +0.000 HD
ATOM     23  H   UNL     1       1.245  11.464  22.029  0.00  0.00    +0.000 HD
ENDBRANCH   2  21
BRANCH   6  24
ATOM     24  C   UNL     1      -3.209   9.997  15.791  0.00  0.00    +0.000 C 
ATOM     25  N   UNL     1      -3.634   9.652  14.767  0.00  0.00    +0.000 NA
ENDBRANCH   6  24
BRANCH   7  26
ATOM     26  C   UNL     1      -4.492  12.039  17.383  0.00  0.00    +0.000 C 
ATOM     27  N   UNL     1      -5.491  12.543  17.082  0.00  0.00    +0.000 NA
ENDBRANCH   7  26
BRANCH   1  28
ATOM     28  C   UNL     1      -1.327  12.416  21.460  0.00  0.00    +0.000 C 
BRANCH  28  29
ATOM     29  C   UNL     1      -2.090  11.807  22.649  0.00  0.00    +0.000 C 
BRANCH  29  31
ATOM     30  C   UNL     1      -3.847  12.403  24.175  0.00  0.00    +0.000 C 
ATOM     31  N   UNL     1      -3.496  12.244  22.759  0.00  0.00    +0.000 NA
ATOM     32  C   UNL     1      -3.749  13.490  22.040  0.00  0.00    +0.000 C 
ENDBRANCH  29  31
ENDBRANCH  28  29
ENDBRANCH   1  28
TORSDOF 7
ENDMDL
MODEL 9
REMARK VINA RESULT:      -6.2      4.094      9.561
REMARK  Name = 
REMARK  9 active torsions:
REMARK  status: ('A' for Active; 'I' for Inactive)
REMARK    1  A    between atoms: C_1  and  N_2
REMARK    2  A    between atoms: N_2  and  C_3
REMARK    3  A    between atoms: N_2  and  C_4
REMARK    4  A    between atoms: C_4  and  C_5
REMARK    5  A    between atoms: C_5  and  N_6
REMARK    6  A    between atoms: C_7  and  N_8
REMARK    7  A    between atoms: C_9  and  C_10
REMARK    8  A    between atoms: C_22  and  C_23
REMARK    9  A    between atoms: C_25  and  C_26
REMARK                            x       y       z     vdW  Elec       q    Type
REMARK                         _______ _______ _______ _____ _____    ______ ____
ROOT
ATOM      1  N   UNL     1      -0.633  12.580  19.445  0.00  0.00    +0.000 N 
ATOM      2  C   UNL     1      -0.417  11.222  19.357  0.00  0.00    +0.000 A 
ATOM      3  C   UNL     1       0.913  11.017  19.004  0.00  0.00    +0.000 A 
ATOM      4  C   UNL     1       1.511  12.305  18.848  0.00  0.00    +0.000 A 
ATOM      5  N   UNL     1       2.772  12.703  18.490  0.00  0.00    +0.000 NA
ATOM      6  C   UNL     1       2.910  14.074  18.441  0.00  0.00    +0.000 A 
ATOM      7  C   UNL     1       1.902  14.984  18.742  0.00  0.00    +0.000 A 
ATOM      8  N   UNL     1       0.666  14.592  19.121  0.00  0.00    +0.000 NA
ATOM      9  C   UNL     1       0.527  13.248  19.142  0.00  0.00    +0.000 A 
ENDROOT
BRANCH   3  10
ATOM     10  C   UNL     1       1.543   9.657  18.851  0.00  0.00    +0.000 A 
ATOM     11  N   UNL     1       1.417   8.655  19.708  0.00  0.00    +0.000 NA
ATOM     12  C   UNL     1       2.195   7.627  19.215  0.00  0.00    +0.000 A 
ATOM     13  C   UNL     1       2.427   6.338  19.724  0.00  0.00    +0.000 A 
ATOM     14  C   UNL     1       3.305   5.496  19.030  0.00  0.00    +0.000 A 
ATOM     15 CL   UNL     1       3.603   3.903  19.622  0.00  0.00    +0.000 Cl
ATOM     16  C   UNL     1       3.949   5.919  17.866  0.00  0.00    +0.000 A 
ATOM     17  C   UNL     1       3.714   7.194  17.336  0.00  0.00    +0.000 A 
ATOM     18  C   UNL     1       2.821   8.014  18.035  0.00  0.00    +0.000 A 
ATOM     19  N   UNL     1       2.355   9.286  17.801  0.00  0.00    +0.000 N 
ATOM     20  H   UNL     1       2.583   9.875  17.016  0.00  0.00    +0.000 HD
ENDBRANCH   3  10
BRANCH   2  21
ATOM     21  N   UNL     1      -1.388  10.321  19.608  0.00  0.00    +0.000 N 
ATOM     22  H   UNL     1      -2.014  10.311  20.404  0.00  0.00    +0.000 HD
ATOM     23  H   UNL     1      -1.559   9.572  18.929  0.00  0.00    +0.000 HD
ENDBRANCH   2  21
BRANCH   6  24
ATOM     24  C   UNL     1       4.199  14.547  18.035  0.00  0.00    +0.000 C 
ATOM     25  N   UNL     1       5.240  14.903  17.663  0.00  0.00    +0.000 NA
ENDBRANCH   6  24
BRANCH   7  26
ATOM     26  C   UNL     1       2.084  16.414  18.658  0.00  0.00    +0.000 C 
ATOM     27  N   UNL     1       2.225  17.563  18.610  0.00  0.00    +0.000 NA
ENDBRANCH   7  26
BRANCH   1  28
ATOM     28  C   UNL     1      -1.857  13.270  19.829  0.00  0.00    +0.000 C 
BRANCH  28  29
ATOM     29  C   UNL     1      -1.983  13.454  21.352  0.00  0.00    +0.000 C 
BRANCH  29  31
ATOM     30  C   UNL     1      -1.545  11.726  22.962  0.00  0.00    +0.000 C 
ATOM     31  N   UNL     1      -2.555  12.293  22.061  0.00  0.00    +0.000 NA
ATOM     32  C   UNL     1      -3.757  12.638  22.817  0.00  0.00    +0.000 C 
ENDBRANCH  29  31
ENDBRANCH  28  29
ENDBRANCH   1  28
TORSDOF 7
ENDMDL
