MODEL 1
REMARK VINA RESULT:      -5.8      0.000      0.000
REMARK  Name = 
REMARK  7 active torsions:
REMARK  status: ('A' for Active; 'I' for Inactive)
REMARK    1  A    between atoms: N_1  and  S_2
REMARK    2  A    between atoms: S_2  and  C_5
REMARK    3  A    between atoms: C_8  and  S_9
REMARK    4  A    between atoms: S_9  and  C_10
REMARK    5  A    between atoms: C_10  and  C_11
REMARK    6  A    between atoms: C_11  and  C_12
REMARK    7  A    between atoms: C_12  and  O_13
REMARK                            x       y       z     vdW  Elec       q    Type
REMARK                         _______ _______ _______ _____ _____    ______ ____
ROOT
ATOM      1  C   UNL     1       5.877   4.466  17.732  0.00  0.00    +0.000 A 
ATOM      2  C   UNL     1       5.267   4.244  16.512  0.00  0.00    +0.000 A 
ATOM      3  C   UNL     1       3.994   3.612  16.647  0.00  0.00    +0.000 A 
ATOM      4  C   UNL     1       3.668   3.379  17.966  0.00  0.00    +0.000 A 
ATOM      5  S   UNL     1       4.884   3.950  19.027  0.00  0.00    +0.000 S 
ENDROOT
BRANCH   1   6
ATOM      6  S   UNL     1       7.445   5.162  18.167  0.00  0.00    +0.000 S 
ATOM      7  O   UNL     1       7.481   6.473  17.567  0.00  0.00    +0.000 OA
ATOM      8  O   UNL     1       8.437   4.153  17.876  0.00  0.00    +0.000 OA
BRANCH   6   9
ATOM      9  N   UNL     1       7.484   5.392  19.835  0.00  0.00    +0.000 NA
ATOM     10  H   UNL     1       8.355   4.997  20.198  0.00  0.00    +0.000 HD
ATOM     11  H   UNL     1       6.670   4.948  20.264  0.00  0.00    +0.000 HD
ENDBRANCH   6   9
ENDBRANCH   1   6
BRANCH   4  12
ATOM     12  S   UNL     1       2.184   2.657  18.573  0.00  0.00    +0.000 S 
BRANCH  12  13
ATOM     13  C   UNL     1       1.323   4.115  19.250  0.00  0.00    +0.000 C 
BRANCH  13  14
ATOM     14  C   UNL     1       1.463   4.137  20.774  0.00  0.00    +0.000 C 
BRANCH  14  15
ATOM     15  C   UNL     1       1.485   2.731  21.361  0.00  0.00    +0.000 C 
BRANCH  15  16
ATOM     16  O   UNL     1       2.676   2.517  22.106  0.00  0.00    +0.000 OA
ATOM     17  H   UNL     1       3.079   3.388  22.271  0.00  0.00    +0.000 HD
ENDBRANCH  15  16
ENDBRANCH  14  15
ENDBRANCH  13  14
ENDBRANCH  12  13
ENDBRANCH   4  12
TORSDOF 7
ENDMDL
MODEL 2
REMARK VINA RESULT:      -5.7      1.093      1.239
REMARK  Name = 
REMARK  7 active torsions:
REMARK  status: ('A' for Active; 'I' for Inactive)
REMARK    1  A    between atoms: N_1  and  S_2
REMARK    2  A    between atoms: S_2  and  C_5
REMARK    3  A    between atoms: C_8  and  S_9
REMARK    4  A    between atoms: S_9  and  C_10
REMARK    5  A    between atoms: C_10  and  C_11
REMARK    6  A    between atoms: C_11  and  C_12
REMARK    7  A    between atoms: C_12  and  O_13
REMARK                            x       y       z     vdW  Elec       q    Type
REMARK                         _______ _______ _______ _____ _____    ______ ____
ROOT
ATOM      1  C   UNL     1       5.473   4.574  17.996  0.00  0.00    +0.000 A 
ATOM      2  C   UNL     1       4.647   4.744  16.902  0.00  0.00    +0.000 A 
ATOM      3  C   UNL     1       3.464   3.949  16.985  0.00  0.00    +0.000 A 
ATOM      4  C   UNL     1       3.421   3.203  18.143  0.00  0.00    +0.000 A 
ATOM      5  S   UNL     1       4.789   3.491  19.130  0.00  0.00    +0.000 S 
ENDROOT
BRANCH   1   6
ATOM      6  S   UNL     1       7.054   5.255  18.407  0.00  0.00    +0.000 S 
ATOM      7  O   UNL     1       8.028   4.468  17.690  0.00  0.00    +0.000 OA
ATOM      8  O   UNL     1       7.081   5.393  19.845  0.00  0.00    +0.000 OA
BRANCH   6   9
ATOM      9  N   UNL     1       7.142   6.817  17.783  0.00  0.00    +0.000 NA
ATOM     10  H   UNL     1       6.412   6.927  17.075  0.00  0.00    +0.000 HD
ATOM     11  H   UNL     1       8.069   6.979  17.386  0.00  0.00    +0.000 HD
ENDBRANCH   6   9
ENDBRANCH   1   6
BRANCH   4  12
ATOM     12  S   UNL     1       2.131   2.122  18.653  0.00  0.00    +0.000 S 
BRANCH  12  13
ATOM     13  C   UNL     1       0.864   3.308  19.211  0.00  0.00    +0.000 C 
BRANCH  13  14
ATOM     14  C   UNL     1       1.224   3.835  20.602  0.00  0.00    +0.000 C 
BRANCH  14  15
ATOM     15  C   UNL     1       1.389   2.704  21.610  0.00  0.00    +0.000 C 
BRANCH  15  16
ATOM     16  O   UNL     1       2.734   2.629  22.063  0.00  0.00    +0.000 OA
ATOM     17  H   UNL     1       2.986   3.513  22.383  0.00  0.00    +0.000 HD
ENDBRANCH  15  16
ENDBRANCH  14  15
ENDBRANCH  13  14
ENDBRANCH  12  13
ENDBRANCH   4  12
TORSDOF 7
ENDMDL
MODEL 3
REMARK VINA RESULT:      -5.7      2.043      2.135
REMARK  Name = 
REMARK  7 active torsions:
REMARK  status: ('A' for Active; 'I' for Inactive)
REMARK    1  A    between atoms: N_1  and  S_2
REMARK    2  A    between atoms: S_2  and  C_5
REMARK    3  A    between atoms: C_8  and  S_9
REMARK    4  A    between atoms: S_9  and  C_10
REMARK    5  A    between atoms: C_10  and  C_11
REMARK    6  A    between atoms: C_11  and  C_12
REMARK    7  A    between atoms: C_12  and  O_13
REMARK                            x       y       z     vdW  Elec       q    Type
REMARK                         _______ _______ _______ _____ _____    ______ ____
ROOT
ATOM      1  C   UNL     1       5.379   5.280  16.902  0.00  0.00    +0.000 A 
ATOM      2  C   UNL     1       4.663   6.360  17.381  0.00  0.00    +0.000 A 
ATOM      3  C   UNL     1       3.343   5.998  17.789  0.00  0.00    +0.000 A 
ATOM      4  C   UNL     1       3.096   4.654  17.616  0.00  0.00    +0.000 A 
ATOM      5  S   UNL     1       4.465   3.836  16.993  0.00  0.00    +0.000 S 
ENDROOT
BRANCH   1   6
ATOM      6  S   UNL     1       7.013   5.141  16.235  0.00  0.00    +0.000 S 
ATOM      7  O   UNL     1       7.570   6.471  16.260  0.00  0.00    +0.000 OA
ATOM      8  O   UNL     1       6.895   4.376  15.015  0.00  0.00    +0.000 OA
BRANCH   6   9
ATOM      9  N   UNL     1       7.942   4.208  17.286  0.00  0.00    +0.000 NA
ATOM     10  H   UNL     1       8.825   3.978  16.824  0.00  0.00    +0.000 HD
ATOM     11  H   UNL     1       7.429   3.363  17.543  0.00  0.00    +0.000 HD
ENDBRANCH   6   9
ENDBRANCH   1   6
BRANCH   4  12
ATOM     12  S   UNL     1       1.618   3.792  18.022  0.00  0.00    +0.000 S 
BRANCH  12  13
ATOM     13  C   UNL     1       2.203   2.668  19.332  0.00  0.00    +0.000 C 
BRANCH  13  14
ATOM     14  C   UNL     1       1.628   3.102  20.683  0.00  0.00    +0.000 C 
BRANCH  14  15
ATOM     15  C   UNL     1       1.324   4.596  20.714  0.00  0.00    +0.000 C 
BRANCH  15  16
ATOM     16  O   UNL     1       2.423   5.319  21.251  0.00  0.00    +0.000 OA
ATOM     17  H   UNL     1       3.237   4.847  21.000  0.00  0.00    +0.000 HD
ENDBRANCH  15  16
ENDBRANCH  14  15
ENDBRANCH  13  14
ENDBRANCH  12  13
ENDBRANCH   4  12
TORSDOF 7
ENDMDL
MODEL 4
REMARK VINA RESULT:      -5.6      1.954      2.085
REMARK  Name = 
REMARK  7 active torsions:
REMARK  status: ('A' for Active; 'I' for Inactive)
REMARK    1  A    between atoms: N_1  and  S_2
REMARK    2  A    between atoms: S_2  and  C_5
REMARK    3  A    between atoms: C_8  and  S_9
REMARK    4  A    between atoms: S_9  and  C_10
REMARK    5  A    between atoms: C_10  and  C_11
REMARK    6  A    between atoms: C_11  and  C_12
REMARK    7  A    between atoms: C_12  and  O_13
REMARK                            x       y       z     vdW  Elec       q    Type
REMARK                         _______ _______ _______ _____ _____    ______ ____
ROOT
ATOM      1  C   UNL     1       5.446   4.885  17.174  0.00  0.00    +0.000 A 
ATOM      2  C   UNL     1       4.274   4.423  16.606  0.00  0.00    +0.000 A 
ATOM      3  C   UNL     1       3.176   4.461  17.517  0.00  0.00    +0.000 A 
ATOM      4  C   UNL     1       3.542   4.958  18.749  0.00  0.00    +0.000 A 
ATOM      5  S   UNL     1       5.194   5.401  18.786  0.00  0.00    +0.000 S 
ENDROOT
BRANCH   1   6
ATOM      6  S   UNL     1       7.095   5.026  16.546  0.00  0.00    +0.000 S 
ATOM      7  O   UNL     1       7.458   6.415  16.685  0.00  0.00    +0.000 OA
ATOM      8  O   UNL     1       7.108   4.349  15.270  0.00  0.00    +0.000 OA
BRANCH   6   9
ATOM      9  N   UNL     1       8.127   4.154  17.551  0.00  0.00    +0.000 NA
ATOM     10  H   UNL     1       7.563   3.538  18.142  0.00  0.00    +0.000 HD
ATOM     11  H   UNL     1       8.685   4.797  18.115  0.00  0.00    +0.000 HD
ENDBRANCH   6   9
ENDBRANCH   1   6
BRANCH   4  12
ATOM     12  S   UNL     1       2.493   5.205  20.139  0.00  0.00    +0.000 S 
BRANCH  12  13
ATOM     13  C   UNL     1       2.539   3.560  20.924  0.00  0.00    +0.000 C 
BRANCH  13  14
ATOM     14  C   UNL     1       1.155   2.911  20.848  0.00  0.00    +0.000 C 
BRANCH  14  15
ATOM     15  C   UNL     1       0.741   2.628  19.409  0.00  0.00    +0.000 C 
BRANCH  15  16
ATOM     16  O   UNL     1       1.532   1.585  18.856  0.00  0.00    +0.000 OA
ATOM     17  H   UNL     1       2.453   1.901  18.823  0.00  0.00    +0.000 HD
ENDBRANCH  15  16
ENDBRANCH  14  15
ENDBRANCH  13  14
ENDBRANCH  12  13
ENDBRANCH   4  12
TORSDOF 7
ENDMDL
MODEL 5
REMARK VINA RESULT:      -5.6      2.276      2.332
REMARK  Name = 
REMARK  7 active torsions:
REMARK  status: ('A' for Active; 'I' for Inactive)
REMARK    1  A    between atoms: N_1  and  S_2
REMARK    2  A    between atoms: S_2  and  C_5
REMARK    3  A    between atoms: C_8  and  S_9
REMARK    4  A    between atoms: S_9  and  C_10
REMARK    5  A    between atoms: C_10  and  C_11
REMARK    6  A    between atoms: C_11  and  C_12
REMARK    7  A    between atoms: C_12  and  O_13
REMARK                            x       y       z     vdW  Elec       q    Type
REMARK                         _______ _______ _______ _____ _____    ______ ____
ROOT
ATOM      1  C   UNL     1       5.516   5.537  16.845  0.00  0.00    +0.000 A 
ATOM      2  C   UNL     1       4.981   6.801  16.686  0.00  0.00    +0.000 A 
ATOM      3  C   UNL     1       3.893   7.047  17.578  0.00  0.00    +0.000 A 
ATOM      4  C   UNL     1       3.638   5.967  18.395  0.00  0.00    +0.000 A 
ATOM      5  S   UNL     1       4.729   4.681  18.100  0.00  0.00    +0.000 S 
ENDROOT
BRANCH   1   6
ATOM      6  S   UNL     1       6.822   4.687  16.006  0.00  0.00    +0.000 S 
ATOM      7  O   UNL     1       7.487   5.677  15.194  0.00  0.00    +0.000 OA
ATOM      8  O   UNL     1       6.239   3.492  15.442  0.00  0.00    +0.000 OA
BRANCH   6   9
ATOM      9  N   UNL     1       7.944   4.168  17.150  0.00  0.00    +0.000 NA
ATOM     10  H   UNL     1       8.869   4.142  16.712  0.00  0.00    +0.000 HD
ATOM     11  H   UNL     1       7.677   3.247  17.503  0.00  0.00    +0.000 HD
ENDBRANCH   6   9
ENDBRANCH   1   6
BRANCH   4  12
ATOM     12  S   UNL     1       2.414   5.863  19.653  0.00  0.00    +0.000 S 
BRANCH  12  13
ATOM     13  C   UNL     1       1.724   4.203  19.350  0.00  0.00    +0.000 C 
BRANCH  13  14
ATOM     14  C   UNL     1       1.134   3.643  20.647  0.00  0.00    +0.000 C 
BRANCH  14  15
ATOM     15  C   UNL     1       2.216   3.096  21.570  0.00  0.00    +0.000 C 
BRANCH  15  16
ATOM     16  O   UNL     1       3.285   2.543  20.817  0.00  0.00    +0.000 OA
ATOM     17  H   UNL     1       3.109   2.725  19.877  0.00  0.00    +0.000 HD
ENDBRANCH  15  16
ENDBRANCH  14  15
ENDBRANCH  13  14
ENDBRANCH  12  13
ENDBRANCH   4  12
TORSDOF 7
ENDMDL
MODEL 6
REMARK VINA RESULT:      -5.6      2.393      2.644
REMARK  Name = 
REMARK  7 active torsions:
REMARK  status: ('A' for Active; 'I' for Inactive)
REMARK    1  A    between atoms: N_1  and  S_2
REMARK    2  A    between atoms: S_2  and  C_5
REMARK    3  A    between atoms: C_8  and  S_9
REMARK    4  A    between atoms: S_9  and  C_10
REMARK    5  A    between atoms: C_10  and  C_11
REMARK    6  A    between atoms: C_11  and  C_12
REMARK    7  A    between atoms: C_12  and  O_13
REMARK                            x       y       z     vdW  Elec       q    Type
REMARK                         _______ _______ _______ _____ _____    ______ ____
ROOT
ATOM      1  C   UNL     1       5.295   5.627  17.706  0.00  0.00    +0.000 A 
ATOM      2  C   UNL     1       4.450   6.638  17.292  0.00  0.00    +0.000 A 
ATOM      3  C   UNL     1       3.285   6.743  18.111  0.00  0.00    +0.000 A 
ATOM      4  C   UNL     1       3.281   5.814  19.128  0.00  0.00    +0.000 A 
ATOM      5  S   UNL     1       4.694   4.848  19.106  0.00  0.00    +0.000 S 
ENDROOT
BRANCH   1   6
ATOM      6  S   UNL     1       6.830   5.025  17.063  0.00  0.00    +0.000 S 
ATOM      7  O   UNL     1       7.534   4.447  18.182  0.00  0.00    +0.000 OA
ATOM      8  O   UNL     1       7.390   6.093  16.268  0.00  0.00    +0.000 OA
BRANCH   6   9
ATOM      9  N   UNL     1       6.504   3.764  15.994  0.00  0.00    +0.000 NA
ATOM     10  H   UNL     1       6.895   4.003  15.079  0.00  0.00    +0.000 HD
ATOM     11  H   UNL     1       5.496   3.612  15.937  0.00  0.00    +0.000 HD
ENDBRANCH   6   9
ENDBRANCH   1   6
BRANCH   4  12
ATOM     12  S   UNL     1       2.057   5.623  20.377  0.00  0.00    +0.000 S 
BRANCH  12  13
ATOM     13  C   UNL     1       2.137   3.829  20.690  0.00  0.00    +0.000 C 
BRANCH  13  14
ATOM     14  C   UNL     1       0.902   3.144  20.100  0.00  0.00    +0.000 C 
BRANCH  14  15
ATOM     15  C   UNL     1       1.167   2.611  18.696  0.00  0.00    +0.000 C 
BRANCH  15  16
ATOM     16  O   UNL     1       2.065   1.511  18.739  0.00  0.00    +0.000 OA
ATOM     17  H   UNL     1       1.768   0.863  18.077  0.00  0.00    +0.000 HD
ENDBRANCH  15  16
ENDBRANCH  14  15
ENDBRANCH  13  14
ENDBRANCH  12  13
ENDBRANCH   4  12
TORSDOF 7
ENDMDL
MODEL 7
REMARK VINA RESULT:      -5.6      1.807      2.024
REMARK  Name = 
REMARK  7 active torsions:
REMARK  status: ('A' for Active; 'I' for Inactive)
REMARK    1  A    between atoms: N_1  and  S_2
REMARK    2  A    between atoms: S_2  and  C_5
REMARK    3  A    between atoms: C_8  and  S_9
REMARK    4  A    between atoms: S_9  and  C_10
REMARK    5  A    between atoms: C_10  and  C_11
REMARK    6  A    between atoms: C_11  and  C_12
REMARK    7  A    between atoms: C_12  and  O_13
REMARK                            x       y       z     vdW  Elec       q    Type
REMARK                         _______ _______ _______ _____ _____    ______ ____
ROOT
ATOM      1  C   UNL     1       5.562   5.052  17.432  0.00  0.00    +0.000 A 
ATOM      2  C   UNL     1       5.785   4.838  18.778  0.00  0.00    +0.000 A 
ATOM      3  C   UNL     1       4.879   3.886  19.335  0.00  0.00    +0.000 A 
ATOM      4  C   UNL     1       3.998   3.397  18.395  0.00  0.00    +0.000 A 
ATOM      5  S   UNL     1       4.291   4.067  16.848  0.00  0.00    +0.000 S 
ENDROOT
BRANCH   1   6
ATOM      6  S   UNL     1       6.333   6.128  16.257  0.00  0.00    +0.000 S 
ATOM      7  O   UNL     1       5.263   6.710  15.484  0.00  0.00    +0.000 OA
ATOM      8  O   UNL     1       7.402   5.372  15.647  0.00  0.00    +0.000 OA
BRANCH   6   9
ATOM      9  N   UNL     1       7.069   7.393  17.091  0.00  0.00    +0.000 NA
ATOM     10  H   UNL     1       6.427   7.722  17.817  0.00  0.00    +0.000 HD
ATOM     11  H   UNL     1       7.308   8.143  16.441  0.00  0.00    +0.000 HD
ENDBRANCH   6   9
ENDBRANCH   1   6
BRANCH   4  12
ATOM     12  S   UNL     1       2.748   2.187  18.651  0.00  0.00    +0.000 S 
BRANCH  12  13
ATOM     13  C   UNL     1       1.250   3.224  18.722  0.00  0.00    +0.000 C 
BRANCH  13  14
ATOM     14  C   UNL     1       0.996   3.668  20.165  0.00  0.00    +0.000 C 
BRANCH  14  15
ATOM     15  C   UNL     1       1.495   2.638  21.171  0.00  0.00    +0.000 C 
BRANCH  15  16
ATOM     16  O   UNL     1       2.289   3.259  22.172  0.00  0.00    +0.000 OA
ATOM     17  H   UNL     1       1.920   4.145  22.333  0.00  0.00    +0.000 HD
ENDBRANCH  15  16
ENDBRANCH  14  15
ENDBRANCH  13  14
ENDBRANCH  12  13
ENDBRANCH   4  12
TORSDOF 7
ENDMDL
MODEL 8
REMARK VINA RESULT:      -5.6      1.539      1.802
REMARK  Name = 
REMARK  7 active torsions:
REMARK  status: ('A' for Active; 'I' for Inactive)
REMARK    1  A    between atoms: N_1  and  S_2
REMARK    2  A    between atoms: S_2  and  C_5
REMARK    3  A    between atoms: C_8  and  S_9
REMARK    4  A    between atoms: S_9  and  C_10
REMARK    5  A    between atoms: C_10  and  C_11
REMARK    6  A    between atoms: C_11  and  C_12
REMARK    7  A    between atoms: C_12  and  O_13
REMARK                            x       y       z     vdW  Elec       q    Type
REMARK                         _______ _______ _______ _____ _____    ______ ____
ROOT
ATOM      1  C   UNL     1       5.345   4.743  18.125  0.00  0.00    +0.000 A 
ATOM      2  C   UNL     1       4.328   5.182  17.298  0.00  0.00    +0.000 A 
ATOM      3  C   UNL     1       3.168   4.354  17.377  0.00  0.00    +0.000 A 
ATOM      4  C   UNL     1       3.331   3.315  18.267  0.00  0.00    +0.000 A 
ATOM      5  S   UNL     1       4.868   3.364  19.019  0.00  0.00    +0.000 S 
ENDROOT
BRANCH   1   6
ATOM      6  S   UNL     1       6.988   5.337  18.405  0.00  0.00    +0.000 S 
ATOM      7  O   UNL     1       7.173   5.347  19.835  0.00  0.00    +0.000 OA
ATOM      8  O   UNL     1       7.138   6.527  17.599  0.00  0.00    +0.000 OA
BRANCH   6   9
ATOM      9  N   UNL     1       8.077   4.211  17.785  0.00  0.00    +0.000 NA
ATOM     10  H   UNL     1       8.424   4.554  16.886  0.00  0.00    +0.000 HD
ATOM     11  H   UNL     1       7.616   3.305  17.682  0.00  0.00    +0.000 HD
ENDBRANCH   6   9
ENDBRANCH   1   6
BRANCH   4  12
ATOM     12  S   UNL     1       2.141   2.090  18.688  0.00  0.00    +0.000 S 
BRANCH  12  13
ATOM     13  C   UNL     1       0.812   3.110  19.407  0.00  0.00    +0.000 C 
BRANCH  13  14
ATOM     14  C   UNL     1       1.281   3.712  20.734  0.00  0.00    +0.000 C 
BRANCH  14  15
ATOM     15  C   UNL     1       1.383   5.231  20.661  0.00  0.00    +0.000 C 
BRANCH  15  16
ATOM     16  O   UNL     1       2.731   5.652  20.818  0.00  0.00    +0.000 OA
ATOM     17  H   UNL     1       3.257   4.869  21.059  0.00  0.00    +0.000 HD
ENDBRANCH  15  16
ENDBRANCH  14  15
ENDBRANCH  13  14
ENDBRANCH  12  13
ENDBRANCH   4  12
TORSDOF 7
ENDMDL
MODEL 9
REMARK VINA RESULT:      -5.5      2.319      2.425
REMARK  Name = 
REMARK  7 active torsions:
REMARK  status: ('A' for Active; 'I' for Inactive)
REMARK    1  A    between atoms: N_1  and  S_2
REMARK    2  A    between atoms: S_2  and  C_5
REMARK    3  A    between atoms: C_8  and  S_9
REMARK    4  A    between atoms: S_9  and  C_10
REMARK    5  A    between atoms: C_10  and  C_11
REMARK    6  A    between atoms: C_11  and  C_12
REMARK    7  A    between atoms: C_12  and  O_13
REMARK                            x       y       z     vdW  Elec       q    Type
REMARK                         _______ _______ _______ _____ _____    ______ ____
ROOT
ATOM      1  C   UNL     1       5.520   5.249  16.972  0.00  0.00    +0.000 A 
ATOM      2  C   UNL     1       4.864   6.455  16.818  0.00  0.00    +0.000 A 
ATOM      3  C   UNL     1       3.801   6.620  17.757  0.00  0.00    +0.000 A 
ATOM      4  C   UNL     1       3.684   5.538  18.602  0.00  0.00    +0.000 A 
ATOM      5  S   UNL     1       4.873   4.351  18.276  0.00  0.00    +0.000 S 
ENDROOT
BRANCH   1   6
ATOM      6  S   UNL     1       6.858   4.504  16.085  0.00  0.00    +0.000 S 
ATOM      7  O   UNL     1       6.288   3.399  15.353  0.00  0.00    +0.000 OA
ATOM      8  O   UNL     1       7.933   4.327  17.035  0.00  0.00    +0.000 OA
BRANCH   6   9
ATOM      9  N   UNL     1       7.420   5.604  14.940  0.00  0.00    +0.000 NA
ATOM     10  H   UNL     1       6.644   5.855  14.321  0.00  0.00    +0.000 HD
ATOM     11  H   UNL     1       8.192   5.191  14.414  0.00  0.00    +0.000 HD
ENDBRANCH   6   9
ENDBRANCH   1   6
BRANCH   4  12
ATOM     12  S   UNL     1       2.534   5.349  19.919  0.00  0.00    +0.000 S 
BRANCH  12  13
ATOM     13  C   UNL     1       1.383   4.119  19.222  0.00  0.00    +0.000 C 
BRANCH  13  14
ATOM     14  C   UNL     1       1.561   2.778  19.939  0.00  0.00    +0.000 C 
BRANCH  14  15
ATOM     15  C   UNL     1       2.312   2.937  21.256  0.00  0.00    +0.000 C 
BRANCH  15  16
ATOM     16  O   UNL     1       1.516   2.489  22.344  0.00  0.00    +0.000 OA
ATOM     17  H   UNL     1       2.103   2.379  23.113  0.00  0.00    +0.000 HD
ENDBRANCH  15  16
ENDBRANCH  14  15
ENDBRANCH  13  14
ENDBRANCH  12  13
ENDBRANCH   4  12
TORSDOF 7
ENDMDL
