MODEL 1
REMARK VINA RESULT:      -6.2      0.000      0.000
REMARK  Name = 
REMARK  5 active torsions:
REMARK  status: ('A' for Active; 'I' for Inactive)
REMARK    1  A    between atoms: C_1  and  N_2
REMARK    2  A    between atoms: C_3  and  O_5
REMARK    3  A    between atoms: O_5  and  C_6
REMARK    4  A    between atoms: C_9  and  N_10
REMARK    5  A    between atoms: C_13  and  C_14
REMARK                            x       y       z     vdW  Elec       q    Type
REMARK                         _______ _______ _______ _____ _____    ______ ____
ROOT
ATOM      1  C   UNL     1       3.243   4.972  17.611  0.00  0.00    +0.000 A 
ATOM      2  C   UNL     1       3.717   3.749  17.132  0.00  0.00    +0.000 A 
ATOM      3  C   UNL     1       5.030   3.651  16.684  0.00  0.00    +0.000 A 
ATOM      4  C   UNL     1       5.864   4.779  16.740  0.00  0.00    +0.000 A 
ATOM      5  C   UNL     1       5.413   6.017  17.238  0.00  0.00    +0.000 A 
ATOM      6  C   UNL     1       6.266   7.249  17.357  0.00  0.00    +0.000 C 
ATOM      7  C   UNL     1       4.077   6.093  17.680  0.00  0.00    +0.000 A 
ENDROOT
BRANCH   4   8
ATOM      8  N   UNL     1       7.232   4.594  16.283  0.00  0.00    +0.000 N 
ATOM      9  O   UNL     1       7.470   4.861  15.098  0.00  0.00    +0.000 OA
ATOM     10  O   UNL     1       8.062   4.210  17.118  0.00  0.00    +0.000 OA
ENDBRANCH   4   8
BRANCH   1  11
ATOM     11  O   UNL     1       1.955   5.086  18.168  0.00  0.00    +0.000 OA
BRANCH  11  14
ATOM     12  C   UNL     1       2.155   3.684  21.487  0.00  0.00    +0.000 C 
ATOM     13  N   UNL     1       2.165   4.561  20.348  0.00  0.00    +0.000 N 
ATOM     14  C   UNL     1       1.608   4.178  19.159  0.00  0.00    +0.000 C 
ATOM     15  O   UNL     1       0.950   3.159  19.001  0.00  0.00    +0.000 OA
ATOM     16  H   UNL     1       2.772   5.369  20.327  0.00  0.00    +0.000 HD
ENDBRANCH  11  14
ENDBRANCH   1  11
TORSDOF 3
ENDMDL
MODEL 2
REMARK VINA RESULT:      -6.2      1.387      2.045
REMARK  Name = 
REMARK  5 active torsions:
REMARK  status: ('A' for Active; 'I' for Inactive)
REMARK    1  A    between atoms: C_1  and  N_2
REMARK    2  A    between atoms: C_3  and  O_5
REMARK    3  A    between atoms: O_5  and  C_6
REMARK    4  A    between atoms: C_9  and  N_10
REMARK    5  A    between atoms: C_13  and  C_14
REMARK                            x       y       z     vdW  Elec       q    Type
REMARK                         _______ _______ _______ _____ _____    ______ ____
ROOT
ATOM      1  C   UNL     1       3.386   4.712  18.343  0.00  0.00    +0.000 A 
ATOM      2  C   UNL     1       4.341   5.247  19.209  0.00  0.00    +0.000 A 
ATOM      3  C   UNL     1       5.656   5.388  18.777  0.00  0.00    +0.000 A 
ATOM      4  C   UNL     1       5.996   5.008  17.470  0.00  0.00    +0.000 A 
ATOM      5  C   UNL     1       5.045   4.485  16.573  0.00  0.00    +0.000 A 
ATOM      6  C   UNL     1       5.340   4.094  15.151  0.00  0.00    +0.000 C 
ATOM      7  C   UNL     1       3.722   4.346  17.036  0.00  0.00    +0.000 A 
ENDROOT
BRANCH   4   8
ATOM      8  N   UNL     1       7.382   5.212  17.078  0.00  0.00    +0.000 N 
ATOM      9  O   UNL     1       8.163   4.270  17.265  0.00  0.00    +0.000 OA
ATOM     10  O   UNL     1       7.672   6.300  16.562  0.00  0.00    +0.000 OA
ENDBRANCH   4   8
BRANCH   1  11
ATOM     11  O   UNL     1       2.027   4.649  18.707  0.00  0.00    +0.000 OA
BRANCH  11  14
ATOM     12  C   UNL     1       1.477   2.605  21.630  0.00  0.00    +0.000 C 
ATOM     13  N   UNL     1       1.920   3.131  20.368  0.00  0.00    +0.000 N 
ATOM     14  C   UNL     1       1.739   4.449  20.050  0.00  0.00    +0.000 C 
ATOM     15  O   UNL     1       1.334   5.298  20.832  0.00  0.00    +0.000 OA
ATOM     16  H   UNL     1       2.159   2.508  19.609  0.00  0.00    +0.000 HD
ENDBRANCH  11  14
ENDBRANCH   1  11
TORSDOF 3
ENDMDL
MODEL 3
REMARK VINA RESULT:      -6.2      0.805      1.247
REMARK  Name = 
REMARK  5 active torsions:
REMARK  status: ('A' for Active; 'I' for Inactive)
REMARK    1  A    between atoms: C_1  and  N_2
REMARK    2  A    between atoms: C_3  and  O_5
REMARK    3  A    between atoms: O_5  and  C_6
REMARK    4  A    between atoms: C_9  and  N_10
REMARK    5  A    between atoms: C_13  and  C_14
REMARK                            x       y       z     vdW  Elec       q    Type
REMARK                         _______ _______ _______ _____ _____    ______ ____
ROOT
ATOM      1  C   UNL     1       3.313   5.010  17.616  0.00  0.00    +0.000 A 
ATOM      2  C   UNL     1       3.776   3.825  17.041  0.00  0.00    +0.000 A 
ATOM      3  C   UNL     1       5.073   3.767  16.543  0.00  0.00    +0.000 A 
ATOM      4  C   UNL     1       5.902   4.895  16.645  0.00  0.00    +0.000 A 
ATOM      5  C   UNL     1       5.462   6.094  17.239  0.00  0.00    +0.000 A 
ATOM      6  C   UNL     1       6.313   7.321  17.410  0.00  0.00    +0.000 C 
ATOM      7  C   UNL     1       4.143   6.130  17.730  0.00  0.00    +0.000 A 
ENDROOT
BRANCH   4   8
ATOM      8  N   UNL     1       7.255   4.751  16.130  0.00  0.00    +0.000 N 
ATOM      9  O   UNL     1       8.086   4.214  16.875  0.00  0.00    +0.000 OA
ATOM     10  O   UNL     1       7.469   5.149  14.978  0.00  0.00    +0.000 OA
ENDBRANCH   4   8
BRANCH   1  11
ATOM     11  O   UNL     1       2.044   5.078  18.222  0.00  0.00    +0.000 OA
BRANCH  11  14
ATOM     12  C   UNL     1       1.326   3.006  21.089  0.00  0.00    +0.000 C 
ATOM     13  N   UNL     1       1.677   3.496  19.784  0.00  0.00    +0.000 N 
ATOM     14  C   UNL     1       1.976   4.816  19.584  0.00  0.00    +0.000 C 
ATOM     15  O   UNL     1       2.110   5.637  20.481  0.00  0.00    +0.000 OA
ATOM     16  H   UNL     1       1.491   2.942  18.960  0.00  0.00    +0.000 HD
ENDBRANCH  11  14
ENDBRANCH   1  11
TORSDOF 3
ENDMDL
MODEL 4
REMARK VINA RESULT:      -6.2      1.686      5.746
REMARK  Name = 
REMARK  5 active torsions:
REMARK  status: ('A' for Active; 'I' for Inactive)
REMARK    1  A    between atoms: C_1  and  N_2
REMARK    2  A    between atoms: C_3  and  O_5
REMARK    3  A    between atoms: O_5  and  C_6
REMARK    4  A    between atoms: C_9  and  N_10
REMARK    5  A    between atoms: C_13  and  C_14
REMARK                            x       y       z     vdW  Elec       q    Type
REMARK                         _______ _______ _______ _____ _____    ______ ____
ROOT
ATOM      1  C   UNL     1       4.949   5.287  17.797  0.00  0.00    +0.000 A 
ATOM      2  C   UNL     1       3.745   5.973  17.624  0.00  0.00    +0.000 A 
ATOM      3  C   UNL     1       2.556   5.388  18.044  0.00  0.00    +0.000 A 
ATOM      4  C   UNL     1       2.586   4.124  18.653  0.00  0.00    +0.000 A 
ATOM      5  C   UNL     1       3.791   3.422  18.856  0.00  0.00    +0.000 A 
ATOM      6  C   UNL     1       3.892   2.084  19.534  0.00  0.00    +0.000 C 
ATOM      7  C   UNL     1       4.981   4.033  18.417  0.00  0.00    +0.000 A 
ENDROOT
BRANCH   4   8
ATOM      8  N   UNL     1       1.309   3.588  19.094  0.00  0.00    +0.000 N 
ATOM      9  O   UNL     1       0.881   3.981  20.187  0.00  0.00    +0.000 OA
ATOM     10  O   UNL     1       0.730   2.801  18.333  0.00  0.00    +0.000 OA
ENDBRANCH   4   8
BRANCH   1  11
ATOM     11  O   UNL     1       6.182   5.887  17.479  0.00  0.00    +0.000 OA
BRANCH  11  14
ATOM     12  C   UNL     1       6.979   4.794  14.133  0.00  0.00    +0.000 C 
ATOM     13  N   UNL     1       6.489   5.509  15.280  0.00  0.00    +0.000 N 
ATOM     14  C   UNL     1       6.973   5.250  16.532  0.00  0.00    +0.000 C 
ATOM     15  O   UNL     1       7.929   4.523  16.766  0.00  0.00    +0.000 OA
ATOM     16  H   UNL     1       5.632   6.042  15.224  0.00  0.00    +0.000 HD
ENDBRANCH  11  14
ENDBRANCH   1  11
TORSDOF 3
ENDMDL
MODEL 5
REMARK VINA RESULT:      -6.2      1.231      1.843
REMARK  Name = 
REMARK  5 active torsions:
REMARK  status: ('A' for Active; 'I' for Inactive)
REMARK    1  A    between atoms: C_1  and  N_2
REMARK    2  A    between atoms: C_3  and  O_5
REMARK    3  A    between atoms: O_5  and  C_6
REMARK    4  A    between atoms: C_9  and  N_10
REMARK    5  A    between atoms: C_13  and  C_14
REMARK                            x       y       z     vdW  Elec       q    Type
REMARK                         _______ _______ _______ _____ _____    ______ ____
ROOT
ATOM      1  C   UNL     1       3.215   4.676  18.307  0.00  0.00    +0.000 A 
ATOM      2  C   UNL     1       4.068   5.330  19.199  0.00  0.00    +0.000 A 
ATOM      3  C   UNL     1       5.410   5.489  18.872  0.00  0.00    +0.000 A 
ATOM      4  C   UNL     1       5.882   5.006  17.642  0.00  0.00    +0.000 A 
ATOM      5  C   UNL     1       5.036   4.361  16.719  0.00  0.00    +0.000 A 
ATOM      6  C   UNL     1       5.474   3.855  15.372  0.00  0.00    +0.000 C 
ATOM      7  C   UNL     1       3.682   4.207  17.075  0.00  0.00    +0.000 A 
ENDROOT
BRANCH   4   8
ATOM      8  N   UNL     1       7.290   5.234  17.356  0.00  0.00    +0.000 N 
ATOM      9  O   UNL     1       7.576   6.257  16.719  0.00  0.00    +0.000 OA
ATOM     10  O   UNL     1       8.100   4.404  17.792  0.00  0.00    +0.000 OA
ENDBRANCH   4   8
BRANCH   1  11
ATOM     11  O   UNL     1       1.832   4.586  18.555  0.00  0.00    +0.000 OA
BRANCH  11  14
ATOM     12  C   UNL     1       1.357   2.669  21.575  0.00  0.00    +0.000 C 
ATOM     13  N   UNL     1       1.529   3.723  20.613  0.00  0.00    +0.000 N 
ATOM     14  C   UNL     1       1.386   3.486  19.274  0.00  0.00    +0.000 C 
ATOM     15  O   UNL     1       0.973   2.437  18.799  0.00  0.00    +0.000 OA
ATOM     16  H   UNL     1       1.977   4.590  20.876  0.00  0.00    +0.000 HD
ENDBRANCH  11  14
ENDBRANCH   1  11
TORSDOF 3
ENDMDL
MODEL 6
REMARK VINA RESULT:      -6.1      1.771      5.449
REMARK  Name = 
REMARK  5 active torsions:
REMARK  status: ('A' for Active; 'I' for Inactive)
REMARK    1  A    between atoms: C_1  and  N_2
REMARK    2  A    between atoms: C_3  and  O_5
REMARK    3  A    between atoms: O_5  and  C_6
REMARK    4  A    between atoms: C_9  and  N_10
REMARK    5  A    between atoms: C_13  and  C_14
REMARK                            x       y       z     vdW  Elec       q    Type
REMARK                         _______ _______ _______ _____ _____    ______ ____
ROOT
ATOM      1  C   UNL     1       4.253   4.869  17.218  0.00  0.00    +0.000 A 
ATOM      2  C   UNL     1       3.138   5.591  17.648  0.00  0.00    +0.000 A 
ATOM      3  C   UNL     1       2.098   4.927  18.290  0.00  0.00    +0.000 A 
ATOM      4  C   UNL     1       2.197   3.545  18.514  0.00  0.00    +0.000 A 
ATOM      5  C   UNL     1       3.321   2.801  18.107  0.00  0.00    +0.000 A 
ATOM      6  C   UNL     1       3.501   1.328  18.349  0.00  0.00    +0.000 C 
ATOM      7  C   UNL     1       4.358   3.495  17.453  0.00  0.00    +0.000 A 
ENDROOT
BRANCH   4   8
ATOM      8  N   UNL     1       1.086   2.924  19.218  0.00  0.00    +0.000 N 
ATOM      9  O   UNL     1       0.255   2.315  18.531  0.00  0.00    +0.000 OA
ATOM     10  O   UNL     1       1.068   3.025  20.452  0.00  0.00    +0.000 OA
ENDBRANCH   4   8
BRANCH   1  11
ATOM     11  O   UNL     1       5.369   5.520  16.656  0.00  0.00    +0.000 OA
BRANCH  11  14
ATOM     12  C   UNL     1       7.845   5.844  19.262  0.00  0.00    +0.000 C 
ATOM     13  N   UNL     1       6.621   5.763  18.513  0.00  0.00    +0.000 N 
ATOM     14  C   UNL     1       6.606   5.273  17.236  0.00  0.00    +0.000 C 
ATOM     15  O   UNL     1       7.564   4.745  16.689  0.00  0.00    +0.000 OA
ATOM     16  H   UNL     1       5.799   6.268  18.816  0.00  0.00    +0.000 HD
ENDBRANCH  11  14
ENDBRANCH   1  11
TORSDOF 3
ENDMDL
MODEL 7
REMARK VINA RESULT:      -6.1      0.802      1.129
REMARK  Name = 
REMARK  5 active torsions:
REMARK  status: ('A' for Active; 'I' for Inactive)
REMARK    1  A    between atoms: C_1  and  N_2
REMARK    2  A    between atoms: C_3  and  O_5
REMARK    3  A    between atoms: O_5  and  C_6
REMARK    4  A    between atoms: C_9  and  N_10
REMARK    5  A    between atoms: C_13  and  C_14
REMARK                            x       y       z     vdW  Elec       q    Type
REMARK                         _______ _______ _______ _____ _____    ______ ____
ROOT
ATOM      1  C   UNL     1       2.899   4.396  17.644  0.00  0.00    +0.000 A 
ATOM      2  C   UNL     1       3.629   3.216  17.481  0.00  0.00    +0.000 A 
ATOM      3  C   UNL     1       4.996   3.284  17.238  0.00  0.00    +0.000 A 
ATOM      4  C   UNL     1       5.625   4.538  17.181  0.00  0.00    +0.000 A 
ATOM      5  C   UNL     1       4.913   5.739  17.361  0.00  0.00    +0.000 A 
ATOM      6  C   UNL     1       5.535   7.108  17.347  0.00  0.00    +0.000 C 
ATOM      7  C   UNL     1       3.528   5.645  17.600  0.00  0.00    +0.000 A 
ENDROOT
BRANCH   4   8
ATOM      8  N   UNL     1       7.061   4.530  16.953  0.00  0.00    +0.000 N 
ATOM      9  O   UNL     1       7.787   4.380  17.945  0.00  0.00    +0.000 OA
ATOM     10  O   UNL     1       7.452   4.646  15.784  0.00  0.00    +0.000 OA
ENDBRANCH   4   8
BRANCH   1  11
ATOM     11  O   UNL     1       1.536   4.367  17.992  0.00  0.00    +0.000 OA
BRANCH  11  14
ATOM     12  C   UNL     1       1.387   2.903  21.287  0.00  0.00    +0.000 C 
ATOM     13  N   UNL     1       1.479   3.806  20.173  0.00  0.00    +0.000 N 
ATOM     14  C   UNL     1       1.135   3.406  18.911  0.00  0.00    +0.000 C 
ATOM     15  O   UNL     1       0.602   2.338  18.647  0.00  0.00    +0.000 OA
ATOM     16  H   UNL     1       2.007   4.665  20.250  0.00  0.00    +0.000 HD
ENDBRANCH  11  14
ENDBRANCH   1  11
TORSDOF 3
ENDMDL
MODEL 8
REMARK VINA RESULT:      -6.0      1.992      5.765
REMARK  Name = 
REMARK  5 active torsions:
REMARK  status: ('A' for Active; 'I' for Inactive)
REMARK    1  A    between atoms: C_1  and  N_2
REMARK    2  A    between atoms: C_3  and  O_5
REMARK    3  A    between atoms: O_5  and  C_6
REMARK    4  A    between atoms: C_9  and  N_10
REMARK    5  A    between atoms: C_13  and  C_14
REMARK                            x       y       z     vdW  Elec       q    Type
REMARK                         _______ _______ _______ _____ _____    ______ ____
ROOT
ATOM      1  C   UNL     1       4.267   5.021  17.651  0.00  0.00    +0.000 A 
ATOM      2  C   UNL     1       3.083   5.678  17.991  0.00  0.00    +0.000 A 
ATOM      3  C   UNL     1       2.014   4.946  18.496  0.00  0.00    +0.000 A 
ATOM      4  C   UNL     1       2.150   3.560  18.675  0.00  0.00    +0.000 A 
ATOM      5  C   UNL     1       3.342   2.880  18.357  0.00  0.00    +0.000 A 
ATOM      6  C   UNL     1       3.561   1.407  18.559  0.00  0.00    +0.000 C 
ATOM      7  C   UNL     1       4.408   3.643  17.841  0.00  0.00    +0.000 A 
ENDROOT
BRANCH   4   8
ATOM      8  N   UNL     1       1.003   2.865  19.235  0.00  0.00    +0.000 N 
ATOM      9  O   UNL     1       0.262   2.270  18.440  0.00  0.00    +0.000 OA
ATOM     10  O   UNL     1       0.864   2.896  20.465  0.00  0.00    +0.000 OA
ENDBRANCH   4   8
BRANCH   1  11
ATOM     11  O   UNL     1       5.404   5.739  17.234  0.00  0.00    +0.000 OA
BRANCH  11  14
ATOM     12  C   UNL     1       6.986   4.862  14.111  0.00  0.00    +0.000 C 
ATOM     13  N   UNL     1       6.427   4.849  15.435  0.00  0.00    +0.000 N 
ATOM     14  C   UNL     1       5.612   5.860  15.866  0.00  0.00    +0.000 C 
ATOM     15  O   UNL     1       5.183   6.753  15.150  0.00  0.00    +0.000 OA
ATOM     16  H   UNL     1       6.798   4.230  16.143  0.00  0.00    +0.000 HD
ENDBRANCH  11  14
ENDBRANCH   1  11
TORSDOF 3
ENDMDL
MODEL 9
REMARK VINA RESULT:      -6.0      1.289      1.293
REMARK  Name = 
REMARK  5 active torsions:
REMARK  status: ('A' for Active; 'I' for Inactive)
REMARK    1  A    between atoms: C_1  and  N_2
REMARK    2  A    between atoms: C_3  and  O_5
REMARK    3  A    between atoms: O_5  and  C_6
REMARK    4  A    between atoms: C_9  and  N_10
REMARK    5  A    between atoms: C_13  and  C_14
REMARK                            x       y       z     vdW  Elec       q    Type
REMARK                         _______ _______ _______ _____ _____    ______ ____
ROOT
ATOM      1  C   UNL     1       3.442   4.782  18.311  0.00  0.00    +0.000 A 
ATOM      2  C   UNL     1       3.639   4.486  16.961  0.00  0.00    +0.000 A 
ATOM      3  C   UNL     1       4.916   4.579  16.418  0.00  0.00    +0.000 A 
ATOM      4  C   UNL     1       5.990   4.948  17.242  0.00  0.00    +0.000 A 
ATOM      5  C   UNL     1       5.818   5.231  18.612  0.00  0.00    +0.000 A 
ATOM      6  C   UNL     1       6.932   5.596  19.552  0.00  0.00    +0.000 C 
ATOM      7  C   UNL     1       4.514   5.136  19.136  0.00  0.00    +0.000 A 
ENDROOT
BRANCH   4   8
ATOM      8  N   UNL     1       7.301   4.995  16.614  0.00  0.00    +0.000 N 
ATOM      9  O   UNL     1       7.510   5.919  15.817  0.00  0.00    +0.000 OA
ATOM     10  O   UNL     1       8.119   4.124  16.941  0.00  0.00    +0.000 OA
ENDBRANCH   4   8
BRANCH   1  11
ATOM     11  O   UNL     1       2.185   4.601  18.920  0.00  0.00    +0.000 OA
BRANCH  11  14
ATOM     12  C   UNL     1       1.623   2.559  21.842  0.00  0.00    +0.000 C 
ATOM     13  N   UNL     1       1.673   3.634  20.889  0.00  0.00    +0.000 N 
ATOM     14  C   UNL     1       1.964   3.396  19.574  0.00  0.00    +0.000 C 
ATOM     15  O   UNL     1       2.059   2.282  19.078  0.00  0.00    +0.000 OA
ATOM     16  H   UNL     1       1.724   4.594  21.200  0.00  0.00    +0.000 HD
ENDBRANCH  11  14
ENDBRANCH   1  11
TORSDOF 3
ENDMDL
