MODEL 1
REMARK VINA RESULT:      -6.4      0.000      0.000
REMARK  Name = 
REMARK  8 active torsions:
REMARK  status: ('A' for Active; 'I' for Inactive)
REMARK    1  A    between atoms: C_2  and  O_3
REMARK    2  A    between atoms: C_2  and  C_4
REMARK    3  A    between atoms: C_4  and  O_5
REMARK    4  A    between atoms: O_5  and  C_6
REMARK    5  A    between atoms: C_15  and  N_16
REMARK    6  A    between atoms: C_20  and  C_21
REMARK    7  A    between atoms: C_23  and  C_24
REMARK    8  A    between atoms: C_30  and  C_31
REMARK                            x       y       z     vdW  Elec       q    Type
REMARK                         _______ _______ _______ _____ _____    ______ ____
ROOT
ATOM      1  N   UNL     1       0.089  17.179  20.743  0.00  0.00    +0.000 NA
ATOM      2  C   UNL     1       0.558  18.341  19.967  0.00  0.00    +0.000 C 
ATOM      3  C   UNL     1       0.539  17.890  18.528  0.00  0.00    +0.000 C 
ATOM      4  C   UNL     1       0.958  16.437  18.602  0.00  0.00    +0.000 C 
ATOM      5  C   UNL     1       0.713  15.986  20.061  0.00  0.00    +0.000 C 
ENDROOT
BRANCH   1  15
ATOM      6  C   UNL     1      -3.180  14.227  22.754  0.00  0.00    +0.000 A 
ATOM      7  C   UNL     1      -2.359  14.069  23.889  0.00  0.00    +0.000 A 
ATOM      8  C   UNL     1      -1.362  14.955  24.208  0.00  0.00    +0.000 A 
ATOM      9  C   UNL     1      -1.130  16.003  23.345  0.00  0.00    +0.000 A 
ATOM     10  C   UNL     1      -1.838  16.170  22.146  0.00  0.00    +0.000 A 
ATOM     11  C   UNL     1      -2.979  15.341  21.912  0.00  0.00    +0.000 A 
ATOM     12  C   UNL     1      -3.919  15.684  20.791  0.00  0.00    +0.000 C 
ATOM     13  C   UNL     1      -3.705  17.069  20.168  0.00  0.00    +0.000 C 
ATOM     14  C   UNL     1      -2.230  17.332  19.894  0.00  0.00    +0.000 C 
ATOM     15  C   UNL     1      -1.338  17.260  21.181  0.00  0.00    +0.000 C 
BRANCH   6  16
ATOM     16  O   UNL     1      -3.928  13.117  22.638  0.00  0.00    +0.000 OA
BRANCH  16  17
ATOM     17  C   UNL     1      -5.242  12.679  22.545  0.00  0.00    +0.000 C 
BRANCH  17  19
ATOM     18  O   UNL     1      -6.891  11.902  24.155  0.00  0.00    +0.000 OA
ATOM     19  C   UNL     1      -6.489  12.808  23.424  0.00  0.00    +0.000 C 
BRANCH  19  20
ATOM     20  O   UNL     1      -7.206  13.925  23.229  0.00  0.00    +0.000 OA
ATOM     21  H   UNL     1      -6.641  14.702  23.082  0.00  0.00    +0.000 HD
ENDBRANCH  19  20
ENDBRANCH  17  19
ENDBRANCH  16  17
ENDBRANCH   6  16
ENDBRANCH   1  15
BRANCH   5  22
ATOM     22  C   UNL     1       0.176  14.558  20.136  0.00  0.00    +0.000 A 
ATOM     23  N   UNL     1       0.427  13.590  21.000  0.00  0.00    +0.000 NA
ATOM     24  C   UNL     1      -0.432  12.565  20.640  0.00  0.00    +0.000 A 
ATOM     25  C   UNL     1      -1.216  12.940  19.561  0.00  0.00    +0.000 A 
ATOM     26  O   UNL     1      -0.799  14.207  19.206  0.00  0.00    +0.000 OA
BRANCH  24  27
ATOM     27  C   UNL     1      -0.440  11.276  21.299  0.00  0.00    +0.000 A 
ATOM     28  C   UNL     1      -0.726  11.184  22.666  0.00  0.00    +0.000 A 
ATOM     29  C   UNL     1      -0.691   9.944  23.310  0.00  0.00    +0.000 A 
ATOM     30  C   UNL     1      -0.370   8.791  22.595  0.00  0.00    +0.000 A 
ATOM     31  C   UNL     1      -0.091   8.871  21.233  0.00  0.00    +0.000 A 
ATOM     32  C   UNL     1      -0.124  10.108  20.589  0.00  0.00    +0.000 A 
ENDBRANCH  24  27
BRANCH  25  33
ATOM     33  C   UNL     1      -2.293  12.316  18.776  0.00  0.00    +0.000 A 
ATOM     34  C   UNL     1      -3.621  12.281  19.245  0.00  0.00    +0.000 A 
ATOM     35  C   UNL     1      -4.625  11.573  18.566  0.00  0.00    +0.000 A 
ATOM     36  C   UNL     1      -4.322  10.897  17.388  0.00  0.00    +0.000 A 
ATOM     37  C   UNL     1      -3.025  10.952  16.887  0.00  0.00    +0.000 A 
ATOM     38  C   UNL     1      -2.022  11.658  17.569  0.00  0.00    +0.000 A 
ENDBRANCH  25  33
ENDBRANCH   5  22
TORSDOF 8
ENDMDL
MODEL 2
REMARK VINA RESULT:      -6.4      1.461      3.688
REMARK  Name = 
REMARK  8 active torsions:
REMARK  status: ('A' for Active; 'I' for Inactive)
REMARK    1  A    between atoms: C_2  and  O_3
REMARK    2  A    between atoms: C_2  and  C_4
REMARK    3  A    between atoms: C_4  and  O_5
REMARK    4  A    between atoms: O_5  and  C_6
REMARK    5  A    between atoms: C_15  and  N_16
REMARK    6  A    between atoms: C_20  and  C_21
REMARK    7  A    between atoms: C_23  and  C_24
REMARK    8  A    between atoms: C_30  and  C_31
REMARK                            x       y       z     vdW  Elec       q    Type
REMARK                         _______ _______ _______ _____ _____    ______ ____
ROOT
ATOM      1  N   UNL     1       2.377  16.252  19.683  0.00  0.00    +0.000 NA
ATOM      2  C   UNL     1       3.383  16.966  18.878  0.00  0.00    +0.000 C 
ATOM      3  C   UNL     1       3.197  16.460  17.470  0.00  0.00    +0.000 C 
ATOM      4  C   UNL     1       2.845  14.999  17.658  0.00  0.00    +0.000 C 
ATOM      5  C   UNL     1       2.358  14.853  19.119  0.00  0.00    +0.000 C 
ENDROOT
BRANCH   1  15
ATOM      6  C   UNL     1      -2.100  15.404  21.320  0.00  0.00    +0.000 A 
ATOM      7  C   UNL     1      -1.576  14.859  22.509  0.00  0.00    +0.000 A 
ATOM      8  C   UNL     1      -0.300  15.113  22.938  0.00  0.00    +0.000 A 
ATOM      9  C   UNL     1       0.508  15.887  22.136  0.00  0.00    +0.000 A 
ATOM     10  C   UNL     1       0.092  16.383  20.892  0.00  0.00    +0.000 A 
ATOM     11  C   UNL     1      -1.287  16.251  20.538  0.00  0.00    +0.000 A 
ATOM     12  C   UNL     1      -1.819  17.018  19.360  0.00  0.00    +0.000 C 
ATOM     13  C   UNL     1      -0.875  18.093  18.807  0.00  0.00    +0.000 C 
ATOM     14  C   UNL     1       0.544  17.563  18.660  0.00  0.00    +0.000 C 
ATOM     15  C   UNL     1       1.160  17.055  20.010  0.00  0.00    +0.000 C 
BRANCH   6  16
ATOM     16  O   UNL     1      -3.296  14.833  21.104  0.00  0.00    +0.000 OA
BRANCH  16  17
ATOM     17  C   UNL     1      -4.479  14.476  21.740  0.00  0.00    +0.000 C 
BRANCH  17  19
ATOM     18  O   UNL     1      -5.727  13.564  23.617  0.00  0.00    +0.000 OA
ATOM     19  C   UNL     1      -4.883  13.388  22.738  0.00  0.00    +0.000 C 
BRANCH  19  20
ATOM     20  O   UNL     1      -4.140  12.271  22.691  0.00  0.00    +0.000 OA
ATOM     21  H   UNL     1      -4.305  11.690  23.452  0.00  0.00    +0.000 HD
ENDBRANCH  19  20
ENDBRANCH  17  19
ENDBRANCH  16  17
ENDBRANCH   6  16
ENDBRANCH   1  15
BRANCH   5  22
ATOM     22  C   UNL     1       1.187  13.879  19.237  0.00  0.00    +0.000 A 
ATOM     23  N   UNL     1       0.148  13.685  18.444  0.00  0.00    +0.000 NA
ATOM     24  C   UNL     1      -0.514  12.597  18.990  0.00  0.00    +0.000 A 
ATOM     25  C   UNL     1       0.156  12.129  20.109  0.00  0.00    +0.000 A 
ATOM     26  O   UNL     1       1.229  12.976  20.296  0.00  0.00    +0.000 OA
BRANCH  24  27
ATOM     27  C   UNL     1      -1.760  12.085  18.459  0.00  0.00    +0.000 A 
ATOM     28  C   UNL     1      -2.948  12.227  19.185  0.00  0.00    +0.000 A 
ATOM     29  C   UNL     1      -4.142  11.695  18.691  0.00  0.00    +0.000 A 
ATOM     30  C   UNL     1      -4.156  11.017  17.471  0.00  0.00    +0.000 A 
ATOM     31  C   UNL     1      -2.981  10.878  16.738  0.00  0.00    +0.000 A 
ATOM     32  C   UNL     1      -1.788  11.407  17.231  0.00  0.00    +0.000 A 
ENDBRANCH  24  27
BRANCH  25  33
ATOM     33  C   UNL     1      -0.034  11.024  21.062  0.00  0.00    +0.000 A 
ATOM     34  C   UNL     1       0.200   9.685  20.693  0.00  0.00    +0.000 A 
ATOM     35  C   UNL     1      -0.105   8.618  21.552  0.00  0.00    +0.000 A 
ATOM     36  C   UNL     1      -0.637   8.872  22.813  0.00  0.00    +0.000 A 
ATOM     37  C   UNL     1      -0.838  10.190  23.212  0.00  0.00    +0.000 A 
ATOM     38  C   UNL     1      -0.536  11.255  22.350  0.00  0.00    +0.000 A 
ENDBRANCH  25  33
ENDBRANCH   5  22
TORSDOF 8
ENDMDL
MODEL 3
REMARK VINA RESULT:      -6.3      2.160      6.764
REMARK  Name = 
REMARK  8 active torsions:
REMARK  status: ('A' for Active; 'I' for Inactive)
REMARK    1  A    between atoms: C_2  and  O_3
REMARK    2  A    between atoms: C_2  and  C_4
REMARK    3  A    between atoms: C_4  and  O_5
REMARK    4  A    between atoms: O_5  and  C_6
REMARK    5  A    between atoms: C_15  and  N_16
REMARK    6  A    between atoms: C_20  and  C_21
REMARK    7  A    between atoms: C_23  and  C_24
REMARK    8  A    between atoms: C_30  and  C_31
REMARK                            x       y       z     vdW  Elec       q    Type
REMARK                         _______ _______ _______ _____ _____    ______ ____
ROOT
ATOM      1  N   UNL     1       0.950  10.183  20.724  0.00  0.00    +0.000 NA
ATOM      2  C   UNL     1       1.165   8.725  20.712  0.00  0.00    +0.000 C 
ATOM      3  C   UNL     1      -0.060   8.138  21.366  0.00  0.00    +0.000 C 
ATOM      4  C   UNL     1      -0.406   9.141  22.447  0.00  0.00    +0.000 C 
ATOM      5  C   UNL     1       0.296  10.463  22.055  0.00  0.00    +0.000 C 
ENDROOT
BRANCH   1  15
ATOM      6  C   UNL     1       0.172  14.581  18.855  0.00  0.00    +0.000 A 
ATOM      7  C   UNL     1       1.522  14.925  19.069  0.00  0.00    +0.000 A 
ATOM      8  C   UNL     1       2.504  13.986  19.247  0.00  0.00    +0.000 A 
ATOM      9  C   UNL     1       2.131  12.660  19.272  0.00  0.00    +0.000 A 
ATOM     10  C   UNL     1       0.796  12.244  19.167  0.00  0.00    +0.000 A 
ATOM     11  C   UNL     1      -0.190  13.218  18.815  0.00  0.00    +0.000 A 
ATOM     12  C   UNL     1      -1.564  12.760  18.414  0.00  0.00    +0.000 C 
ATOM     13  C   UNL     1      -1.694  11.253  18.156  0.00  0.00    +0.000 C 
ATOM     14  C   UNL     1      -1.026  10.442  19.258  0.00  0.00    +0.000 C 
ATOM     15  C   UNL     1       0.502  10.754  19.418  0.00  0.00    +0.000 C 
BRANCH   6  16
ATOM     16  O   UNL     1      -0.546  15.716  18.889  0.00  0.00    +0.000 OA
BRANCH  16  17
ATOM     17  C   UNL     1      -0.537  17.039  18.466  0.00  0.00    +0.000 C 
BRANCH  17  19
ATOM     18  O   UNL     1       0.016  18.166  16.383  0.00  0.00    +0.000 OA
ATOM     19  C   UNL     1       0.347  17.868  17.531  0.00  0.00    +0.000 C 
BRANCH  19  20
ATOM     20  O   UNL     1       1.581  18.122  17.996  0.00  0.00    +0.000 OA
ATOM     21  H   UNL     1       1.704  19.061  18.213  0.00  0.00    +0.000 HD
ENDBRANCH  19  20
ENDBRANCH  17  19
ENDBRANCH  16  17
ENDBRANCH   6  16
ENDBRANCH   1  15
BRANCH   5  22
ATOM     22  C   UNL     1      -0.569  11.683  22.364  0.00  0.00    +0.000 A 
ATOM     23  N   UNL     1      -0.246  12.959  22.475  0.00  0.00    +0.000 NA
ATOM     24  C   UNL     1      -1.454  13.615  22.644  0.00  0.00    +0.000 A 
ATOM     25  C   UNL     1      -2.508  12.716  22.610  0.00  0.00    +0.000 A 
ATOM     26  O   UNL     1      -1.941  11.466  22.472  0.00  0.00    +0.000 OA
BRANCH  24  27
ATOM     27  C   UNL     1      -1.551  15.042  22.870  0.00  0.00    +0.000 A 
ATOM     28  C   UNL     1      -1.151  15.591  24.094  0.00  0.00    +0.000 A 
ATOM     29  C   UNL     1      -1.285  16.962  24.327  0.00  0.00    +0.000 A 
ATOM     30  C   UNL     1      -1.819  17.793  23.341  0.00  0.00    +0.000 A 
ATOM     31  C   UNL     1      -2.212  17.257  22.118  0.00  0.00    +0.000 A 
ATOM     32  C   UNL     1      -2.081  15.888  21.885  0.00  0.00    +0.000 A 
ENDBRANCH  24  27
BRANCH  25  33
ATOM     33  C   UNL     1      -3.974  12.809  22.701  0.00  0.00    +0.000 A 
ATOM     34  C   UNL     1      -4.630  12.904  23.944  0.00  0.00    +0.000 A 
ATOM     35  C   UNL     1      -6.029  12.860  24.045  0.00  0.00    +0.000 A 
ATOM     36  C   UNL     1      -6.805  12.736  22.896  0.00  0.00    +0.000 A 
ATOM     37  C   UNL     1      -6.178  12.682  21.656  0.00  0.00    +0.000 A 
ATOM     38  C   UNL     1      -4.778  12.723  21.557  0.00  0.00    +0.000 A 
ENDBRANCH  25  33
ENDBRANCH   5  22
TORSDOF 8
ENDMDL
MODEL 4
REMARK VINA RESULT:      -6.3      1.522      3.775
REMARK  Name = 
REMARK  8 active torsions:
REMARK  status: ('A' for Active; 'I' for Inactive)
REMARK    1  A    between atoms: C_2  and  O_3
REMARK    2  A    between atoms: C_2  and  C_4
REMARK    3  A    between atoms: C_4  and  O_5
REMARK    4  A    between atoms: O_5  and  C_6
REMARK    5  A    between atoms: C_15  and  N_16
REMARK    6  A    between atoms: C_20  and  C_21
REMARK    7  A    between atoms: C_23  and  C_24
REMARK    8  A    between atoms: C_30  and  C_31
REMARK                            x       y       z     vdW  Elec       q    Type
REMARK                         _______ _______ _______ _____ _____    ______ ____
ROOT
ATOM      1  N   UNL     1       2.389  16.255  19.722  0.00  0.00    +0.000 NA
ATOM      2  C   UNL     1       3.401  16.975  18.928  0.00  0.00    +0.000 C 
ATOM      3  C   UNL     1       3.235  16.465  17.518  0.00  0.00    +0.000 C 
ATOM      4  C   UNL     1       2.890  15.003  17.704  0.00  0.00    +0.000 C 
ATOM      5  C   UNL     1       2.386  14.855  19.159  0.00  0.00    +0.000 C 
ENDROOT
BRANCH   1  15
ATOM      6  C   UNL     1      -2.107  15.380  21.292  0.00  0.00    +0.000 A 
ATOM      7  C   UNL     1      -1.597  14.835  22.488  0.00  0.00    +0.000 A 
ATOM      8  C   UNL     1      -0.328  15.095  22.936  0.00  0.00    +0.000 A 
ATOM      9  C   UNL     1       0.487  15.876  22.146  0.00  0.00    +0.000 A 
ATOM     10  C   UNL     1       0.087  16.371  20.898  0.00  0.00    +0.000 A 
ATOM     11  C   UNL     1      -1.287  16.233  20.524  0.00  0.00    +0.000 A 
ATOM     12  C   UNL     1      -1.806  16.999  19.340  0.00  0.00    +0.000 C 
ATOM     13  C   UNL     1      -0.860  18.081  18.803  0.00  0.00    +0.000 C 
ATOM     14  C   UNL     1       0.564  17.558  18.675  0.00  0.00    +0.000 C 
ATOM     15  C   UNL     1       1.163  17.051  20.032  0.00  0.00    +0.000 C 
BRANCH   6  16
ATOM     16  O   UNL     1      -3.296  14.803  21.059  0.00  0.00    +0.000 OA
BRANCH  16  17
ATOM     17  C   UNL     1      -4.523  14.526  21.649  0.00  0.00    +0.000 C 
BRANCH  17  19
ATOM     18  O   UNL     1      -5.167  12.327  22.463  0.00  0.00    +0.000 OA
ATOM     19  C   UNL     1      -5.423  13.292  21.742  0.00  0.00    +0.000 C 
BRANCH  19  20
ATOM     20  O   UNL     1      -6.438  13.264  20.864  0.00  0.00    +0.000 OA
ATOM     21  H   UNL     1      -7.089  13.964  21.036  0.00  0.00    +0.000 HD
ENDBRANCH  19  20
ENDBRANCH  17  19
ENDBRANCH  16  17
ENDBRANCH   6  16
ENDBRANCH   1  15
BRANCH   5  22
ATOM     22  C   UNL     1       1.219  13.874  19.264  0.00  0.00    +0.000 A 
ATOM     23  N   UNL     1       0.191  13.674  18.459  0.00  0.00    +0.000 NA
ATOM     24  C   UNL     1      -0.470  12.582  18.998  0.00  0.00    +0.000 A 
ATOM     25  C   UNL     1       0.189  12.119  20.125  0.00  0.00    +0.000 A 
ATOM     26  O   UNL     1       1.254  12.973  20.325  0.00  0.00    +0.000 OA
BRANCH  24  27
ATOM     27  C   UNL     1      -1.707  12.061  18.452  0.00  0.00    +0.000 A 
ATOM     28  C   UNL     1      -1.732  11.509  17.166  0.00  0.00    +0.000 A 
ATOM     29  C   UNL     1      -2.934  11.047  16.624  0.00  0.00    +0.000 A 
ATOM     30  C   UNL     1      -4.116  11.133  17.360  0.00  0.00    +0.000 A 
ATOM     31  C   UNL     1      -4.098  11.674  18.643  0.00  0.00    +0.000 A 
ATOM     32  C   UNL     1      -2.899  12.138  19.185  0.00  0.00    +0.000 A 
ENDBRANCH  24  27
BRANCH  25  33
ATOM     33  C   UNL     1      -0.005  11.013  21.077  0.00  0.00    +0.000 A 
ATOM     34  C   UNL     1       0.238   9.675  20.711  0.00  0.00    +0.000 A 
ATOM     35  C   UNL     1      -0.072   8.607  21.568  0.00  0.00    +0.000 A 
ATOM     36  C   UNL     1      -0.617   8.860  22.823  0.00  0.00    +0.000 A 
ATOM     37  C   UNL     1      -0.827  10.177  23.220  0.00  0.00    +0.000 A 
ATOM     38  C   UNL     1      -0.521  11.243  22.359  0.00  0.00    +0.000 A 
ENDBRANCH  25  33
ENDBRANCH   5  22
TORSDOF 8
ENDMDL
MODEL 5
REMARK VINA RESULT:      -6.3      1.157      3.402
REMARK  Name = 
REMARK  8 active torsions:
REMARK  status: ('A' for Active; 'I' for Inactive)
REMARK    1  A    between atoms: C_2  and  O_3
REMARK    2  A    between atoms: C_2  and  C_4
REMARK    3  A    between atoms: C_4  and  O_5
REMARK    4  A    between atoms: O_5  and  C_6
REMARK    5  A    between atoms: C_15  and  N_16
REMARK    6  A    between atoms: C_20  and  C_21
REMARK    7  A    between atoms: C_23  and  C_24
REMARK    8  A    between atoms: C_30  and  C_31
REMARK                            x       y       z     vdW  Elec       q    Type
REMARK                         _______ _______ _______ _____ _____    ______ ____
ROOT
ATOM      1  N   UNL     1       0.609  16.719  20.763  0.00  0.00    +0.000 NA
ATOM      2  C   UNL     1       1.296  17.873  20.157  0.00  0.00    +0.000 C 
ATOM      3  C   UNL     1       1.213  17.646  18.668  0.00  0.00    +0.000 C 
ATOM      4  C   UNL     1       1.354  16.145  18.526  0.00  0.00    +0.000 C 
ATOM      5  C   UNL     1       1.009  15.542  19.908  0.00  0.00    +0.000 C 
ENDROOT
BRANCH   1  15
ATOM      6  C   UNL     1      -3.195  14.163  22.324  0.00  0.00    +0.000 A 
ATOM      7  C   UNL     1      -2.439  13.674  23.407  0.00  0.00    +0.000 A 
ATOM      8  C   UNL     1      -1.297  14.291  23.850  0.00  0.00    +0.000 A 
ATOM      9  C   UNL     1      -0.856  15.398  23.161  0.00  0.00    +0.000 A 
ATOM     10  C   UNL     1      -1.498  15.886  22.014  0.00  0.00    +0.000 A 
ATOM     11  C   UNL     1      -2.772  15.338  21.667  0.00  0.00    +0.000 A 
ATOM     12  C   UNL     1      -3.610  16.028  20.628  0.00  0.00    +0.000 C 
ATOM     13  C   UNL     1      -3.125  17.428  20.231  0.00  0.00    +0.000 C 
ATOM     14  C   UNL     1      -1.623  17.445  19.982  0.00  0.00    +0.000 C 
ATOM     15  C   UNL     1      -0.783  17.000  21.228  0.00  0.00    +0.000 C 
BRANCH   6  16
ATOM     16  O   UNL     1      -4.139  13.250  22.043  0.00  0.00    +0.000 OA
BRANCH  16  17
ATOM     17  C   UNL     1      -5.515  13.071  21.976  0.00  0.00    +0.000 C 
BRANCH  17  19
ATOM     18  O   UNL     1      -7.083  13.127  20.118  0.00  0.00    +0.000 OA
ATOM     19  C   UNL     1      -6.476  12.458  20.954  0.00  0.00    +0.000 C 
BRANCH  19  20
ATOM     20  O   UNL     1      -6.733  11.152  21.131  0.00  0.00    +0.000 OA
ATOM     21  H   UNL     1      -7.218  10.770  20.380  0.00  0.00    +0.000 HD
ENDBRANCH  19  20
ENDBRANCH  17  19
ENDBRANCH  16  17
ENDBRANCH   6  16
ENDBRANCH   1  15
BRANCH   5  22
ATOM     22  C   UNL     1       0.215  14.242  19.783  0.00  0.00    +0.000 A 
ATOM     23  N   UNL     1      -0.650  13.850  18.866  0.00  0.00    +0.000 NA
ATOM     24  C   UNL     1      -0.954  12.541  19.206  0.00  0.00    +0.000 A 
ATOM     25  C   UNL     1      -0.241  12.150  20.328  0.00  0.00    +0.000 A 
ATOM     26  O   UNL     1       0.481  13.255  20.728  0.00  0.00    +0.000 OA
BRANCH  24  27
ATOM     27  C   UNL     1      -1.927  11.746  18.486  0.00  0.00    +0.000 A 
ATOM     28  C   UNL     1      -1.506  10.764  17.582  0.00  0.00    +0.000 A 
ATOM     29  C   UNL     1      -2.446  10.027  16.857  0.00  0.00    +0.000 A 
ATOM     30  C   UNL     1      -3.809  10.266  17.028  0.00  0.00    +0.000 A 
ATOM     31  C   UNL     1      -4.238  11.236  17.932  0.00  0.00    +0.000 A 
ATOM     32  C   UNL     1      -3.301  11.974  18.655  0.00  0.00    +0.000 A 
ENDBRANCH  24  27
BRANCH  25  33
ATOM     33  C   UNL     1      -0.121  10.914  21.118  0.00  0.00    +0.000 A 
ATOM     34  C   UNL     1      -0.566  10.849  22.453  0.00  0.00    +0.000 A 
ATOM     35  C   UNL     1      -0.334   9.719  23.254  0.00  0.00    +0.000 A 
ATOM     36  C   UNL     1       0.336   8.620  22.726  0.00  0.00    +0.000 A 
ATOM     37  C   UNL     1       0.748   8.649  21.397  0.00  0.00    +0.000 A 
ATOM     38  C   UNL     1       0.518   9.781  20.600  0.00  0.00    +0.000 A 
ENDBRANCH  25  33
ENDBRANCH   5  22
TORSDOF 8
ENDMDL
MODEL 6
REMARK VINA RESULT:      -6.2      8.165     11.446
REMARK  Name = 
REMARK  8 active torsions:
REMARK  status: ('A' for Active; 'I' for Inactive)
REMARK    1  A    between atoms: C_2  and  O_3
REMARK    2  A    between atoms: C_2  and  C_4
REMARK    3  A    between atoms: C_4  and  O_5
REMARK    4  A    between atoms: O_5  and  C_6
REMARK    5  A    between atoms: C_15  and  N_16
REMARK    6  A    between atoms: C_20  and  C_21
REMARK    7  A    between atoms: C_23  and  C_24
REMARK    8  A    between atoms: C_30  and  C_31
REMARK                            x       y       z     vdW  Elec       q    Type
REMARK                         _______ _______ _______ _____ _____    ______ ____
ROOT
ATOM      1  N   UNL     1      11.292  13.769  18.675  0.00  0.00    +0.000 NA
ATOM      2  C   UNL     1      12.304  12.798  18.222  0.00  0.00    +0.000 C 
ATOM      3  C   UNL     1      12.019  11.536  18.997  0.00  0.00    +0.000 C 
ATOM      4  C   UNL     1      11.581  12.041  20.356  0.00  0.00    +0.000 C 
ATOM      5  C   UNL     1      11.155  13.515  20.156  0.00  0.00    +0.000 C 
ENDROOT
BRANCH   1  15
ATOM      6  C   UNL     1       7.348  16.564  18.398  0.00  0.00    +0.000 A 
ATOM      7  C   UNL     1       8.153  17.720  18.379  0.00  0.00    +0.000 A 
ATOM      8  C   UNL     1       9.482  17.690  18.043  0.00  0.00    +0.000 A 
ATOM      9  C   UNL     1      10.050  16.466  17.769  0.00  0.00    +0.000 A 
ATOM     10  C   UNL     1       9.340  15.261  17.864  0.00  0.00    +0.000 A 
ATOM     11  C   UNL     1       7.923  15.323  18.050  0.00  0.00    +0.000 A 
ATOM     12  C   UNL     1       7.103  14.077  17.866  0.00  0.00    +0.000 C 
ATOM     13  C   UNL     1       7.847  12.901  17.221  0.00  0.00    +0.000 C 
ATOM     14  C   UNL     1       9.218  12.699  17.852  0.00  0.00    +0.000 C 
ATOM     15  C   UNL     1      10.147  13.957  17.733  0.00  0.00    +0.000 C 
BRANCH   6  16
ATOM     16  O   UNL     1       6.161  16.904  18.926  0.00  0.00    +0.000 OA
BRANCH  16  17
ATOM     17  C   UNL     1       4.800  16.645  18.835  0.00  0.00    +0.000 C 
BRANCH  17  19
ATOM     18  O   UNL     1       3.589  14.551  19.089  0.00  0.00    +0.000 OA
ATOM     19  C   UNL     1       3.954  15.465  18.349  0.00  0.00    +0.000 C 
BRANCH  19  20
ATOM     20  O   UNL     1       3.765  15.413  17.021  0.00  0.00    +0.000 OA
ATOM     21  H   UNL     1       4.343  16.032  16.545  0.00  0.00    +0.000 HD
ENDBRANCH  19  20
ENDBRANCH  17  19
ENDBRANCH  16  17
ENDBRANCH   6  16
ENDBRANCH   1  15
BRANCH   5  22
ATOM     22  C   UNL     1       9.929  13.875  20.995  0.00  0.00    +0.000 A 
ATOM     23  N   UNL     1       9.048  14.849  20.853  0.00  0.00    +0.000 NA
ATOM     24  C   UNL     1       8.097  14.607  21.831  0.00  0.00    +0.000 A 
ATOM     25  C   UNL     1       8.410  13.462  22.545  0.00  0.00    +0.000 A 
ATOM     26  O   UNL     1       9.611  13.010  22.038  0.00  0.00    +0.000 OA
BRANCH  24  27
ATOM     27  C   UNL     1       6.971  15.486  22.069  0.00  0.00    +0.000 A 
ATOM     28  C   UNL     1       7.181  16.842  22.345  0.00  0.00    +0.000 A 
ATOM     29  C   UNL     1       6.097  17.681  22.617  0.00  0.00    +0.000 A 
ATOM     30  C   UNL     1       4.799  17.171  22.616  0.00  0.00    +0.000 A 
ATOM     31  C   UNL     1       4.579  15.825  22.335  0.00  0.00    +0.000 A 
ATOM     32  C   UNL     1       5.661  14.987  22.066  0.00  0.00    +0.000 A 
ENDBRANCH  24  27
BRANCH  25  33
ATOM     33  C   UNL     1       7.790  12.706  23.646  0.00  0.00    +0.000 A 
ATOM     34  C   UNL     1       6.662  11.889  23.434  0.00  0.00    +0.000 A 
ATOM     35  C   UNL     1       5.986  11.273  24.499  0.00  0.00    +0.000 A 
ATOM     36  C   UNL     1       6.440  11.449  25.803  0.00  0.00    +0.000 A 
ATOM     37  C   UNL     1       7.576  12.219  26.029  0.00  0.00    +0.000 A 
ATOM     38  C   UNL     1       8.248  12.837  24.963  0.00  0.00    +0.000 A 
ENDBRANCH  25  33
ENDBRANCH   5  22
TORSDOF 8
ENDMDL
MODEL 7
REMARK VINA RESULT:      -6.2      1.567      2.204
REMARK  Name = 
REMARK  8 active torsions:
REMARK  status: ('A' for Active; 'I' for Inactive)
REMARK    1  A    between atoms: C_2  and  O_3
REMARK    2  A    between atoms: C_2  and  C_4
REMARK    3  A    between atoms: C_4  and  O_5
REMARK    4  A    between atoms: O_5  and  C_6
REMARK    5  A    between atoms: C_15  and  N_16
REMARK    6  A    between atoms: C_20  and  C_21
REMARK    7  A    between atoms: C_23  and  C_24
REMARK    8  A    between atoms: C_30  and  C_31
REMARK                            x       y       z     vdW  Elec       q    Type
REMARK                         _______ _______ _______ _____ _____    ______ ____
ROOT
ATOM      1  N   UNL     1       2.615  16.388  19.417  0.00  0.00    +0.000 NA
ATOM      2  C   UNL     1       3.435  17.064  18.395  0.00  0.00    +0.000 C 
ATOM      3  C   UNL     1       3.260  16.246  17.141  0.00  0.00    +0.000 C 
ATOM      4  C   UNL     1       3.180  14.822  17.651  0.00  0.00    +0.000 C 
ATOM      5  C   UNL     1       2.809  14.916  19.150  0.00  0.00    +0.000 C 
ENDROOT
BRANCH   1  15
ATOM      6  C   UNL     1      -1.260  15.543  22.194  0.00  0.00    +0.000 A 
ATOM      7  C   UNL     1      -0.462  15.623  23.353  0.00  0.00    +0.000 A 
ATOM      8  C   UNL     1       0.762  16.238  23.366  0.00  0.00    +0.000 A 
ATOM      9  C   UNL     1       1.243  16.743  22.179  0.00  0.00    +0.000 A 
ATOM     10  C   UNL     1       0.554  16.615  20.965  0.00  0.00    +0.000 A 
ATOM     11  C   UNL     1      -0.789  16.123  20.997  0.00  0.00    +0.000 A 
ATOM     12  C   UNL     1      -1.645  16.245  19.768  0.00  0.00    +0.000 C 
ATOM     13  C   UNL     1      -1.072  17.145  18.666  0.00  0.00    +0.000 C 
ATOM     14  C   UNL     1       0.399  16.845  18.415  0.00  0.00    +0.000 C 
ATOM     15  C   UNL     1       1.297  17.040  19.685  0.00  0.00    +0.000 C 
BRANCH   6  16
ATOM     16  O   UNL     1      -2.301  14.742  22.472  0.00  0.00    +0.000 OA
BRANCH  16  17
ATOM     17  C   UNL     1      -2.900  14.031  23.504  0.00  0.00    +0.000 C 
BRANCH  17  19
ATOM     18  O   UNL     1      -4.395  12.273  22.735  0.00  0.00    +0.000 OA
ATOM     19  C   UNL     1      -4.101  13.087  23.611  0.00  0.00    +0.000 C 
BRANCH  19  20
ATOM     20  O   UNL     1      -4.907  13.313  24.660  0.00  0.00    +0.000 OA
ATOM     21  H   UNL     1      -4.870  12.593  25.311  0.00  0.00    +0.000 HD
ENDBRANCH  19  20
ENDBRANCH  17  19
ENDBRANCH  16  17
ENDBRANCH   6  16
ENDBRANCH   1  15
BRANCH   5  22
ATOM     22  C   UNL     1       1.834  13.816  19.568  0.00  0.00    +0.000 A 
ATOM     23  N   UNL     1       1.854  13.000  20.606  0.00  0.00    +0.000 NA
ATOM     24  C   UNL     1       0.657  12.306  20.532  0.00  0.00    +0.000 A 
ATOM     25  C   UNL     1      -0.089  12.734  19.446  0.00  0.00    +0.000 A 
ATOM     26  O   UNL     1       0.682  13.677  18.797  0.00  0.00    +0.000 OA
BRANCH  24  27
ATOM     27  C   UNL     1       0.299  11.251  21.457  0.00  0.00    +0.000 A 
ATOM     28  C   UNL     1      -0.729  11.446  22.387  0.00  0.00    +0.000 A 
ATOM     29  C   UNL     1      -1.044  10.444  23.307  0.00  0.00    +0.000 A 
ATOM     30  C   UNL     1      -0.335   9.242  23.306  0.00  0.00    +0.000 A 
ATOM     31  C   UNL     1       0.684   9.036  22.380  0.00  0.00    +0.000 A 
ATOM     32  C   UNL     1       1.001  10.037  21.462  0.00  0.00    +0.000 A 
ENDBRANCH  24  27
BRANCH  25  33
ATOM     33  C   UNL     1      -1.409  12.407  18.882  0.00  0.00    +0.000 A 
ATOM     34  C   UNL     1      -2.595  12.622  19.612  0.00  0.00    +0.000 A 
ATOM     35  C   UNL     1      -3.843  12.190  19.136  0.00  0.00    +0.000 A 
ATOM     36  C   UNL     1      -3.932  11.547  17.905  0.00  0.00    +0.000 A 
ATOM     37  C   UNL     1      -2.778  11.361  17.150  0.00  0.00    +0.000 A 
ATOM     38  C   UNL     1      -1.530  11.790  17.630  0.00  0.00    +0.000 A 
ENDBRANCH  25  33
ENDBRANCH   5  22
TORSDOF 8
ENDMDL
MODEL 8
REMARK VINA RESULT:      -6.2      0.955      3.242
REMARK  Name = 
REMARK  8 active torsions:
REMARK  status: ('A' for Active; 'I' for Inactive)
REMARK    1  A    between atoms: C_2  and  O_3
REMARK    2  A    between atoms: C_2  and  C_4
REMARK    3  A    between atoms: C_4  and  O_5
REMARK    4  A    between atoms: O_5  and  C_6
REMARK    5  A    between atoms: C_15  and  N_16
REMARK    6  A    between atoms: C_20  and  C_21
REMARK    7  A    between atoms: C_23  and  C_24
REMARK    8  A    between atoms: C_30  and  C_31
REMARK                            x       y       z     vdW  Elec       q    Type
REMARK                         _______ _______ _______ _____ _____    ______ ____
ROOT
ATOM      1  N   UNL     1       1.043  16.666  20.475  0.00  0.00    +0.000 NA
ATOM      2  C   UNL     1       1.828  17.722  19.812  0.00  0.00    +0.000 C 
ATOM      3  C   UNL     1       1.714  17.433  18.336  0.00  0.00    +0.000 C 
ATOM      4  C   UNL     1       1.717  15.921  18.266  0.00  0.00    +0.000 C 
ATOM      5  C   UNL     1       1.328  15.418  19.677  0.00  0.00    +0.000 C 
ENDROOT
BRANCH   1  15
ATOM      6  C   UNL     1      -2.997  14.539  22.085  0.00  0.00    +0.000 A 
ATOM      7  C   UNL     1      -2.294  14.003  23.182  0.00  0.00    +0.000 A 
ATOM      8  C   UNL     1      -1.097  14.514  23.613  0.00  0.00    +0.000 A 
ATOM      9  C   UNL     1      -0.547  15.555  22.900  0.00  0.00    +0.000 A 
ATOM     10  C   UNL     1      -1.137  16.077  21.740  0.00  0.00    +0.000 A 
ATOM     11  C   UNL     1      -2.459  15.650  21.402  0.00  0.00    +0.000 A 
ATOM     12  C   UNL     1      -3.224  16.395  20.345  0.00  0.00    +0.000 C 
ATOM     13  C   UNL     1      -2.603  17.730  19.916  0.00  0.00    +0.000 C 
ATOM     14  C   UNL     1      -1.106  17.592  19.671  0.00  0.00    +0.000 C 
ATOM     15  C   UNL     1      -0.315  17.096  20.930  0.00  0.00    +0.000 C 
BRANCH   6  16
ATOM     16  O   UNL     1      -4.027  13.717  21.823  0.00  0.00    +0.000 OA
BRANCH  16  17
ATOM     17  C   UNL     1      -4.976  12.910  22.436  0.00  0.00    +0.000 C 
BRANCH  17  19
ATOM     18  O   UNL     1      -6.404  14.227  23.899  0.00  0.00    +0.000 OA
ATOM     19  C   UNL     1      -6.021  13.114  23.536  0.00  0.00    +0.000 C 
BRANCH  19  20
ATOM     20  O   UNL     1      -6.382  11.998  24.189  0.00  0.00    +0.000 OA
ATOM     21  H   UNL     1      -6.261  12.083  25.150  0.00  0.00    +0.000 HD
ENDBRANCH  19  20
ENDBRANCH  17  19
ENDBRANCH  16  17
ENDBRANCH   6  16
ENDBRANCH   1  15
BRANCH   5  22
ATOM     22  C   UNL     1       0.418  14.192  19.617  0.00  0.00    +0.000 A 
ATOM     23  N   UNL     1      -0.497  13.845  18.730  0.00  0.00    +0.000 NA
ATOM     24  C   UNL     1      -0.910  12.583  19.127  0.00  0.00    +0.000 A 
ATOM     25  C   UNL     1      -0.214  12.172  20.252  0.00  0.00    +0.000 A 
ATOM     26  O   UNL     1       0.613  13.221  20.596  0.00  0.00    +0.000 OA
BRANCH  24  27
ATOM     27  C   UNL     1      -1.965  11.852  18.456  0.00  0.00    +0.000 A 
ATOM     28  C   UNL     1      -3.307  12.145  18.724  0.00  0.00    +0.000 A 
ATOM     29  C   UNL     1      -4.324  11.410  18.109  0.00  0.00    +0.000 A 
ATOM     30  C   UNL     1      -4.007  10.380  17.223  0.00  0.00    +0.000 A 
ATOM     31  C   UNL     1      -2.675  10.087  16.943  0.00  0.00    +0.000 A 
ATOM     32  C   UNL     1      -1.659  10.819  17.559  0.00  0.00    +0.000 A 
ENDBRANCH  24  27
BRANCH  25  33
ATOM     33  C   UNL     1      -0.189  10.962  21.089  0.00  0.00    +0.000 A 
ATOM     34  C   UNL     1      -0.642  10.981  22.423  0.00  0.00    +0.000 A 
ATOM     35  C   UNL     1      -0.498   9.868  23.267  0.00  0.00    +0.000 A 
ATOM     36  C   UNL     1       0.089   8.702  22.784  0.00  0.00    +0.000 A 
ATOM     37  C   UNL     1       0.506   8.650  21.458  0.00  0.00    +0.000 A 
ATOM     38  C   UNL     1       0.364   9.764  20.617  0.00  0.00    +0.000 A 
ENDBRANCH  25  33
ENDBRANCH   5  22
TORSDOF 8
ENDMDL
MODEL 9
REMARK VINA RESULT:      -6.0      1.469      3.475
REMARK  Name = 
REMARK  8 active torsions:
REMARK  status: ('A' for Active; 'I' for Inactive)
REMARK    1  A    between atoms: C_2  and  O_3
REMARK    2  A    between atoms: C_2  and  C_4
REMARK    3  A    between atoms: C_4  and  O_5
REMARK    4  A    between atoms: O_5  and  C_6
REMARK    5  A    between atoms: C_15  and  N_16
REMARK    6  A    between atoms: C_20  and  C_21
REMARK    7  A    between atoms: C_23  and  C_24
REMARK    8  A    between atoms: C_30  and  C_31
REMARK                            x       y       z     vdW  Elec       q    Type
REMARK                         _______ _______ _______ _____ _____    ______ ____
ROOT
ATOM      1  N   UNL     1       0.490  16.306  20.995  0.00  0.00    +0.000 NA
ATOM      2  C   UNL     1       1.103  17.571  20.552  0.00  0.00    +0.000 C 
ATOM      3  C   UNL     1       0.995  17.559  19.048  0.00  0.00    +0.000 C 
ATOM      4  C   UNL     1       1.207  16.105  18.684  0.00  0.00    +0.000 C 
ATOM      5  C   UNL     1       0.927  15.289  19.969  0.00  0.00    +0.000 C 
ENDROOT
BRANCH   1  15
ATOM      6  C   UNL     1      -3.262  13.384  21.902  0.00  0.00    +0.000 A 
ATOM      7  C   UNL     1      -2.489  12.658  22.831  0.00  0.00    +0.000 A 
ATOM      8  C   UNL     1      -1.354  13.169  23.405  0.00  0.00    +0.000 A 
ATOM      9  C   UNL     1      -0.935  14.418  23.005  0.00  0.00    +0.000 A 
ATOM     10  C   UNL     1      -1.594  15.159  22.014  0.00  0.00    +0.000 A 
ATOM     11  C   UNL     1      -2.862  14.689  21.549  0.00  0.00    +0.000 A 
ATOM     12  C   UNL     1      -3.719  15.598  20.712  0.00  0.00    +0.000 C 
ATOM     13  C   UNL     1      -3.259  17.060  20.665  0.00  0.00    +0.000 C 
ATOM     14  C   UNL     1      -1.760  17.162  20.422  0.00  0.00    +0.000 C 
ATOM     15  C   UNL     1      -0.903  16.443  21.519  0.00  0.00    +0.000 C 
BRANCH   6  16
ATOM     16  O   UNL     1      -4.193  12.550  21.411  0.00  0.00    +0.000 OA
BRANCH  16  17
ATOM     17  C   UNL     1      -5.557  12.438  21.172  0.00  0.00    +0.000 C 
BRANCH  17  19
ATOM     18  O   UNL     1      -6.268  13.688  19.210  0.00  0.00    +0.000 OA
ATOM     19  C   UNL     1      -6.565  13.185  20.294  0.00  0.00    +0.000 C 
BRANCH  19  20
ATOM     20  O   UNL     1      -7.765  13.390  20.859  0.00  0.00    +0.000 OA
ATOM     21  H   UNL     1      -7.888  14.315  21.129  0.00  0.00    +0.000 HD
ENDBRANCH  19  20
ENDBRANCH  17  19
ENDBRANCH  16  17
ENDBRANCH   6  16
ENDBRANCH   1  15
BRANCH   5  22
ATOM     22  C   UNL     1       0.196  13.982  19.669  0.00  0.00    +0.000 A 
ATOM     23  N   UNL     1      -0.753  13.710  18.791  0.00  0.00    +0.000 NA
ATOM     24  C   UNL     1      -0.939  12.341  18.887  0.00  0.00    +0.000 A 
ATOM     25  C   UNL     1      -0.074  11.793  19.820  0.00  0.00    +0.000 A 
ATOM     26  O   UNL     1       0.631  12.851  20.356  0.00  0.00    +0.000 OA
BRANCH  24  27
ATOM     27  C   UNL     1      -1.949  11.629  18.131  0.00  0.00    +0.000 A 
ATOM     28  C   UNL     1      -3.305  11.920  18.316  0.00  0.00    +0.000 A 
ATOM     29  C   UNL     1      -4.280  11.202  17.619  0.00  0.00    +0.000 A 
ATOM     30  C   UNL     1      -3.908  10.191  16.733  0.00  0.00    +0.000 A 
ATOM     31  C   UNL     1      -2.560   9.900  16.536  0.00  0.00    +0.000 A 
ATOM     32  C   UNL     1      -1.586  10.614  17.234  0.00  0.00    +0.000 A 
ENDBRANCH  24  27
BRANCH  25  33
ATOM     33  C   UNL     1       0.211  10.440  20.323  0.00  0.00    +0.000 A 
ATOM     34  C   UNL     1      -0.318   9.982  21.545  0.00  0.00    +0.000 A 
ATOM     35  C   UNL     1       0.055   8.746  22.095  0.00  0.00    +0.000 A 
ATOM     36  C   UNL     1       0.958   7.930  21.419  0.00  0.00    +0.000 A 
ATOM     37  C   UNL     1       1.461   8.345  20.190  0.00  0.00    +0.000 A 
ATOM     38  C   UNL     1       1.089   9.584  19.644  0.00  0.00    +0.000 A 
ENDBRANCH  25  33
ENDBRANCH   5  22
TORSDOF 8
ENDMDL
