MODEL 1
REMARK VINA RESULT:      -7.1      0.000      0.000
REMARK  Name = 
REMARK  6 active torsions:
REMARK  status: ('A' for Active; 'I' for Inactive)
REMARK    1  A    between atoms: C_1  and  O_2
REMARK    2  A    between atoms: O_2  and  C_3
REMARK    3  A    between atoms: C_6  and  C_7
REMARK    4  A    between atoms: C_16  and  C_17
REMARK    5  A    between atoms: C_19  and  C_20
REMARK    6  A    between atoms: C_19  and  C_21
REMARK                            x       y       z     vdW  Elec       q    Type
REMARK                         _______ _______ _______ _____ _____    ______ ____
ROOT
ATOM      1  C   UNL     1       4.363   4.480  19.402  0.00  0.00    +0.000 A 
ATOM      2  N   UNL     1       3.179   4.629  20.046  0.00  0.00    +0.000 NA
ATOM      3  N   UNL     1       2.459   5.778  19.898  0.00  0.00    +0.000 NA
ATOM      4  C   UNL     1       2.905   6.746  19.076  0.00  0.00    +0.000 A 
ATOM      5  C   UNL     1       4.095   6.578  18.382  0.00  0.00    +0.000 A 
ATOM      6  C   UNL     1       4.920   5.459  18.576  0.00  0.00    +0.000 A 
ENDROOT
BRANCH   4   7
ATOM      7  C   UNL     1       2.101   7.977  18.974  0.00  0.00    +0.000 A 
ATOM      8  C   UNL     1       1.937   8.604  17.800  0.00  0.00    +0.000 A 
ATOM      9  N   UNL     1       1.181   9.736  17.682  0.00  0.00    +0.000 N 
ATOM     10  C   UNL     1       0.538  10.328  18.729  0.00  0.00    +0.000 A 
ATOM     11  O   UNL     1      -0.151  11.336  18.585  0.00  0.00    +0.000 OA
ATOM     12  N   UNL     1       0.702   9.726  19.939  0.00  0.00    +0.000 N 
ATOM     13  C   UNL     1       1.387   8.562  20.153  0.00  0.00    +0.000 A 
ATOM     14  O   UNL     1       1.386   8.043  21.264  0.00  0.00    +0.000 OA
ATOM     15  H   UNL     1       1.059  10.183  16.780  0.00  0.00    +0.000 HD
ATOM     16  H   UNL     1       0.210  10.121  20.725  0.00  0.00    +0.000 HD
ENDBRANCH   4   7
BRANCH   6  17
ATOM     17  C   UNL     1       6.368   5.356  17.905  0.00  0.00    +0.000 C 
ATOM     18  C   UNL     1       6.720   6.366  16.765  0.00  0.00    +0.000 C 
ATOM     19  C   UNL     1       6.473   5.247  15.713  0.00  0.00    +0.000 C 
ATOM     20  C   UNL     1       5.081   5.279  15.077  0.00  0.00    +0.000 C 
ATOM     21  C   UNL     1       7.557   5.100  14.647  0.00  0.00    +0.000 C 
ATOM     22  C   UNL     1       6.655   4.226  16.868  0.00  0.00    +0.000 C 
ENDBRANCH   6  17
BRANCH   1  24
ATOM     23  C   UNL     1       4.211   2.190  19.877  0.00  0.00    +0.000 C 
ATOM     24  O   UNL     1       5.052   3.288  19.524  0.00  0.00    +0.000 OA
ENDBRANCH   1  24
TORSDOF 3
ENDMDL
MODEL 2
REMARK VINA RESULT:      -7.1      3.989      5.336
REMARK  Name = 
REMARK  6 active torsions:
REMARK  status: ('A' for Active; 'I' for Inactive)
REMARK    1  A    between atoms: C_1  and  O_2
REMARK    2  A    between atoms: O_2  and  C_3
REMARK    3  A    between atoms: C_6  and  C_7
REMARK    4  A    between atoms: C_16  and  C_17
REMARK    5  A    between atoms: C_19  and  C_20
REMARK    6  A    between atoms: C_19  and  C_21
REMARK                            x       y       z     vdW  Elec       q    Type
REMARK                         _______ _______ _______ _____ _____    ______ ____
ROOT
ATOM      1  C   UNL     1       5.340   4.487  15.758  0.00  0.00    +0.000 A 
ATOM      2  N   UNL     1       4.809   3.250  15.925  0.00  0.00    +0.000 NA
ATOM      3  N   UNL     1       4.111   2.951  17.059  0.00  0.00    +0.000 NA
ATOM      4  C   UNL     1       3.913   3.900  17.992  0.00  0.00    +0.000 A 
ATOM      5  C   UNL     1       4.418   5.180  17.804  0.00  0.00    +0.000 A 
ATOM      6  C   UNL     1       5.225   5.508  16.703  0.00  0.00    +0.000 A 
ENDROOT
BRANCH   4   7
ATOM      7  C   UNL     1       3.175   3.516  19.208  0.00  0.00    +0.000 A 
ATOM      8  C   UNL     1       1.893   3.868  19.383  0.00  0.00    +0.000 A 
ATOM      9  N   UNL     1       1.188   3.506  20.496  0.00  0.00    +0.000 N 
ATOM     10  C   UNL     1       1.712   2.771  21.518  0.00  0.00    +0.000 A 
ATOM     11  O   UNL     1       1.044   2.446  22.497  0.00  0.00    +0.000 OA
ATOM     12  N   UNL     1       3.019   2.415  21.379  0.00  0.00    +0.000 N 
ATOM     13  C   UNL     1       3.793   2.676  20.282  0.00  0.00    +0.000 A 
ATOM     14  O   UNL     1       4.929   2.219  20.209  0.00  0.00    +0.000 OA
ATOM     15  H   UNL     1       0.214   3.772  20.598  0.00  0.00    +0.000 HD
ATOM     16  H   UNL     1       3.424   1.842  22.102  0.00  0.00    +0.000 HD
ENDBRANCH   4   7
BRANCH   6  17
ATOM     17  C   UNL     1       5.944   6.932  16.584  0.00  0.00    +0.000 C 
ATOM     18  C   UNL     1       7.503   6.959  16.482  0.00  0.00    +0.000 C 
ATOM     19  C   UNL     1       7.582   7.371  17.980  0.00  0.00    +0.000 C 
ATOM     20  C   UNL     1       7.835   6.205  18.941  0.00  0.00    +0.000 C 
ATOM     21  C   UNL     1       8.510   8.544  18.289  0.00  0.00    +0.000 C 
ATOM     22  C   UNL     1       6.102   7.821  17.856  0.00  0.00    +0.000 C 
ENDBRANCH   6  17
BRANCH   1  24
ATOM     23  C   UNL     1       5.972   3.712  13.638  0.00  0.00    +0.000 C 
ATOM     24  O   UNL     1       5.998   4.784  14.580  0.00  0.00    +0.000 OA
ENDBRANCH   1  24
TORSDOF 3
ENDMDL
MODEL 3
REMARK VINA RESULT:      -7.1      0.833      1.293
REMARK  Name = 
REMARK  6 active torsions:
REMARK  status: ('A' for Active; 'I' for Inactive)
REMARK    1  A    between atoms: C_1  and  O_2
REMARK    2  A    between atoms: O_2  and  C_3
REMARK    3  A    between atoms: C_6  and  C_7
REMARK    4  A    between atoms: C_16  and  C_17
REMARK    5  A    between atoms: C_19  and  C_20
REMARK    6  A    between atoms: C_19  and  C_21
REMARK                            x       y       z     vdW  Elec       q    Type
REMARK                         _______ _______ _______ _____ _____    ______ ____
ROOT
ATOM      1  C   UNL     1       3.591   4.157  19.046  0.00  0.00    +0.000 A 
ATOM      2  N   UNL     1       2.982   4.708  20.125  0.00  0.00    +0.000 NA
ATOM      3  N   UNL     1       2.497   5.981  20.063  0.00  0.00    +0.000 NA
ATOM      4  C   UNL     1       2.584   6.674  18.913  0.00  0.00    +0.000 A 
ATOM      5  C   UNL     1       3.167   6.097  17.793  0.00  0.00    +0.000 A 
ATOM      6  C   UNL     1       3.768   4.829  17.836  0.00  0.00    +0.000 A 
ENDROOT
BRANCH   4   7
ATOM      7  C   UNL     1       2.068   8.054  18.908  0.00  0.00    +0.000 A 
ATOM      8  C   UNL     1       2.159   8.826  17.815  0.00  0.00    +0.000 A 
ATOM      9  N   UNL     1       1.671  10.103  17.787  0.00  0.00    +0.000 N 
ATOM     10  C   UNL     1       1.061  10.702  18.849  0.00  0.00    +0.000 A 
ATOM     11  O   UNL     1       0.615  11.846  18.783  0.00  0.00    +0.000 OA
ATOM     12  N   UNL     1       0.971   9.951  19.980  0.00  0.00    +0.000 N 
ATOM     13  C   UNL     1       1.374   8.649  20.094  0.00  0.00    +0.000 A 
ATOM     14  O   UNL     1       1.151   8.024  21.126  0.00  0.00    +0.000 OA
ATOM     15  H   UNL     1       1.738  10.661  16.943  0.00  0.00    +0.000 HD
ATOM     16  H   UNL     1       0.493  10.355  20.770  0.00  0.00    +0.000 HD
ENDBRANCH   4   7
BRANCH   6  17
ATOM     17  C   UNL     1       4.587   4.246  16.591  0.00  0.00    +0.000 C 
ATOM     18  C   UNL     1       6.109   3.948  16.792  0.00  0.00    +0.000 C 
ATOM     19  C   UNL     1       6.454   5.260  16.030  0.00  0.00    +0.000 C 
ATOM     20  C   UNL     1       6.744   6.458  16.940  0.00  0.00    +0.000 C 
ATOM     21  C   UNL     1       7.522   5.127  14.946  0.00  0.00    +0.000 C 
ATOM     22  C   UNL     1       5.020   5.205  15.439  0.00  0.00    +0.000 C 
ENDBRANCH   6  17
BRANCH   1  24
ATOM     23  C   UNL     1       3.007   1.899  18.805  0.00  0.00    +0.000 C 
ATOM     24  O   UNL     1       4.028   2.847  19.114  0.00  0.00    +0.000 OA
ENDBRANCH   1  24
TORSDOF 3
ENDMDL
MODEL 4
REMARK VINA RESULT:      -7.1      2.031      4.040
REMARK  Name = 
REMARK  6 active torsions:
REMARK  status: ('A' for Active; 'I' for Inactive)
REMARK    1  A    between atoms: C_1  and  O_2
REMARK    2  A    between atoms: O_2  and  C_3
REMARK    3  A    between atoms: C_6  and  C_7
REMARK    4  A    between atoms: C_16  and  C_17
REMARK    5  A    between atoms: C_19  and  C_20
REMARK    6  A    between atoms: C_19  and  C_21
REMARK                            x       y       z     vdW  Elec       q    Type
REMARK                         _______ _______ _______ _____ _____    ______ ____
ROOT
ATOM      1  C   UNL     1       4.078   5.146  17.314  0.00  0.00    +0.000 A 
ATOM      2  N   UNL     1       4.454   6.371  16.867  0.00  0.00    +0.000 NA
ATOM      3  N   UNL     1       3.781   7.485  17.277  0.00  0.00    +0.000 NA
ATOM      4  C   UNL     1       2.772   7.371  18.159  0.00  0.00    +0.000 A 
ATOM      5  C   UNL     1       2.413   6.123  18.651  0.00  0.00    +0.000 A 
ATOM      6  C   UNL     1       3.008   4.940  18.186  0.00  0.00    +0.000 A 
ENDROOT
BRANCH   4   7
ATOM      7  C   UNL     1       2.063   8.603  18.546  0.00  0.00    +0.000 A 
ATOM      8  C   UNL     1       1.871   9.599  17.669  0.00  0.00    +0.000 A 
ATOM      9  N   UNL     1       1.201  10.742  18.005  0.00  0.00    +0.000 N 
ATOM     10  C   UNL     1       0.678  10.975  19.242  0.00  0.00    +0.000 A 
ATOM     11  O   UNL     1       0.063  12.006  19.505  0.00  0.00    +0.000 OA
ATOM     12  N   UNL     1       0.873   9.990  20.162  0.00  0.00    +0.000 N 
ATOM     13  C   UNL     1       1.477   8.789  19.911  0.00  0.00    +0.000 A 
ATOM     14  O   UNL     1       1.508   7.924  20.781  0.00  0.00    +0.000 OA
ATOM     15  H   UNL     1       1.055  11.475  17.318  0.00  0.00    +0.000 HD
ATOM     16  H   UNL     1       0.467  10.120  21.074  0.00  0.00    +0.000 HD
ENDBRANCH   4   7
BRANCH   6  17
ATOM     17  C   UNL     1       2.471   3.499  18.630  0.00  0.00    +0.000 C 
ATOM     18  C   UNL     1       1.159   3.436  19.476  0.00  0.00    +0.000 C 
ATOM     19  C   UNL     1       2.010   3.191  20.755  0.00  0.00    +0.000 C 
ATOM     20  C   UNL     1       2.280   4.451  21.583  0.00  0.00    +0.000 C 
ATOM     21  C   UNL     1       1.537   2.044  21.647  0.00  0.00    +0.000 C 
ATOM     22  C   UNL     1       3.163   2.753  19.813  0.00  0.00    +0.000 C 
ENDBRANCH   6  17
BRANCH   1  24
ATOM     23  C   UNL     1       5.723   4.308  15.870  0.00  0.00    +0.000 C 
ATOM     24  O   UNL     1       4.806   4.036  16.928  0.00  0.00    +0.000 OA
ENDBRANCH   1  24
TORSDOF 3
ENDMDL
MODEL 5
REMARK VINA RESULT:      -7.0      1.152      1.295
REMARK  Name = 
REMARK  6 active torsions:
REMARK  status: ('A' for Active; 'I' for Inactive)
REMARK    1  A    between atoms: C_1  and  O_2
REMARK    2  A    between atoms: O_2  and  C_3
REMARK    3  A    between atoms: C_6  and  C_7
REMARK    4  A    between atoms: C_16  and  C_17
REMARK    5  A    between atoms: C_19  and  C_20
REMARK    6  A    between atoms: C_19  and  C_21
REMARK                            x       y       z     vdW  Elec       q    Type
REMARK                         _______ _______ _______ _____ _____    ______ ____
ROOT
ATOM      1  C   UNL     1       3.020   4.311  20.096  0.00  0.00    +0.000 A 
ATOM      2  N   UNL     1       2.019   4.915  20.783  0.00  0.00    +0.000 NA
ATOM      3  N   UNL     1       1.675   6.205  20.500  0.00  0.00    +0.000 NA
ATOM      4  C   UNL     1       2.303   6.862  19.507  0.00  0.00    +0.000 A 
ATOM      5  C   UNL     1       3.298   6.232  18.773  0.00  0.00    +0.000 A 
ATOM      6  C   UNL     1       3.755   4.943  19.091  0.00  0.00    +0.000 A 
ENDROOT
BRANCH   4   7
ATOM      7  C   UNL     1       1.910   8.261  19.262  0.00  0.00    +0.000 A 
ATOM      8  C   UNL     1       2.114   8.840  18.069  0.00  0.00    +0.000 A 
ATOM      9  N   UNL     1       1.741  10.131  17.818  0.00  0.00    +0.000 N 
ATOM     10  C   UNL     1       1.142  10.938  18.739  0.00  0.00    +0.000 A 
ATOM     11  O   UNL     1       0.801  12.089  18.474  0.00  0.00    +0.000 OA
ATOM     12  N   UNL     1       0.940  10.385  19.967  0.00  0.00    +0.000 N 
ATOM     13  C   UNL     1       1.223   9.089  20.302  0.00  0.00    +0.000 A 
ATOM     14  O   UNL     1       0.903   8.656  21.404  0.00  0.00    +0.000 OA
ATOM     15  H   UNL     1       1.892  10.542  16.902  0.00  0.00    +0.000 HD
ATOM     16  H   UNL     1       0.468  10.946  20.657  0.00  0.00    +0.000 HD
ENDBRANCH   4   7
BRANCH   6  17
ATOM     17  C   UNL     1       5.017   4.293  18.353  0.00  0.00    +0.000 C 
ATOM     18  C   UNL     1       6.232   5.221  18.026  0.00  0.00    +0.000 C 
ATOM     19  C   UNL     1       5.767   5.289  16.543  0.00  0.00    +0.000 C 
ATOM     20  C   UNL     1       4.943   6.533  16.198  0.00  0.00    +0.000 C 
ATOM     21  C   UNL     1       6.860   5.052  15.503  0.00  0.00    +0.000 C 
ATOM     22  C   UNL     1       4.944   4.002  16.821  0.00  0.00    +0.000 C 
ENDBRANCH   6  17
BRANCH   1  24
ATOM     23  C   UNL     1       2.642   2.483  21.514  0.00  0.00    +0.000 C 
ATOM     24  O   UNL     1       3.317   2.988  20.363  0.00  0.00    +0.000 OA
ENDBRANCH   1  24
TORSDOF 3
ENDMDL
MODEL 6
REMARK VINA RESULT:      -7.0      4.080      5.339
REMARK  Name = 
REMARK  6 active torsions:
REMARK  status: ('A' for Active; 'I' for Inactive)
REMARK    1  A    between atoms: C_1  and  O_2
REMARK    2  A    between atoms: O_2  and  C_3
REMARK    3  A    between atoms: C_6  and  C_7
REMARK    4  A    between atoms: C_16  and  C_17
REMARK    5  A    between atoms: C_19  and  C_20
REMARK    6  A    between atoms: C_19  and  C_21
REMARK                            x       y       z     vdW  Elec       q    Type
REMARK                         _______ _______ _______ _____ _____    ______ ____
ROOT
ATOM      1  C   UNL     1       5.520   3.724  15.911  0.00  0.00    +0.000 A 
ATOM      2  N   UNL     1       5.088   2.480  16.231  0.00  0.00    +0.000 NA
ATOM      3  N   UNL     1       4.293   2.290  17.323  0.00  0.00    +0.000 NA
ATOM      4  C   UNL     1       3.902   3.348  18.058  0.00  0.00    +0.000 A 
ATOM      5  C   UNL     1       4.307   4.629  17.707  0.00  0.00    +0.000 A 
ATOM      6  C   UNL     1       5.204   4.864  16.653  0.00  0.00    +0.000 A 
ENDROOT
BRANCH   4   7
ATOM      7  C   UNL     1       3.065   3.083  19.242  0.00  0.00    +0.000 A 
ATOM      8  C   UNL     1       3.616   2.816  20.435  0.00  0.00    +0.000 A 
ATOM      9  N   UNL     1       2.856   2.585  21.547  0.00  0.00    +0.000 N 
ATOM     10  C   UNL     1       1.493   2.600  21.549  0.00  0.00    +0.000 A 
ATOM     11  O   UNL     1       0.840   2.408  22.573  0.00  0.00    +0.000 OA
ATOM     12  N   UNL     1       0.904   2.850  20.347  0.00  0.00    +0.000 N 
ATOM     13  C   UNL     1       1.571   3.150  19.191  0.00  0.00    +0.000 A 
ATOM     14  O   UNL     1       0.944   3.466  18.185  0.00  0.00    +0.000 OA
ATOM     15  H   UNL     1       3.296   2.399  22.443  0.00  0.00    +0.000 HD
ATOM     16  H   UNL     1      -0.102   2.903  20.325  0.00  0.00    +0.000 HD
ENDBRANCH   4   7
BRANCH   6  17
ATOM     17  C   UNL     1       5.799   6.321  16.366  0.00  0.00    +0.000 C 
ATOM     18  C   UNL     1       7.353   6.475  16.292  0.00  0.00    +0.000 C 
ATOM     19  C   UNL     1       7.349   7.077  17.727  0.00  0.00    +0.000 C 
ATOM     20  C   UNL     1       7.674   6.069  18.833  0.00  0.00    +0.000 C 
ATOM     21  C   UNL     1       8.163   8.359  17.901  0.00  0.00    +0.000 C 
ATOM     22  C   UNL     1       5.840   7.373  17.517  0.00  0.00    +0.000 C 
ENDBRANCH   6  17
BRANCH   1  24
ATOM     23  C   UNL     1       5.498   3.981  13.581  0.00  0.00    +0.000 C 
ATOM     24  O   UNL     1       6.282   3.901  14.771  0.00  0.00    +0.000 OA
ENDBRANCH   1  24
TORSDOF 3
ENDMDL
MODEL 7
REMARK VINA RESULT:      -6.9      2.526      4.411
REMARK  Name = 
REMARK  6 active torsions:
REMARK  status: ('A' for Active; 'I' for Inactive)
REMARK    1  A    between atoms: C_1  and  O_2
REMARK    2  A    between atoms: O_2  and  C_3
REMARK    3  A    between atoms: C_6  and  C_7
REMARK    4  A    between atoms: C_16  and  C_17
REMARK    5  A    between atoms: C_19  and  C_20
REMARK    6  A    between atoms: C_19  and  C_21
REMARK                            x       y       z     vdW  Elec       q    Type
REMARK                         _______ _______ _______ _____ _____    ______ ____
ROOT
ATOM      1  C   UNL     1       3.189   7.202  18.061  0.00  0.00    +0.000 A 
ATOM      2  N   UNL     1       2.994   8.273  17.253  0.00  0.00    +0.000 NA
ATOM      3  N   UNL     1       2.098   9.241  17.603  0.00  0.00    +0.000 NA
ATOM      4  C   UNL     1       1.440   9.151  18.773  0.00  0.00    +0.000 A 
ATOM      5  C   UNL     1       1.670   8.078  19.623  0.00  0.00    +0.000 A 
ATOM      6  C   UNL     1       2.506   7.009  19.263  0.00  0.00    +0.000 A 
ENDROOT
BRANCH   4   7
ATOM      7  C   UNL     1       0.465  10.210  19.089  0.00  0.00    +0.000 A 
ATOM      8  C   UNL     1       0.706  11.111  20.053  0.00  0.00    +0.000 A 
ATOM      9  N   UNL     1      -0.179  12.109  20.349  0.00  0.00    +0.000 N 
ATOM     10  C   UNL     1      -1.370  12.279  19.706  0.00  0.00    +0.000 A 
ATOM     11  O   UNL     1      -2.134  13.201  19.984  0.00  0.00    +0.000 OA
ATOM     12  N   UNL     1      -1.652  11.368  18.735  0.00  0.00    +0.000 N 
ATOM     13  C   UNL     1      -0.812  10.370  18.325  0.00  0.00    +0.000 A 
ATOM     14  O   UNL     1      -1.115   9.667  17.367  0.00  0.00    +0.000 OA
ATOM     15  H   UNL     1       0.033  12.788  21.072  0.00  0.00    +0.000 HD
ATOM     16  H   UNL     1      -2.509  11.490  18.219  0.00  0.00    +0.000 HD
ENDBRANCH   4   7
BRANCH   6  17
ATOM     17  C   UNL     1       2.629   5.697  20.170  0.00  0.00    +0.000 C 
ATOM     18  C   UNL     1       3.308   4.435  19.544  0.00  0.00    +0.000 C 
ATOM     19  C   UNL     1       1.903   3.801  19.330  0.00  0.00    +0.000 C 
ATOM     20  C   UNL     1       1.338   3.987  17.918  0.00  0.00    +0.000 C 
ATOM     21  C   UNL     1       1.763   2.351  19.788  0.00  0.00    +0.000 C 
ATOM     22  C   UNL     1       1.374   4.798  20.395  0.00  0.00    +0.000 C 
ENDBRANCH   6  17
BRANCH   1  24
ATOM     23  C   UNL     1       4.857   6.599  16.528  0.00  0.00    +0.000 C 
ATOM     24  O   UNL     1       4.139   6.259  17.713  0.00  0.00    +0.000 OA
ENDBRANCH   1  24
TORSDOF 3
ENDMDL
MODEL 8
REMARK VINA RESULT:      -6.9      1.793      2.524
REMARK  Name = 
REMARK  6 active torsions:
REMARK  status: ('A' for Active; 'I' for Inactive)
REMARK    1  A    between atoms: C_1  and  O_2
REMARK    2  A    between atoms: O_2  and  C_3
REMARK    3  A    between atoms: C_6  and  C_7
REMARK    4  A    between atoms: C_16  and  C_17
REMARK    5  A    between atoms: C_19  and  C_20
REMARK    6  A    between atoms: C_19  and  C_21
REMARK                            x       y       z     vdW  Elec       q    Type
REMARK                         _______ _______ _______ _____ _____    ______ ____
ROOT
ATOM      1  C   UNL     1       2.524   4.264  19.432  0.00  0.00    +0.000 A 
ATOM      2  N   UNL     1       1.849   4.561  20.570  0.00  0.00    +0.000 NA
ATOM      3  N   UNL     1       1.523   5.855  20.855  0.00  0.00    +0.000 NA
ATOM      4  C   UNL     1       1.835   6.831  19.983  0.00  0.00    +0.000 A 
ATOM      5  C   UNL     1       2.487   6.524  18.796  0.00  0.00    +0.000 A 
ATOM      6  C   UNL     1       2.930   5.225  18.504  0.00  0.00    +0.000 A 
ENDROOT
BRANCH   4   7
ATOM      7  C   UNL     1       1.484   8.213  20.353  0.00  0.00    +0.000 A 
ATOM      8  C   UNL     1       1.373   8.582  21.638  0.00  0.00    +0.000 A 
ATOM      9  N   UNL     1       1.065   9.863  22.000  0.00  0.00    +0.000 N 
ATOM     10  C   UNL     1       0.841  10.868  21.107  0.00  0.00    +0.000 A 
ATOM     11  O   UNL     1       0.586  12.015  21.468  0.00  0.00    +0.000 OA
ATOM     12  N   UNL     1       0.926  10.521  19.793  0.00  0.00    +0.000 N 
ATOM     13  C   UNL     1       1.284   9.286  19.328  0.00  0.00    +0.000 A 
ATOM     14  O   UNL     1       1.437   9.104  18.124  0.00  0.00    +0.000 OA
ATOM     15  H   UNL     1       1.003  10.120  22.980  0.00  0.00    +0.000 HD
ATOM     16  H   UNL     1       0.800  11.251  19.111  0.00  0.00    +0.000 HD
ENDBRANCH   4   7
BRANCH   6  17
ATOM     17  C   UNL     1       3.831   4.913  17.219  0.00  0.00    +0.000 C 
ATOM     18  C   UNL     1       4.940   3.820  17.351  0.00  0.00    +0.000 C 
ATOM     19  C   UNL     1       6.013   4.940  17.469  0.00  0.00    +0.000 C 
ATOM     20  C   UNL     1       6.414   5.277  18.909  0.00  0.00    +0.000 C 
ATOM     21  C   UNL     1       7.247   4.762  16.586  0.00  0.00    +0.000 C 
ATOM     22  C   UNL     1       4.975   5.898  16.826  0.00  0.00    +0.000 C 
ENDBRANCH   6  17
BRANCH   1  24
ATOM     23  C   UNL     1       1.648   2.215  18.704  0.00  0.00    +0.000 C 
ATOM     24  O   UNL     1       2.797   2.941  19.137  0.00  0.00    +0.000 OA
ENDBRANCH   1  24
TORSDOF 3
ENDMDL
MODEL 9
REMARK VINA RESULT:      -6.9      1.450      1.880
REMARK  Name = 
REMARK  6 active torsions:
REMARK  status: ('A' for Active; 'I' for Inactive)
REMARK    1  A    between atoms: C_1  and  O_2
REMARK    2  A    between atoms: O_2  and  C_3
REMARK    3  A    between atoms: C_6  and  C_7
REMARK    4  A    between atoms: C_16  and  C_17
REMARK    5  A    between atoms: C_19  and  C_20
REMARK    6  A    between atoms: C_19  and  C_21
REMARK                            x       y       z     vdW  Elec       q    Type
REMARK                         _______ _______ _______ _____ _____    ______ ____
ROOT
ATOM      1  C   UNL     1       2.959   4.120  20.033  0.00  0.00    +0.000 A 
ATOM      2  N   UNL     1       1.798   4.525  20.606  0.00  0.00    +0.000 NA
ATOM      3  N   UNL     1       1.415   5.832  20.530  0.00  0.00    +0.000 NA
ATOM      4  C   UNL     1       2.171   6.711  19.847  0.00  0.00    +0.000 A 
ATOM      5  C   UNL     1       3.337   6.292  19.222  0.00  0.00    +0.000 A 
ATOM      6  C   UNL     1       3.823   4.982  19.355  0.00  0.00    +0.000 A 
ENDROOT
BRANCH   4   7
ATOM      7  C   UNL     1       1.725   8.115  19.819  0.00  0.00    +0.000 A 
ATOM      8  C   UNL     1       1.295   8.730  20.931  0.00  0.00    +0.000 A 
ATOM      9  N   UNL     1       0.894  10.036  20.928  0.00  0.00    +0.000 N 
ATOM     10  C   UNL     1       0.888  10.823  19.814  0.00  0.00    +0.000 A 
ATOM     11  O   UNL     1       0.539  12.001  19.850  0.00  0.00    +0.000 OA
ATOM     12  N   UNL     1       1.300  10.221  18.664  0.00  0.00    +0.000 N 
ATOM     13  C   UNL     1       1.774   8.942  18.572  0.00  0.00    +0.000 A 
ATOM     14  O   UNL     1       2.223   8.529  17.508  0.00  0.00    +0.000 OA
ATOM     15  H   UNL     1       0.588  10.483  21.786  0.00  0.00    +0.000 HD
ATOM     16  H   UNL     1       1.340  10.788  17.832  0.00  0.00    +0.000 HD
ENDBRANCH   4   7
BRANCH   6  17
ATOM     17  C   UNL     1       5.253   4.553  18.778  0.00  0.00    +0.000 C 
ATOM     18  C   UNL     1       6.247   5.688  18.369  0.00  0.00    +0.000 C 
ATOM     19  C   UNL     1       5.894   5.443  16.874  0.00  0.00    +0.000 C 
ATOM     20  C   UNL     1       4.839   6.399  16.311  0.00  0.00    +0.000 C 
ATOM     21  C   UNL     1       7.089   5.331  15.929  0.00  0.00    +0.000 C 
ATOM     22  C   UNL     1       5.366   4.048  17.306  0.00  0.00    +0.000 C 
ENDBRANCH   6  17
BRANCH   1  24
ATOM     23  C   UNL     1       2.619   1.997  19.100  0.00  0.00    +0.000 C 
ATOM     24  O   UNL     1       3.302   2.782  20.077  0.00  0.00    +0.000 OA
ENDBRANCH   1  24
TORSDOF 3
ENDMDL
