MODEL 1
REMARK VINA RESULT:      -5.6      0.000      0.000
REMARK  Name = 
REMARK  12 active torsions:
REMARK  status: ('A' for Active; 'I' for Inactive)
REMARK    1  A    between atoms: C_1  and  C_2
REMARK    2  A    between atoms: C_2  and  C_3
REMARK    3  A    between atoms: C_3  and  C_4
REMARK    4  A    between atoms: C_4  and  O_6
REMARK    5  A    between atoms: O_6  and  C_7
REMARK    6  A    between atoms: C_7  and  O_8
REMARK    7  A    between atoms: O_8  and  C_9
REMARK    8  A    between atoms: C_9  and  C_11
REMARK    9  A    between atoms: C_11  and  C_12
REMARK   10  A    between atoms: C_12  and  C_13
REMARK   11  A    between atoms: C_13  and  C_15
REMARK   12  A    between atoms: C_15  and  N_16
REMARK                            x       y       z     vdW  Elec       q    Type
REMARK                         _______ _______ _______ _____ _____    ______ ____
ROOT
ATOM      1  C   UNL     1       5.167   4.592  18.851  0.00  0.00    +0.000 C 
ATOM      2  O   UNL     1       4.601   5.676  18.868  0.00  0.00    +0.000 OA
ENDROOT
BRANCH   1   3
ATOM      3  O   UNL     1       6.520   4.512  18.940  0.00  0.00    +0.000 OA
BRANCH   3   4
ATOM      4  C   UNL     1       7.391   5.208  18.123  0.00  0.00    +0.000 C 
BRANCH   4   5
ATOM      5  O   UNL     1       7.744   4.445  17.026  0.00  0.00    +0.000 OA
BRANCH   5   6
ATOM      6  C   UNL     1       7.286   4.658  15.766  0.00  0.00    +0.000 C 
ATOM      7  O   UNL     1       7.737   5.566  15.080  0.00  0.00    +0.000 OA
BRANCH   6   8
ATOM      8  C   UNL     1       6.211   3.768  15.212  0.00  0.00    +0.000 C 
BRANCH   8  10
ATOM      9  C   UNL     1       5.818   3.409  12.718  0.00  0.00    +0.000 C 
ATOM     10  C   UNL     1       5.598   4.329  13.920  0.00  0.00    +0.000 C 
ENDBRANCH   8  10
ENDBRANCH   6   8
ENDBRANCH   5   6
ENDBRANCH   4   5
ENDBRANCH   3   4
ENDBRANCH   1   3
BRANCH   1  11
ATOM     11  C   UNL     1       4.354   3.333  18.728  0.00  0.00    +0.000 C 
BRANCH  11  12
ATOM     12  C   UNL     1       3.379   3.388  17.541  0.00  0.00    +0.000 C 
BRANCH  12  13
ATOM     13  C   UNL     1       1.919   3.359  17.930  0.00  0.00    +0.000 C 
ATOM     14  O   UNL     1       1.125   4.166  17.464  0.00  0.00    +0.000 OA
BRANCH  13  15
ATOM     15  C   UNL     1       1.425   2.325  18.901  0.00  0.00    +0.000 C 
BRANCH  15  16
ATOM     16  N   UNL     1       0.140   2.731  19.458  0.00  0.00    +0.000 NA
ATOM     17  H   UNL     1      -0.616   2.146  19.032  0.00  0.00    +0.000 HD
ATOM     18  H   UNL     1      -0.038   3.725  19.187  0.00  0.00    +0.000 HD
ENDBRANCH  15  16
ENDBRANCH  13  15
ENDBRANCH  12  13
ENDBRANCH  11  12
ENDBRANCH   1  11
TORSDOF 11
ENDMDL
MODEL 2
REMARK VINA RESULT:      -5.5      2.966      5.807
REMARK  Name = 
REMARK  12 active torsions:
REMARK  status: ('A' for Active; 'I' for Inactive)
REMARK    1  A    between atoms: C_1  and  C_2
REMARK    2  A    between atoms: C_2  and  C_3
REMARK    3  A    between atoms: C_3  and  C_4
REMARK    4  A    between atoms: C_4  and  O_6
REMARK    5  A    between atoms: O_6  and  C_7
REMARK    6  A    between atoms: C_7  and  O_8
REMARK    7  A    between atoms: O_8  and  C_9
REMARK    8  A    between atoms: C_9  and  C_11
REMARK    9  A    between atoms: C_11  and  C_12
REMARK   10  A    between atoms: C_12  and  C_13
REMARK   11  A    between atoms: C_13  and  C_15
REMARK   12  A    between atoms: C_15  and  N_16
REMARK                            x       y       z     vdW  Elec       q    Type
REMARK                         _______ _______ _______ _____ _____    ______ ____
ROOT
ATOM      1  C   UNL     1       5.406   4.585  19.080  0.00  0.00    +0.000 C 
ATOM      2  O   UNL     1       6.213   5.210  19.755  0.00  0.00    +0.000 OA
ENDROOT
BRANCH   1   3
ATOM      3  O   UNL     1       5.263   3.244  19.233  0.00  0.00    +0.000 OA
BRANCH   3   4
ATOM      4  C   UNL     1       4.259   2.651  19.975  0.00  0.00    +0.000 C 
BRANCH   4   5
ATOM      5  O   UNL     1       3.579   3.599  20.717  0.00  0.00    +0.000 OA
BRANCH   5   6
ATOM      6  C   UNL     1       2.298   3.463  21.144  0.00  0.00    +0.000 C 
ATOM      7  O   UNL     1       2.031   2.777  22.122  0.00  0.00    +0.000 OA
BRANCH   6   8
ATOM      8  C   UNL     1       1.195   4.162  20.401  0.00  0.00    +0.000 C 
BRANCH   8  10
ATOM      9  C   UNL     1       0.837   2.314  18.681  0.00  0.00    +0.000 C 
ATOM     10  C   UNL     1       1.168   3.789  18.911  0.00  0.00    +0.000 C 
ENDBRANCH   8  10
ENDBRANCH   6   8
ENDBRANCH   5   6
ENDBRANCH   4   5
ENDBRANCH   3   4
ENDBRANCH   1   3
BRANCH   1  11
ATOM     11  C   UNL     1       4.566   5.313  18.068  0.00  0.00    +0.000 C 
BRANCH  11  12
ATOM     12  C   UNL     1       4.649   4.668  16.675  0.00  0.00    +0.000 C 
BRANCH  12  13
ATOM     13  C   UNL     1       5.599   5.358  15.723  0.00  0.00    +0.000 C 
ATOM     14  O   UNL     1       5.357   6.477  15.290  0.00  0.00    +0.000 OA
BRANCH  13  15
ATOM     15  C   UNL     1       6.864   4.668  15.299  0.00  0.00    +0.000 C 
BRANCH  15  16
ATOM     16  N   UNL     1       7.762   4.521  16.439  0.00  0.00    +0.000 NA
ATOM     17  H   UNL     1       7.192   4.387  17.307  0.00  0.00    +0.000 HD
ATOM     18  H   UNL     1       8.304   5.409  16.549  0.00  0.00    +0.000 HD
ENDBRANCH  15  16
ENDBRANCH  13  15
ENDBRANCH  12  13
ENDBRANCH  11  12
ENDBRANCH   1  11
TORSDOF 11
ENDMDL
MODEL 3
REMARK VINA RESULT:      -5.4      2.930      6.011
REMARK  Name = 
REMARK  12 active torsions:
REMARK  status: ('A' for Active; 'I' for Inactive)
REMARK    1  A    between atoms: C_1  and  C_2
REMARK    2  A    between atoms: C_2  and  C_3
REMARK    3  A    between atoms: C_3  and  C_4
REMARK    4  A    between atoms: C_4  and  O_6
REMARK    5  A    between atoms: O_6  and  C_7
REMARK    6  A    between atoms: C_7  and  O_8
REMARK    7  A    between atoms: O_8  and  C_9
REMARK    8  A    between atoms: C_9  and  C_11
REMARK    9  A    between atoms: C_11  and  C_12
REMARK   10  A    between atoms: C_12  and  C_13
REMARK   11  A    between atoms: C_13  and  C_15
REMARK   12  A    between atoms: C_15  and  N_16
REMARK                            x       y       z     vdW  Elec       q    Type
REMARK                         _______ _______ _______ _____ _____    ______ ____
ROOT
ATOM      1  C   UNL     1       4.006   5.675  19.061  0.00  0.00    +0.000 C 
ATOM      2  O   UNL     1       4.672   4.690  19.350  0.00  0.00    +0.000 OA
ENDROOT
BRANCH   1   3
ATOM      3  O   UNL     1       3.100   6.182  19.937  0.00  0.00    +0.000 OA
BRANCH   3   4
ATOM      4  C   UNL     1       1.906   5.565  20.261  0.00  0.00    +0.000 C 
BRANCH   4   5
ATOM      5  O   UNL     1       2.105   4.604  21.234  0.00  0.00    +0.000 OA
BRANCH   5   6
ATOM      6  C   UNL     1       1.601   3.345  21.181  0.00  0.00    +0.000 C 
ATOM      7  O   UNL     1       1.674   2.598  22.148  0.00  0.00    +0.000 OA
BRANCH   6   8
ATOM      8  C   UNL     1       0.950   2.865  19.915  0.00  0.00    +0.000 C 
BRANCH   8  10
ATOM      9  C   UNL     1       2.284   2.685  17.749  0.00  0.00    +0.000 C 
ATOM     10  C   UNL     1       1.895   2.005  19.062  0.00  0.00    +0.000 C 
ENDBRANCH   8  10
ENDBRANCH   6   8
ENDBRANCH   5   6
ENDBRANCH   4   5
ENDBRANCH   3   4
ENDBRANCH   1   3
BRANCH   1  11
ATOM     11  C   UNL     1       4.190   6.327  17.720  0.00  0.00    +0.000 C 
BRANCH  11  12
ATOM     12  C   UNL     1       5.673   6.532  17.374  0.00  0.00    +0.000 C 
BRANCH  12  13
ATOM     13  C   UNL     1       6.172   5.676  16.232  0.00  0.00    +0.000 C 
ATOM     14  O   UNL     1       5.840   5.908  15.077  0.00  0.00    +0.000 OA
BRANCH  13  15
ATOM     15  C   UNL     1       7.096   4.525  16.510  0.00  0.00    +0.000 C 
BRANCH  15  16
ATOM     16  N   UNL     1       7.275   4.360  17.948  0.00  0.00    +0.000 NA
ATOM     17  H   UNL     1       7.695   5.235  18.340  0.00  0.00    +0.000 HD
ATOM     18  H   UNL     1       7.955   3.582  18.108  0.00  0.00    +0.000 HD
ENDBRANCH  15  16
ENDBRANCH  13  15
ENDBRANCH  12  13
ENDBRANCH  11  12
ENDBRANCH   1  11
TORSDOF 11
ENDMDL
MODEL 4
REMARK VINA RESULT:      -5.4      3.224      5.815
REMARK  Name = 
REMARK  12 active torsions:
REMARK  status: ('A' for Active; 'I' for Inactive)
REMARK    1  A    between atoms: C_1  and  C_2
REMARK    2  A    between atoms: C_2  and  C_3
REMARK    3  A    between atoms: C_3  and  C_4
REMARK    4  A    between atoms: C_4  and  O_6
REMARK    5  A    between atoms: O_6  and  C_7
REMARK    6  A    between atoms: C_7  and  O_8
REMARK    7  A    between atoms: O_8  and  C_9
REMARK    8  A    between atoms: C_9  and  C_11
REMARK    9  A    between atoms: C_11  and  C_12
REMARK   10  A    between atoms: C_12  and  C_13
REMARK   11  A    between atoms: C_13  and  C_15
REMARK   12  A    between atoms: C_15  and  N_16
REMARK                            x       y       z     vdW  Elec       q    Type
REMARK                         _______ _______ _______ _____ _____    ______ ____
ROOT
ATOM      1  C   UNL     1       6.850   4.626  15.175  0.00  0.00    +0.000 C 
ATOM      2  O   UNL     1       7.688   5.424  14.778  0.00  0.00    +0.000 OA
ENDROOT
BRANCH   1   3
ATOM      3  O   UNL     1       6.862   4.187  16.460  0.00  0.00    +0.000 OA
BRANCH   3   4
ATOM      4  C   UNL     1       6.732   5.013  17.561  0.00  0.00    +0.000 C 
BRANCH   4   5
ATOM      5  O   UNL     1       5.434   4.990  18.036  0.00  0.00    +0.000 OA
BRANCH   5   6
ATOM      6  C   UNL     1       4.790   3.870  18.449  0.00  0.00    +0.000 C 
ATOM      7  O   UNL     1       5.056   3.354  19.527  0.00  0.00    +0.000 OA
BRANCH   6   8
ATOM      8  C   UNL     1       3.738   3.257  17.568  0.00  0.00    +0.000 C 
BRANCH   8  10
ATOM      9  C   UNL     1       1.549   2.331  18.491  0.00  0.00    +0.000 C 
ATOM     10  C   UNL     1       3.035   2.068  18.241  0.00  0.00    +0.000 C 
ENDBRANCH   8  10
ENDBRANCH   6   8
ENDBRANCH   5   6
ENDBRANCH   4   5
ENDBRANCH   3   4
ENDBRANCH   1   3
BRANCH   1  11
ATOM     11  C   UNL     1       5.797   4.122  14.227  0.00  0.00    +0.000 C 
BRANCH  11  12
ATOM     12  C   UNL     1       6.380   3.771  12.849  0.00  0.00    +0.000 C 
BRANCH  12  13
ATOM     13  C   UNL     1       5.444   2.988  11.956  0.00  0.00    +0.000 C 
ATOM     14  O   UNL     1       4.346   3.431  11.649  0.00  0.00    +0.000 OA
BRANCH  13  15
ATOM     15  C   UNL     1       5.865   1.645  11.430  0.00  0.00    +0.000 C 
BRANCH  15  16
ATOM     16  N   UNL     1       7.307   1.619  11.211  0.00  0.00    +0.000 NA
ATOM     17  H   UNL     1       7.564   2.391  10.552  0.00  0.00    +0.000 HD
ATOM     18  H   UNL     1       7.554   0.714  10.751  0.00  0.00    +0.000 HD
ENDBRANCH  15  16
ENDBRANCH  13  15
ENDBRANCH  12  13
ENDBRANCH  11  12
ENDBRANCH   1  11
TORSDOF 11
ENDMDL
MODEL 5
REMARK VINA RESULT:      -5.4      3.244      6.023
REMARK  Name = 
REMARK  12 active torsions:
REMARK  status: ('A' for Active; 'I' for Inactive)
REMARK    1  A    between atoms: C_1  and  C_2
REMARK    2  A    between atoms: C_2  and  C_3
REMARK    3  A    between atoms: C_3  and  C_4
REMARK    4  A    between atoms: C_4  and  O_6
REMARK    5  A    between atoms: O_6  and  C_7
REMARK    6  A    between atoms: C_7  and  O_8
REMARK    7  A    between atoms: O_8  and  C_9
REMARK    8  A    between atoms: C_9  and  C_11
REMARK    9  A    between atoms: C_11  and  C_12
REMARK   10  A    between atoms: C_12  and  C_13
REMARK   11  A    between atoms: C_13  and  C_15
REMARK   12  A    between atoms: C_15  and  N_16
REMARK                            x       y       z     vdW  Elec       q    Type
REMARK                         _______ _______ _______ _____ _____    ______ ____
ROOT
ATOM      1  C   UNL     1       4.730   4.238  18.394  0.00  0.00    +0.000 C 
ATOM      2  O   UNL     1       4.807   3.509  17.414  0.00  0.00    +0.000 OA
ENDROOT
BRANCH   1   3
ATOM      3  O   UNL     1       4.693   3.717  19.647  0.00  0.00    +0.000 OA
BRANCH   3   4
ATOM      4  C   UNL     1       4.474   2.380  19.923  0.00  0.00    +0.000 C 
BRANCH   4   5
ATOM      5  O   UNL     1       3.123   2.130  20.076  0.00  0.00    +0.000 OA
BRANCH   5   6
ATOM      6  C   UNL     1       2.308   2.818  20.915  0.00  0.00    +0.000 C 
ATOM      7  O   UNL     1       2.485   2.790  22.126  0.00  0.00    +0.000 OA
BRANCH   6   8
ATOM      8  C   UNL     1       1.173   3.621  20.346  0.00  0.00    +0.000 C 
BRANCH   8  10
ATOM      9  C   UNL     1       1.273   4.142  17.852  0.00  0.00    +0.000 C 
ATOM     10  C   UNL     1       0.792   3.168  18.928  0.00  0.00    +0.000 C 
ENDBRANCH   8  10
ENDBRANCH   6   8
ENDBRANCH   5   6
ENDBRANCH   4   5
ENDBRANCH   3   4
ENDBRANCH   1   3
BRANCH   1  11
ATOM     11  C   UNL     1       4.671   5.728  18.205  0.00  0.00    +0.000 C 
BRANCH  11  12
ATOM     12  C   UNL     1       5.556   6.200  17.040  0.00  0.00    +0.000 C 
BRANCH  12  13
ATOM     13  C   UNL     1       7.011   6.398  17.400  0.00  0.00    +0.000 C 
ATOM     14  O   UNL     1       7.647   7.347  16.962  0.00  0.00    +0.000 OA
BRANCH  13  15
ATOM     15  C   UNL     1       7.692   5.421  18.315  0.00  0.00    +0.000 C 
BRANCH  15  16
ATOM     16  N   UNL     1       8.026   4.200  17.589  0.00  0.00    +0.000 NA
ATOM     17  H   UNL     1       7.154   3.815  17.155  0.00  0.00    +0.000 HD
ATOM     18  H   UNL     1       8.377   3.494  18.275  0.00  0.00    +0.000 HD
ENDBRANCH  15  16
ENDBRANCH  13  15
ENDBRANCH  12  13
ENDBRANCH  11  12
ENDBRANCH   1  11
TORSDOF 11
ENDMDL
MODEL 6
REMARK VINA RESULT:      -5.4      1.723      2.097
REMARK  Name = 
REMARK  12 active torsions:
REMARK  status: ('A' for Active; 'I' for Inactive)
REMARK    1  A    between atoms: C_1  and  C_2
REMARK    2  A    between atoms: C_2  and  C_3
REMARK    3  A    between atoms: C_3  and  C_4
REMARK    4  A    between atoms: C_4  and  O_6
REMARK    5  A    between atoms: O_6  and  C_7
REMARK    6  A    between atoms: C_7  and  O_8
REMARK    7  A    between atoms: O_8  and  C_9
REMARK    8  A    between atoms: C_9  and  C_11
REMARK    9  A    between atoms: C_11  and  C_12
REMARK   10  A    between atoms: C_12  and  C_13
REMARK   11  A    between atoms: C_13  and  C_15
REMARK   12  A    between atoms: C_15  and  N_16
REMARK                            x       y       z     vdW  Elec       q    Type
REMARK                         _______ _______ _______ _____ _____    ______ ____
ROOT
ATOM      1  C   UNL     1       4.431   2.983  19.227  0.00  0.00    +0.000 C 
ATOM      2  O   UNL     1       5.005   2.334  20.092  0.00  0.00    +0.000 OA
ENDROOT
BRANCH   1   3
ATOM      3  O   UNL     1       4.565   4.333  19.167  0.00  0.00    +0.000 OA
BRANCH   3   4
ATOM      4  C   UNL     1       5.778   4.993  19.218  0.00  0.00    +0.000 C 
BRANCH   4   5
ATOM      5  O   UNL     1       6.343   5.071  17.959  0.00  0.00    +0.000 OA
BRANCH   5   6
ATOM      6  C   UNL     1       6.135   6.091  17.088  0.00  0.00    +0.000 C 
ATOM      7  O   UNL     1       6.585   7.207  17.310  0.00  0.00    +0.000 OA
BRANCH   6   8
ATOM      8  C   UNL     1       5.339   5.843  15.839  0.00  0.00    +0.000 C 
BRANCH   8  10
ATOM      9  C   UNL     1       6.193   3.919  14.401  0.00  0.00    +0.000 C 
ATOM     10  C   UNL     1       5.227   4.348  15.506  0.00  0.00    +0.000 C 
ENDBRANCH   8  10
ENDBRANCH   6   8
ENDBRANCH   5   6
ENDBRANCH   4   5
ENDBRANCH   3   4
ENDBRANCH   1   3
BRANCH   1  11
ATOM     11  C   UNL     1       3.564   2.276  18.223  0.00  0.00    +0.000 C 
BRANCH  11  12
ATOM     12  C   UNL     1       2.332   3.108  17.833  0.00  0.00    +0.000 C 
BRANCH  12  13
ATOM     13  C   UNL     1       1.124   2.886  18.714  0.00  0.00    +0.000 C 
ATOM     14  O   UNL     1       0.296   2.026  18.446  0.00  0.00    +0.000 OA
BRANCH  13  15
ATOM     15  C   UNL     1       0.932   3.728  19.943  0.00  0.00    +0.000 C 
BRANCH  15  16
ATOM     16  N   UNL     1       0.975   2.892  21.137  0.00  0.00    +0.000 NA
ATOM     17  H   UNL     1       0.248   3.227  21.812  0.00  0.00    +0.000 HD
ATOM     18  H   UNL     1       1.909   3.013  21.591  0.00  0.00    +0.000 HD
ENDBRANCH  15  16
ENDBRANCH  13  15
ENDBRANCH  12  13
ENDBRANCH  11  12
ENDBRANCH   1  11
TORSDOF 11
ENDMDL
MODEL 7
REMARK VINA RESULT:      -5.4      3.022      6.185
REMARK  Name = 
REMARK  12 active torsions:
REMARK  status: ('A' for Active; 'I' for Inactive)
REMARK    1  A    between atoms: C_1  and  C_2
REMARK    2  A    between atoms: C_2  and  C_3
REMARK    3  A    between atoms: C_3  and  C_4
REMARK    4  A    between atoms: C_4  and  O_6
REMARK    5  A    between atoms: O_6  and  C_7
REMARK    6  A    between atoms: C_7  and  O_8
REMARK    7  A    between atoms: O_8  and  C_9
REMARK    8  A    between atoms: C_9  and  C_11
REMARK    9  A    between atoms: C_11  and  C_12
REMARK   10  A    between atoms: C_12  and  C_13
REMARK   11  A    between atoms: C_13  and  C_15
REMARK   12  A    between atoms: C_15  and  N_16
REMARK                            x       y       z     vdW  Elec       q    Type
REMARK                         _______ _______ _______ _____ _____    ______ ____
ROOT
ATOM      1  C   UNL     1       4.871   4.066  18.571  0.00  0.00    +0.000 C 
ATOM      2  O   UNL     1       5.277   3.477  19.564  0.00  0.00    +0.000 OA
ENDROOT
BRANCH   1   3
ATOM      3  O   UNL     1       4.164   3.411  17.615  0.00  0.00    +0.000 OA
BRANCH   3   4
ATOM      4  C   UNL     1       3.511   2.210  17.820  0.00  0.00    +0.000 C 
BRANCH   4   5
ATOM      5  O   UNL     1       2.150   2.359  17.630  0.00  0.00    +0.000 OA
BRANCH   5   6
ATOM      6  C   UNL     1       1.231   2.341  18.629  0.00  0.00    +0.000 C 
ATOM      7  O   UNL     1       0.084   1.971  18.420  0.00  0.00    +0.000 OA
BRANCH   6   8
ATOM      8  C   UNL     1       1.632   2.786  20.007  0.00  0.00    +0.000 C 
BRANCH   8  10
ATOM      9  C   UNL     1       2.073   5.183  20.753  0.00  0.00    +0.000 C 
ATOM     10  C   UNL     1       1.016   4.141  20.384  0.00  0.00    +0.000 C 
ENDBRANCH   8  10
ENDBRANCH   6   8
ENDBRANCH   5   6
ENDBRANCH   4   5
ENDBRANCH   3   4
ENDBRANCH   1   3
BRANCH   1  11
ATOM     11  C   UNL     1       5.162   5.532  18.410  0.00  0.00    +0.000 C 
BRANCH  11  12
ATOM     12  C   UNL     1       6.393   5.784  17.525  0.00  0.00    +0.000 C 
BRANCH  12  13
ATOM     13  C   UNL     1       6.108   5.773  16.040  0.00  0.00    +0.000 C 
ATOM     14  O   UNL     1       5.344   6.586  15.538  0.00  0.00    +0.000 OA
BRANCH  13  15
ATOM     15  C   UNL     1       6.775   4.755  15.160  0.00  0.00    +0.000 C 
BRANCH  15  16
ATOM     16  N   UNL     1       7.690   5.413  14.234  0.00  0.00    +0.000 NA
ATOM     17  H   UNL     1       8.221   6.153  14.749  0.00  0.00    +0.000 HD
ATOM     18  H   UNL     1       7.125   5.885  13.492  0.00  0.00    +0.000 HD
ENDBRANCH  15  16
ENDBRANCH  13  15
ENDBRANCH  12  13
ENDBRANCH  11  12
ENDBRANCH   1  11
TORSDOF 11
ENDMDL
MODEL 8
REMARK VINA RESULT:      -5.4      1.321      1.403
REMARK  Name = 
REMARK  12 active torsions:
REMARK  status: ('A' for Active; 'I' for Inactive)
REMARK    1  A    between atoms: C_1  and  C_2
REMARK    2  A    between atoms: C_2  and  C_3
REMARK    3  A    between atoms: C_3  and  C_4
REMARK    4  A    between atoms: C_4  and  O_6
REMARK    5  A    between atoms: O_6  and  C_7
REMARK    6  A    between atoms: C_7  and  O_8
REMARK    7  A    between atoms: O_8  and  C_9
REMARK    8  A    between atoms: C_9  and  C_11
REMARK    9  A    between atoms: C_11  and  C_12
REMARK   10  A    between atoms: C_12  and  C_13
REMARK   11  A    between atoms: C_13  and  C_15
REMARK   12  A    between atoms: C_15  and  N_16
REMARK                            x       y       z     vdW  Elec       q    Type
REMARK                         _______ _______ _______ _____ _____    ______ ____
ROOT
ATOM      1  C   UNL     1       4.651   4.855  18.673  0.00  0.00    +0.000 C 
ATOM      2  O   UNL     1       4.368   5.517  19.662  0.00  0.00    +0.000 OA
ENDROOT
BRANCH   1   3
ATOM      3  O   UNL     1       5.831   4.187  18.597  0.00  0.00    +0.000 OA
BRANCH   3   4
ATOM      4  C   UNL     1       6.995   4.728  18.084  0.00  0.00    +0.000 C 
BRANCH   4   5
ATOM      5  O   UNL     1       7.126   4.417  16.744  0.00  0.00    +0.000 OA
BRANCH   5   6
ATOM      6  C   UNL     1       6.846   5.273  15.728  0.00  0.00    +0.000 C 
ATOM      7  O   UNL     1       6.474   6.417  15.956  0.00  0.00    +0.000 OA
BRANCH   6   8
ATOM      8  C   UNL     1       6.994   4.806  14.308  0.00  0.00    +0.000 C 
BRANCH   8  10
ATOM      9  C   UNL     1       6.010   3.343  12.467  0.00  0.00    +0.000 C 
ATOM     10  C   UNL     1       5.784   3.986  13.836  0.00  0.00    +0.000 C 
ENDBRANCH   8  10
ENDBRANCH   6   8
ENDBRANCH   5   6
ENDBRANCH   4   5
ENDBRANCH   3   4
ENDBRANCH   1   3
BRANCH   1  11
ATOM     11  C   UNL     1       3.681   4.785  17.526  0.00  0.00    +0.000 C 
BRANCH  11  12
ATOM     12  C   UNL     1       2.227   4.980  17.985  0.00  0.00    +0.000 C 
BRANCH  12  13
ATOM     13  C   UNL     1       1.577   3.736  18.547  0.00  0.00    +0.000 C 
ATOM     14  O   UNL     1       1.547   2.694  17.905  0.00  0.00    +0.000 OA
BRANCH  13  15
ATOM     15  C   UNL     1       0.962   3.769  19.917  0.00  0.00    +0.000 C 
BRANCH  15  16
ATOM     16  N   UNL     1       1.840   4.471  20.846  0.00  0.00    +0.000 NA
ATOM     17  H   UNL     1       1.260   5.090  21.460  0.00  0.00    +0.000 HD
ATOM     18  H   UNL     1       2.482   5.083  20.294  0.00  0.00    +0.000 HD
ENDBRANCH  15  16
ENDBRANCH  13  15
ENDBRANCH  12  13
ENDBRANCH  11  12
ENDBRANCH   1  11
TORSDOF 11
ENDMDL
MODEL 9
REMARK VINA RESULT:      -5.3      2.383      3.499
REMARK  Name = 
REMARK  12 active torsions:
REMARK  status: ('A' for Active; 'I' for Inactive)
REMARK    1  A    between atoms: C_1  and  C_2
REMARK    2  A    between atoms: C_2  and  C_3
REMARK    3  A    between atoms: C_3  and  C_4
REMARK    4  A    between atoms: C_4  and  O_6
REMARK    5  A    between atoms: O_6  and  C_7
REMARK    6  A    between atoms: C_7  and  O_8
REMARK    7  A    between atoms: O_8  and  C_9
REMARK    8  A    between atoms: C_9  and  C_11
REMARK    9  A    between atoms: C_11  and  C_12
REMARK   10  A    between atoms: C_12  and  C_13
REMARK   11  A    between atoms: C_13  and  C_15
REMARK   12  A    between atoms: C_15  and  N_16
REMARK                            x       y       z     vdW  Elec       q    Type
REMARK                         _______ _______ _______ _____ _____    ______ ____
ROOT
ATOM      1  C   UNL     1       3.149   2.282  18.171  0.00  0.00    +0.000 C 
ATOM      2  O   UNL     1       3.506   1.187  18.584  0.00  0.00    +0.000 OA
ENDROOT
BRANCH   1   3
ATOM      3  O   UNL     1       3.974   3.036  17.398  0.00  0.00    +0.000 OA
BRANCH   3   4
ATOM      4  C   UNL     1       3.763   4.372  17.115  0.00  0.00    +0.000 C 
BRANCH   4   5
ATOM      5  O   UNL     1       4.725   5.155  17.724  0.00  0.00    +0.000 OA
BRANCH   5   6
ATOM      6  C   UNL     1       5.896   4.681  18.221  0.00  0.00    +0.000 C 
ATOM      7  O   UNL     1       5.987   4.335  19.391  0.00  0.00    +0.000 OA
BRANCH   6   8
ATOM      8  C   UNL     1       7.094   4.585  17.319  0.00  0.00    +0.000 C 
BRANCH   8  10
ATOM      9  C   UNL     1       6.715   4.477  14.800  0.00  0.00    +0.000 C 
ATOM     10  C   UNL     1       6.909   5.381  16.018  0.00  0.00    +0.000 C 
ENDBRANCH   8  10
ENDBRANCH   6   8
ENDBRANCH   5   6
ENDBRANCH   4   5
ENDBRANCH   3   4
ENDBRANCH   1   3
BRANCH   1  11
ATOM     11  C   UNL     1       1.784   2.801  18.527  0.00  0.00    +0.000 C 
BRANCH  11  12
ATOM     12  C   UNL     1       1.417   2.506  19.990  0.00  0.00    +0.000 C 
BRANCH  12  13
ATOM     13  C   UNL     1       1.834   3.581  20.968  0.00  0.00    +0.000 C 
ATOM     14  O   UNL     1       2.211   3.296  22.097  0.00  0.00    +0.000 OA
BRANCH  13  15
ATOM     15  C   UNL     1       1.792   5.024  20.554  0.00  0.00    +0.000 C 
BRANCH  15  16
ATOM     16  N   UNL     1       3.146   5.531  20.359  0.00  0.00    +0.000 NA
ATOM     17  H   UNL     1       3.097   6.434  19.831  0.00  0.00    +0.000 HD
ATOM     18  H   UNL     1       3.672   4.847  19.769  0.00  0.00    +0.000 HD
ENDBRANCH  15  16
ENDBRANCH  13  15
ENDBRANCH  12  13
ENDBRANCH  11  12
ENDBRANCH   1  11
TORSDOF 11
ENDMDL
