MODEL 1
REMARK VINA RESULT:      -8.3      0.000      0.000
REMARK  Name = 
REMARK  5 active torsions:
REMARK  status: ('A' for Active; 'I' for Inactive)
REMARK    1  A    between atoms: C_2  and  C_3
REMARK    2  A    between atoms: C_3  and  C_4
REMARK    3  A    between atoms: C_4  and  C_5
REMARK    4  A    between atoms: C_16  and  C_17
REMARK    5  A    between atoms: C_17  and  N_18
REMARK                            x       y       z     vdW  Elec       q    Type
REMARK                         _______ _______ _______ _____ _____    ______ ____
ROOT
ATOM      1  O   UNL     1       4.893   3.064  19.554  0.00  0.00    +0.000 OA
ATOM      2  C   UNL     1       4.479   3.853  18.706  0.00  0.00    +0.000 C 
ATOM      3  N   UNL     1       5.324   4.531  17.845  0.00  0.00    +0.000 N 
ATOM      4  C   UNL     1       4.932   5.545  16.865  0.00  0.00    +0.000 C 
ATOM      5  C   UNL     1       5.349   6.942  17.346  0.00  0.00    +0.000 C 
ATOM      6  C   UNL     1       6.834   6.985  17.699  0.00  0.00    +0.000 C 
ATOM      7  C   UNL     1       7.265   5.840  18.611  0.00  0.00    +0.000 C 
ATOM      8  C   UNL     1       6.765   4.486  18.092  0.00  0.00    +0.000 C 
ATOM      9  C   UNL     1       7.799   7.471  16.644  0.00  0.00    +0.000 C 
ATOM     10  C   UNL     1       7.500   8.359  17.830  0.00  0.00    +0.000 C 
ENDROOT
BRANCH   2  11
ATOM     11  C   UNL     1       2.984   4.092  18.566  0.00  0.00    +0.000 C 
BRANCH  11  12
ATOM     12  C   UNL     1       2.304   4.190  19.931  0.00  0.00    +0.000 C 
BRANCH  12  13
ATOM     13  C   UNL     1       1.405   2.997  20.215  0.00  0.00    +0.000 C 
ATOM     14  F   UNL     1       0.213   3.069  19.585  0.00  0.00    +0.000 F 
ATOM     15  F   UNL     1       2.002   1.860  19.781  0.00  0.00    +0.000 F 
ATOM     16  F   UNL     1       1.177   2.846  21.536  0.00  0.00    +0.000 F 
ENDBRANCH  12  13
ENDBRANCH  11  12
ENDBRANCH   2  11
BRANCH  10  17
ATOM     17  C   UNL     1       8.618   8.687  18.784  0.00  0.00    +0.000 C 
BRANCH  17  18
ATOM     18  N   UNL     1       9.194   9.980  18.476  0.00  0.00    +0.000 N 
ATOM     19  C   UNL     1       9.582  10.813  19.507  0.00  0.00    +0.000 C 
ATOM     20  O   UNL     1       9.446  10.522  20.694  0.00  0.00    +0.000 OA
ATOM     21  N   UNL     1      10.133  12.001  19.092  0.00  0.00    +0.000 N 
ATOM     22  C   UNL     1      10.641  12.981  20.061  0.00  0.00    +0.000 C 
ATOM     23  C   UNL     1      11.015  14.154  19.208  0.00  0.00    +0.000 A 
ATOM     24  C   UNL     1      11.616  15.349  19.550  0.00  0.00    +0.000 A 
ATOM     25  C   UNL     1      11.826  16.259  18.517  0.00  0.00    +0.000 A 
ATOM     26  N   UNL     1      11.472  16.045  17.222  0.00  0.00    +0.000 NA
ATOM     27  C   UNL     1      10.881  14.866  16.928  0.00  0.00    +0.000 A 
ATOM     28  C   UNL     1      10.650  13.909  17.884  0.00  0.00    +0.000 A 
ATOM     29  C   UNL     1      10.023  12.567  17.749  0.00  0.00    +0.000 C 
ATOM     30  H   UNL     1       9.833   9.998  17.700  0.00  0.00    +0.000 HD
ENDBRANCH  17  18
ENDBRANCH  10  17
TORSDOF 5
ENDMDL
MODEL 2
REMARK VINA RESULT:      -7.9      1.434      1.599
REMARK  Name = 
REMARK  5 active torsions:
REMARK  status: ('A' for Active; 'I' for Inactive)
REMARK    1  A    between atoms: C_2  and  C_3
REMARK    2  A    between atoms: C_3  and  C_4
REMARK    3  A    between atoms: C_4  and  C_5
REMARK    4  A    between atoms: C_16  and  C_17
REMARK    5  A    between atoms: C_17  and  N_18
REMARK                            x       y       z     vdW  Elec       q    Type
REMARK                         _______ _______ _______ _____ _____    ______ ____
ROOT
ATOM      1  O   UNL     1       4.826   2.974  19.279  0.00  0.00    +0.000 OA
ATOM      2  C   UNL     1       4.484   3.739  18.379  0.00  0.00    +0.000 C 
ATOM      3  N   UNL     1       5.398   4.429  17.602  0.00  0.00    +0.000 N 
ATOM      4  C   UNL     1       5.087   5.418  16.569  0.00  0.00    +0.000 C 
ATOM      5  C   UNL     1       5.412   6.833  17.069  0.00  0.00    +0.000 C 
ATOM      6  C   UNL     1       6.849   6.923  17.579  0.00  0.00    +0.000 C 
ATOM      7  C   UNL     1       7.210   5.804  18.550  0.00  0.00    +0.000 C 
ATOM      8  C   UNL     1       6.805   4.429  18.003  0.00  0.00    +0.000 C 
ATOM      9  C   UNL     1       7.908   7.423  16.624  0.00  0.00    +0.000 C 
ATOM     10  C   UNL     1       7.460   8.317  17.757  0.00  0.00    +0.000 C 
ENDROOT
BRANCH   2  11
ATOM     11  C   UNL     1       3.007   3.933  18.075  0.00  0.00    +0.000 C 
BRANCH  11  12
ATOM     12  C   UNL     1       2.257   4.488  19.285  0.00  0.00    +0.000 C 
BRANCH  12  13
ATOM     13  C   UNL     1       2.475   5.982  19.465  0.00  0.00    +0.000 C 
ATOM     14  F   UNL     1       2.189   6.697  18.355  0.00  0.00    +0.000 F 
ATOM     15  F   UNL     1       1.663   6.450  20.445  0.00  0.00    +0.000 F 
ATOM     16  F   UNL     1       3.743   6.260  19.833  0.00  0.00    +0.000 F 
ENDBRANCH  12  13
ENDBRANCH  11  12
ENDBRANCH   2  11
BRANCH  10  17
ATOM     17  C   UNL     1       8.460   8.690  18.820  0.00  0.00    +0.000 C 
BRANCH  17  18
ATOM     18  N   UNL     1       9.125   9.932  18.487  0.00  0.00    +0.000 N 
ATOM     19  C   UNL     1       9.520  10.784  19.499  0.00  0.00    +0.000 C 
ATOM     20  O   UNL     1       9.317  10.553  20.690  0.00  0.00    +0.000 OA
ATOM     21  N   UNL     1      10.160  11.919  19.062  0.00  0.00    +0.000 N 
ATOM     22  C   UNL     1      10.685  12.907  20.012  0.00  0.00    +0.000 C 
ATOM     23  C   UNL     1      11.166  14.018  19.131  0.00  0.00    +0.000 A 
ATOM     24  C   UNL     1      11.824  15.189  19.450  0.00  0.00    +0.000 A 
ATOM     25  C   UNL     1      12.133  16.040  18.392  0.00  0.00    +0.000 A 
ATOM     26  N   UNL     1      11.821  15.792  17.092  0.00  0.00    +0.000 NA
ATOM     27  C   UNL     1      11.171  14.639  16.820  0.00  0.00    +0.000 A 
ATOM     28  C   UNL     1      10.842  13.739  17.803  0.00  0.00    +0.000 A 
ATOM     29  C   UNL     1      10.141  12.432  17.693  0.00  0.00    +0.000 C 
ATOM     30  H   UNL     1       9.797   9.879  17.739  0.00  0.00    +0.000 HD
ENDBRANCH  17  18
ENDBRANCH  10  17
TORSDOF 5
ENDMDL
MODEL 3
REMARK VINA RESULT:      -7.7      1.438      1.494
REMARK  Name = 
REMARK  5 active torsions:
REMARK  status: ('A' for Active; 'I' for Inactive)
REMARK    1  A    between atoms: C_2  and  C_3
REMARK    2  A    between atoms: C_3  and  C_4
REMARK    3  A    between atoms: C_4  and  C_5
REMARK    4  A    between atoms: C_16  and  C_17
REMARK    5  A    between atoms: C_17  and  N_18
REMARK                            x       y       z     vdW  Elec       q    Type
REMARK                         _______ _______ _______ _____ _____    ______ ____
ROOT
ATOM      1  O   UNL     1       3.447   4.364  20.482  0.00  0.00    +0.000 OA
ATOM      2  C   UNL     1       3.334   4.734  19.314  0.00  0.00    +0.000 C 
ATOM      3  N   UNL     1       4.417   4.836  18.458  0.00  0.00    +0.000 N 
ATOM      4  C   UNL     1       4.392   5.342  17.085  0.00  0.00    +0.000 C 
ATOM      5  C   UNL     1       5.026   6.738  17.019  0.00  0.00    +0.000 C 
ATOM      6  C   UNL     1       6.422   6.742  17.640  0.00  0.00    +0.000 C 
ATOM      7  C   UNL     1       6.466   6.085  19.016  0.00  0.00    +0.000 C 
ATOM      8  C   UNL     1       5.766   4.720  19.013  0.00  0.00    +0.000 C 
ATOM      9  C   UNL     1       7.606   6.572  16.719  0.00  0.00    +0.000 C 
ATOM     10  C   UNL     1       7.340   7.929  17.330  0.00  0.00    +0.000 C 
ENDROOT
BRANCH   2  11
ATOM     11  C   UNL     1       1.959   5.076  18.761  0.00  0.00    +0.000 C 
BRANCH  11  12
ATOM     12  C   UNL     1       1.352   3.894  18.006  0.00  0.00    +0.000 C 
BRANCH  12  13
ATOM     13  C   UNL     1       1.027   2.727  18.926  0.00  0.00    +0.000 C 
ATOM     14  F   UNL     1       0.053   1.926  18.442  0.00  0.00    +0.000 F 
ATOM     15  F   UNL     1       2.125   1.947  19.082  0.00  0.00    +0.000 F 
ATOM     16  F   UNL     1       0.660   3.146  20.154  0.00  0.00    +0.000 F 
ENDBRANCH  12  13
ENDBRANCH  11  12
ENDBRANCH   2  11
BRANCH  10  17
ATOM     17  C   UNL     1       8.358   8.502  18.281  0.00  0.00    +0.000 C 
BRANCH  17  18
ATOM     18  N   UNL     1       8.434   9.942  18.145  0.00  0.00    +0.000 N 
ATOM     19  C   UNL     1       9.253  10.662  18.992  0.00  0.00    +0.000 C 
ATOM     20  O   UNL     1       9.920  10.142  19.886  0.00  0.00    +0.000 OA
ATOM     21  N   UNL     1       9.259  12.015  18.754  0.00  0.00    +0.000 N 
ATOM     22  C   UNL     1      10.113  12.919  19.535  0.00  0.00    +0.000 C 
ATOM     23  C   UNL     1       9.714  14.280  19.052  0.00  0.00    +0.000 A 
ATOM     24  C   UNL     1      10.224  15.523  19.369  0.00  0.00    +0.000 A 
ATOM     25  C   UNL     1       9.625  16.618  18.754  0.00  0.00    +0.000 A 
ATOM     26  N   UNL     1       8.582  16.535  17.884  0.00  0.00    +0.000 NA
ATOM     27  C   UNL     1       8.107  15.301  17.604  0.00  0.00    +0.000 A 
ATOM     28  C   UNL     1       8.650  14.169  18.157  0.00  0.00    +0.000 A 
ATOM     29  C   UNL     1       8.268  12.744  17.965  0.00  0.00    +0.000 C 
ATOM     30  H   UNL     1       8.449  10.290  17.201  0.00  0.00    +0.000 HD
ENDBRANCH  17  18
ENDBRANCH  10  17
TORSDOF 5
ENDMDL
MODEL 4
REMARK VINA RESULT:      -7.7      2.872      3.719
REMARK  Name = 
REMARK  5 active torsions:
REMARK  status: ('A' for Active; 'I' for Inactive)
REMARK    1  A    between atoms: C_2  and  C_3
REMARK    2  A    between atoms: C_3  and  C_4
REMARK    3  A    between atoms: C_4  and  C_5
REMARK    4  A    between atoms: C_16  and  C_17
REMARK    5  A    between atoms: C_17  and  N_18
REMARK                            x       y       z     vdW  Elec       q    Type
REMARK                         _______ _______ _______ _____ _____    ______ ____
ROOT
ATOM      1  O   UNL     1       2.609   4.909  21.634  0.00  0.00    +0.000 OA
ATOM      2  C   UNL     1       2.140   5.400  20.607  0.00  0.00    +0.000 C 
ATOM      3  N   UNL     1       2.640   5.111  19.349  0.00  0.00    +0.000 N 
ATOM      4  C   UNL     1       2.203   5.705  18.085  0.00  0.00    +0.000 C 
ATOM      5  C   UNL     1       3.254   6.699  17.571  0.00  0.00    +0.000 C 
ATOM      6  C   UNL     1       4.635   6.050  17.489  0.00  0.00    +0.000 C 
ATOM      7  C   UNL     1       5.025   5.312  18.765  0.00  0.00    +0.000 C 
ATOM      8  C   UNL     1       3.903   4.381  19.244  0.00  0.00    +0.000 C 
ATOM      9  C   UNL     1       5.071   5.480  16.160  0.00  0.00    +0.000 C 
ATOM     10  C   UNL     1       5.709   6.757  16.656  0.00  0.00    +0.000 C 
ENDROOT
BRANCH   2  11
ATOM     11  C   UNL     1       0.952   6.344  20.698  0.00  0.00    +0.000 C 
BRANCH  11  12
ATOM     12  C   UNL     1       1.396   7.771  21.016  0.00  0.00    +0.000 C 
BRANCH  12  13
ATOM     13  C   UNL     1       0.246   8.639  21.501  0.00  0.00    +0.000 C 
ATOM     14  F   UNL     1       0.533   9.315  22.635  0.00  0.00    +0.000 F 
ATOM     15  F   UNL     1      -0.051   9.572  20.563  0.00  0.00    +0.000 F 
ATOM     16  F   UNL     1      -0.872   7.915  21.711  0.00  0.00    +0.000 F 
ENDBRANCH  12  13
ENDBRANCH  11  12
ENDBRANCH   2  11
BRANCH  10  17
ATOM     17  C   UNL     1       7.183   6.751  16.967  0.00  0.00    +0.000 C 
BRANCH  17  18
ATOM     18  N   UNL     1       7.668   8.099  17.184  0.00  0.00    +0.000 N 
ATOM     19  C   UNL     1       8.393   8.385  18.323  0.00  0.00    +0.000 C 
ATOM     20  O   UNL     1       8.639   7.549  19.191  0.00  0.00    +0.000 OA
ATOM     21  N   UNL     1       8.817   9.689  18.407  0.00  0.00    +0.000 N 
ATOM     22  C   UNL     1       9.640  10.149  19.534  0.00  0.00    +0.000 C 
ATOM     23  C   UNL     1       9.754  11.624  19.304  0.00  0.00    +0.000 A 
ATOM     24  C   UNL     1      10.470  12.581  19.995  0.00  0.00    +0.000 A 
ATOM     25  C   UNL     1      10.363  13.892  19.537  0.00  0.00    +0.000 A 
ATOM     26  N   UNL     1       9.603  14.275  18.476  0.00  0.00    +0.000 NA
ATOM     27  C   UNL     1       8.913  13.310  17.829  0.00  0.00    +0.000 A 
ATOM     28  C   UNL     1       8.974  11.992  18.208  0.00  0.00    +0.000 A 
ATOM     29  C   UNL     1       8.296  10.806  17.620  0.00  0.00    +0.000 C 
ATOM     30  H   UNL     1       8.022   8.570  16.368  0.00  0.00    +0.000 HD
ENDBRANCH  17  18
ENDBRANCH  10  17
TORSDOF 5
ENDMDL
MODEL 5
REMARK VINA RESULT:      -7.6      6.320      8.740
REMARK  Name = 
REMARK  5 active torsions:
REMARK  status: ('A' for Active; 'I' for Inactive)
REMARK    1  A    between atoms: C_2  and  C_3
REMARK    2  A    between atoms: C_3  and  C_4
REMARK    3  A    between atoms: C_4  and  C_5
REMARK    4  A    between atoms: C_16  and  C_17
REMARK    5  A    between atoms: C_17  and  N_18
REMARK                            x       y       z     vdW  Elec       q    Type
REMARK                         _______ _______ _______ _____ _____    ______ ____
ROOT
ATOM      1  O   UNL     1       4.554   2.538  20.638  0.00  0.00    +0.000 OA
ATOM      2  C   UNL     1       4.403   2.612  19.419  0.00  0.00    +0.000 C 
ATOM      3  N   UNL     1       4.813   3.712  18.685  0.00  0.00    +0.000 N 
ATOM      4  C   UNL     1       4.603   3.925  17.253  0.00  0.00    +0.000 C 
ATOM      5  C   UNL     1       3.515   4.983  17.024  0.00  0.00    +0.000 C 
ATOM      6  C   UNL     1       3.824   6.269  17.788  0.00  0.00    +0.000 C 
ATOM      7  C   UNL     1       4.180   6.025  19.251  0.00  0.00    +0.000 C 
ATOM      8  C   UNL     1       5.233   4.918  19.399  0.00  0.00    +0.000 C 
ATOM      9  C   UNL     1       4.532   7.379  17.047  0.00  0.00    +0.000 C 
ATOM     10  C   UNL     1       3.068   7.540  17.387  0.00  0.00    +0.000 C 
ENDROOT
BRANCH   2  11
ATOM     11  C   UNL     1       3.765   1.456  18.667  0.00  0.00    +0.000 C 
BRANCH  11  12
ATOM     12  C   UNL     1       2.310   1.251  19.088  0.00  0.00    +0.000 C 
BRANCH  12  13
ATOM     13  C   UNL     1       1.405   2.372  18.601  0.00  0.00    +0.000 C 
ATOM     14  F   UNL     1       0.094   2.049  18.638  0.00  0.00    +0.000 F 
ATOM     15  F   UNL     1       1.556   3.460  19.396  0.00  0.00    +0.000 F 
ATOM     16  F   UNL     1       1.713   2.752  17.344  0.00  0.00    +0.000 F 
ENDBRANCH  12  13
ENDBRANCH  11  12
ENDBRANCH   2  11
BRANCH  10  17
ATOM     17  C   UNL     1       2.665   8.639  18.336  0.00  0.00    +0.000 C 
BRANCH  17  18
ATOM     18  N   UNL     1       1.356   9.156  17.997  0.00  0.00    +0.000 N 
ATOM     19  C   UNL     1       0.638   9.860  18.944  0.00  0.00    +0.000 C 
ATOM     20  O   UNL     1       1.047  10.058  20.087  0.00  0.00    +0.000 OA
ATOM     21  N   UNL     1      -0.579  10.318  18.501  0.00  0.00    +0.000 N 
ATOM     22  C   UNL     1      -1.448  11.125  19.368  0.00  0.00    +0.000 C 
ATOM     23  C   UNL     1      -2.696  11.288  18.558  0.00  0.00    +0.000 A 
ATOM     24  C   UNL     1      -3.841  12.013  18.821  0.00  0.00    +0.000 A 
ATOM     25  C   UNL     1      -4.849  11.956  17.862  0.00  0.00    +0.000 A 
ATOM     26  N   UNL     1      -4.774  11.236  16.711  0.00  0.00    +0.000 NA
ATOM     27  C   UNL     1      -3.639  10.535  16.492  0.00  0.00    +0.000 A 
ATOM     28  C   UNL     1      -2.593  10.547  17.380  0.00  0.00    +0.000 A 
ATOM     29  C   UNL     1      -1.281   9.852  17.306  0.00  0.00    +0.000 C 
ATOM     30  H   UNL     1       1.267   9.545  17.074  0.00  0.00    +0.000 HD
ENDBRANCH  17  18
ENDBRANCH  10  17
TORSDOF 5
ENDMDL
MODEL 6
REMARK VINA RESULT:      -7.6      1.859      2.704
REMARK  Name = 
REMARK  5 active torsions:
REMARK  status: ('A' for Active; 'I' for Inactive)
REMARK    1  A    between atoms: C_2  and  C_3
REMARK    2  A    between atoms: C_3  and  C_4
REMARK    3  A    between atoms: C_4  and  C_5
REMARK    4  A    between atoms: C_16  and  C_17
REMARK    5  A    between atoms: C_17  and  N_18
REMARK                            x       y       z     vdW  Elec       q    Type
REMARK                         _______ _______ _______ _____ _____    ______ ____
ROOT
ATOM      1  O   UNL     1       3.607   1.221  17.613  0.00  0.00    +0.000 OA
ATOM      2  C   UNL     1       3.048   2.241  18.013  0.00  0.00    +0.000 C 
ATOM      3  N   UNL     1       3.345   3.497  17.512  0.00  0.00    +0.000 N 
ATOM      4  C   UNL     1       2.796   4.770  17.981  0.00  0.00    +0.000 C 
ATOM      5  C   UNL     1       3.851   5.545  18.781  0.00  0.00    +0.000 C 
ATOM      6  C   UNL     1       5.146   5.701  17.984  0.00  0.00    +0.000 C 
ATOM      7  C   UNL     1       5.638   4.390  17.380  0.00  0.00    +0.000 C 
ATOM      8  C   UNL     1       4.513   3.650  16.644  0.00  0.00    +0.000 C 
ATOM      9  C   UNL     1       5.345   6.979  17.203  0.00  0.00    +0.000 C 
ATOM     10  C   UNL     1       6.155   6.752  18.458  0.00  0.00    +0.000 C 
ENDROOT
BRANCH   2  11
ATOM     11  C   UNL     1       1.972   2.142  19.083  0.00  0.00    +0.000 C 
BRANCH  11  12
ATOM     12  C   UNL     1       2.544   2.402  20.476  0.00  0.00    +0.000 C 
BRANCH  12  13
ATOM     13  C   UNL     1       1.627   3.269  21.324  0.00  0.00    +0.000 C 
ATOM     14  F   UNL     1       0.813   4.057  20.588  0.00  0.00    +0.000 F 
ATOM     15  F   UNL     1       0.822   2.482  22.079  0.00  0.00    +0.000 F 
ATOM     16  F   UNL     1       2.324   4.054  22.171  0.00  0.00    +0.000 F 
ENDBRANCH  12  13
ENDBRANCH  11  12
ENDBRANCH   2  11
BRANCH  10  17
ATOM     17  C   UNL     1       7.651   6.625  18.336  0.00  0.00    +0.000 C 
BRANCH  17  18
ATOM     18  N   UNL     1       8.305   7.857  18.724  0.00  0.00    +0.000 N 
ATOM     19  C   UNL     1       8.162   8.981  17.933  0.00  0.00    +0.000 C 
ATOM     20  O   UNL     1       7.514   8.988  16.887  0.00  0.00    +0.000 OA
ATOM     21  N   UNL     1       8.809  10.093  18.413  0.00  0.00    +0.000 N 
ATOM     22  C   UNL     1       8.720  11.383  17.716  0.00  0.00    +0.000 C 
ATOM     23  C   UNL     1       9.660  12.260  18.483  0.00  0.00    +0.000 A 
ATOM     24  C   UNL     1       9.940  13.604  18.341  0.00  0.00    +0.000 A 
ATOM     25  C   UNL     1      10.885  14.140  19.213  0.00  0.00    +0.000 A 
ATOM     26  N   UNL     1      11.539  13.427  20.169  0.00  0.00    +0.000 NA
ATOM     27  C   UNL     1      11.241  12.112  20.272  0.00  0.00    +0.000 A 
ATOM     28  C   UNL     1      10.313  11.510  19.461  0.00  0.00    +0.000 A 
ATOM     29  C   UNL     1       9.857  10.094  19.433  0.00  0.00    +0.000 C 
ATOM     30  H   UNL     1       8.286   8.069  19.707  0.00  0.00    +0.000 HD
ENDBRANCH  17  18
ENDBRANCH  10  17
TORSDOF 5
ENDMDL
MODEL 7
REMARK VINA RESULT:      -7.6      5.697      9.267
REMARK  Name = 
REMARK  5 active torsions:
REMARK  status: ('A' for Active; 'I' for Inactive)
REMARK    1  A    between atoms: C_2  and  C_3
REMARK    2  A    between atoms: C_3  and  C_4
REMARK    3  A    between atoms: C_4  and  C_5
REMARK    4  A    between atoms: C_16  and  C_17
REMARK    5  A    between atoms: C_17  and  N_18
REMARK                            x       y       z     vdW  Elec       q    Type
REMARK                         _______ _______ _______ _____ _____    ______ ____
ROOT
ATOM      1  O   UNL     1       7.690   9.518  17.051  0.00  0.00    +0.000 OA
ATOM      2  C   UNL     1       8.063   8.682  17.874  0.00  0.00    +0.000 C 
ATOM      3  N   UNL     1       7.716   7.345  17.786  0.00  0.00    +0.000 N 
ATOM      4  C   UNL     1       8.042   6.299  18.756  0.00  0.00    +0.000 C 
ATOM      5  C   UNL     1       6.794   5.908  19.559  0.00  0.00    +0.000 C 
ATOM      6  C   UNL     1       5.636   5.536  18.634  0.00  0.00    +0.000 C 
ATOM      7  C   UNL     1       5.392   6.566  17.536  0.00  0.00    +0.000 C 
ATOM      8  C   UNL     1       6.694   6.945  16.818  0.00  0.00    +0.000 C 
ATOM      9  C   UNL     1       5.428   4.074  18.314  0.00  0.00    +0.000 C 
ATOM     10  C   UNL     1       4.455   4.769  19.238  0.00  0.00    +0.000 C 
ENDROOT
BRANCH   2  11
ATOM     11  C   UNL     1       8.957   9.108  19.028  0.00  0.00    +0.000 C 
BRANCH  11  12
ATOM     12  C   UNL     1       9.300  10.595  18.949  0.00  0.00    +0.000 C 
BRANCH  12  13
ATOM     13  C   UNL     1       9.612  11.189  20.314  0.00  0.00    +0.000 C 
ATOM     14  F   UNL     1      10.928  11.428  20.499  0.00  0.00    +0.000 F 
ATOM     15  F   UNL     1       8.980  12.381  20.450  0.00  0.00    +0.000 F 
ATOM     16  F   UNL     1       9.180  10.394  21.314  0.00  0.00    +0.000 F 
ENDBRANCH  12  13
ENDBRANCH  11  12
ENDBRANCH   2  11
BRANCH  10  17
ATOM     17  C   UNL     1       3.021   4.911  18.800  0.00  0.00    +0.000 C 
BRANCH  17  18
ATOM     18  N   UNL     1       2.336   5.908  19.596  0.00  0.00    +0.000 N 
ATOM     19  C   UNL     1       2.158   7.179  19.087  0.00  0.00    +0.000 C 
ATOM     20  O   UNL     1       2.573   7.525  17.982  0.00  0.00    +0.000 OA
ATOM     21  N   UNL     1       1.477   8.030  19.923  0.00  0.00    +0.000 N 
ATOM     22  C   UNL     1       1.163   9.405  19.515  0.00  0.00    +0.000 C 
ATOM     23  C   UNL     1       0.555  10.005  20.745  0.00  0.00    +0.000 A 
ATOM     24  C   UNL     1      -0.003  11.251  20.947  0.00  0.00    +0.000 A 
ATOM     25  C   UNL     1      -0.482  11.521  22.226  0.00  0.00    +0.000 A 
ATOM     26  N   UNL     1      -0.424  10.648  23.267  0.00  0.00    +0.000 NA
ATOM     27  C   UNL     1       0.135   9.439  23.032  0.00  0.00    +0.000 A 
ATOM     28  C   UNL     1       0.618   9.089  21.796  0.00  0.00    +0.000 A 
ATOM     29  C   UNL     1       1.253   7.820  21.353  0.00  0.00    +0.000 C 
ATOM     30  H   UNL     1       1.536   5.579  20.111  0.00  0.00    +0.000 HD
ENDBRANCH  17  18
ENDBRANCH  10  17
TORSDOF 5
ENDMDL
MODEL 8
REMARK VINA RESULT:      -7.5      7.669     10.647
REMARK  Name = 
REMARK  5 active torsions:
REMARK  status: ('A' for Active; 'I' for Inactive)
REMARK    1  A    between atoms: C_2  and  C_3
REMARK    2  A    between atoms: C_3  and  C_4
REMARK    3  A    between atoms: C_4  and  C_5
REMARK    4  A    between atoms: C_16  and  C_17
REMARK    5  A    between atoms: C_17  and  N_18
REMARK                            x       y       z     vdW  Elec       q    Type
REMARK                         _______ _______ _______ _____ _____    ______ ____
ROOT
ATOM      1  O   UNL     1      -4.557  12.361  20.010  0.00  0.00    +0.000 OA
ATOM      2  C   UNL     1      -3.575  12.946  20.467  0.00  0.00    +0.000 C 
ATOM      3  N   UNL     1      -2.286  12.686  20.036  0.00  0.00    +0.000 N 
ATOM      4  C   UNL     1      -1.057  13.268  20.576  0.00  0.00    +0.000 C 
ATOM      5  C   UNL     1      -0.299  12.232  21.416  0.00  0.00    +0.000 C 
ATOM      6  C   UNL     1      -0.063  10.945  20.627  0.00  0.00    +0.000 C 
ATOM      7  C   UNL     1      -1.324  10.419  19.949  0.00  0.00    +0.000 C 
ATOM      8  C   UNL     1      -2.053  11.526  19.175  0.00  0.00    +0.000 C 
ATOM      9  C   UNL     1       1.261  10.784  19.917  0.00  0.00    +0.000 C 
ATOM     10  C   UNL     1       0.988   9.963  21.156  0.00  0.00    +0.000 C 
ENDROOT
BRANCH   2  11
ATOM     11  C   UNL     1      -3.764  14.016  21.531  0.00  0.00    +0.000 C 
BRANCH  11  12
ATOM     12  C   UNL     1      -4.424  13.444  22.786  0.00  0.00    +0.000 C 
BRANCH  12  13
ATOM     13  C   UNL     1      -3.411  12.850  23.751  0.00  0.00    +0.000 C 
ATOM     14  F   UNL     1      -3.916  12.636  24.986  0.00  0.00    +0.000 F 
ATOM     15  F   UNL     1      -2.994  11.644  23.292  0.00  0.00    +0.000 F 
ATOM     16  F   UNL     1      -2.317  13.629  23.870  0.00  0.00    +0.000 F 
ENDBRANCH  12  13
ENDBRANCH  11  12
ENDBRANCH   2  11
BRANCH  10  17
ATOM     17  C   UNL     1       0.909   8.465  21.024  0.00  0.00    +0.000 C 
BRANCH  17  18
ATOM     18  N   UNL     1       1.726   8.002  19.921  0.00  0.00    +0.000 N 
ATOM     19  C   UNL     1       2.065   6.666  19.840  0.00  0.00    +0.000 C 
ATOM     20  O   UNL     1       1.722   5.834  20.678  0.00  0.00    +0.000 OA
ATOM     21  N   UNL     1       2.822   6.343  18.741  0.00  0.00    +0.000 N 
ATOM     22  C   UNL     1       3.229   4.956  18.480  0.00  0.00    +0.000 C 
ATOM     23  C   UNL     1       4.132   5.074  17.291  0.00  0.00    +0.000 A 
ATOM     24  C   UNL     1       4.758   4.095  16.547  0.00  0.00    +0.000 A 
ATOM     25  C   UNL     1       5.555   4.529  15.490  0.00  0.00    +0.000 A 
ATOM     26  N   UNL     1       5.754   5.834  15.164  0.00  0.00    +0.000 NA
ATOM     27  C   UNL     1       5.128   6.764  15.920  0.00  0.00    +0.000 A 
ATOM     28  C   UNL     1       4.314   6.420  16.970  0.00  0.00    +0.000 A 
ATOM     29  C   UNL     1       3.548   7.293  17.899  0.00  0.00    +0.000 C 
ATOM     30  H   UNL     1       1.513   8.405  19.024  0.00  0.00    +0.000 HD
ENDBRANCH  17  18
ENDBRANCH  10  17
TORSDOF 5
ENDMDL
MODEL 9
REMARK VINA RESULT:      -7.5      5.889      7.447
REMARK  Name = 
REMARK  5 active torsions:
REMARK  status: ('A' for Active; 'I' for Inactive)
REMARK    1  A    between atoms: C_2  and  C_3
REMARK    2  A    between atoms: C_3  and  C_4
REMARK    3  A    between atoms: C_4  and  C_5
REMARK    4  A    between atoms: C_16  and  C_17
REMARK    5  A    between atoms: C_17  and  N_18
REMARK                            x       y       z     vdW  Elec       q    Type
REMARK                         _______ _______ _______ _____ _____    ______ ____
ROOT
ATOM      1  O   UNL     1       4.851   4.297  15.286  0.00  0.00    +0.000 OA
ATOM      2  C   UNL     1       5.319   4.295  16.424  0.00  0.00    +0.000 C 
ATOM      3  N   UNL     1       4.539   4.088  17.548  0.00  0.00    +0.000 N 
ATOM      4  C   UNL     1       4.990   4.149  18.939  0.00  0.00    +0.000 C 
ATOM      5  C   UNL     1       4.481   5.432  19.610  0.00  0.00    +0.000 C 
ATOM      6  C   UNL     1       2.967   5.572  19.458  0.00  0.00    +0.000 C 
ATOM      7  C   UNL     1       2.488   5.368  18.024  0.00  0.00    +0.000 C 
ATOM      8  C   UNL     1       3.083   4.095  17.407  0.00  0.00    +0.000 C 
ATOM      9  C   UNL     1       2.094   5.082  20.590  0.00  0.00    +0.000 C 
ATOM     10  C   UNL     1       2.245   6.570  20.370  0.00  0.00    +0.000 C 
ENDROOT
BRANCH   2  11
ATOM     11  C   UNL     1       6.811   4.504  16.625  0.00  0.00    +0.000 C 
BRANCH  11  12
ATOM     12  C   UNL     1       7.242   5.905  16.192  0.00  0.00    +0.000 C 
BRANCH  12  13
ATOM     13  C   UNL     1       7.160   6.911  17.329  0.00  0.00    +0.000 C 
ATOM     14  F   UNL     1       7.505   6.389  18.526  0.00  0.00    +0.000 F 
ATOM     15  F   UNL     1       8.015   7.937  17.095  0.00  0.00    +0.000 F 
ATOM     16  F   UNL     1       5.925   7.441  17.438  0.00  0.00    +0.000 F 
ENDBRANCH  12  13
ENDBRANCH  11  12
ENDBRANCH   2  11
BRANCH  10  17
ATOM     17  C   UNL     1       1.028   7.368  19.981  0.00  0.00    +0.000 C 
BRANCH  17  18
ATOM     18  N   UNL     1       1.384   8.742  19.695  0.00  0.00    +0.000 N 
ATOM     19  C   UNL     1       0.645   9.766  20.254  0.00  0.00    +0.000 C 
ATOM     20  O   UNL     1      -0.329   9.573  20.979  0.00  0.00    +0.000 OA
ATOM     21  N   UNL     1       1.091  11.024  19.928  0.00  0.00    +0.000 N 
ATOM     22  C   UNL     1       0.445  12.224  20.476  0.00  0.00    +0.000 C 
ATOM     23  C   UNL     1       1.139  13.348  19.771  0.00  0.00    +0.000 A 
ATOM     24  C   UNL     1       1.010  14.713  19.928  0.00  0.00    +0.000 A 
ATOM     25  C   UNL     1       1.798  15.513  19.104  0.00  0.00    +0.000 A 
ATOM     26  N   UNL     1       2.662  15.035  18.169  0.00  0.00    +0.000 NA
ATOM     27  C   UNL     1       2.755  13.692  18.041  0.00  0.00    +0.000 A 
ATOM     28  C   UNL     1       2.024  12.834  18.823  0.00  0.00    +0.000 A 
ATOM     29  C   UNL     1       2.000  11.347  18.829  0.00  0.00    +0.000 C 
ATOM     30  H   UNL     1       2.370   8.940  19.674  0.00  0.00    +0.000 HD
ENDBRANCH  17  18
ENDBRANCH  10  17
TORSDOF 5
ENDMDL
