MODEL 1
REMARK VINA RESULT:      -8.3      0.000      0.000
REMARK  Name = 
REMARK  5 active torsions:
REMARK  status: ('A' for Active; 'I' for Inactive)
REMARK    1  A    between atoms: C_2  and  C_18
REMARK    2  A    between atoms: N_3  and  C_4
REMARK    3  A    between atoms: N_12  and  C_13
REMARK    4  A    between atoms: C_13  and  C_14
REMARK    5  A    between atoms: C_14  and  O_15
REMARK                            x       y       z     vdW  Elec       q    Type
REMARK                         _______ _______ _______ _____ _____    ______ ____
ROOT
ATOM      1  C   UNL     1       2.590   6.683  18.156  0.00  0.00    +0.000 C 
ATOM      2  C   UNL     1       4.015   7.009  17.737  0.00  0.00    +0.000 C 
ATOM      3  C   UNL     1       4.594   5.898  16.909  0.00  0.00    +0.000 A 
ATOM      4  C   UNL     1       5.542   6.202  15.918  0.00  0.00    +0.000 A 
ATOM      5  C   UNL     1       6.177   5.186  15.212  0.00  0.00    +0.000 A 
ATOM      6  C   UNL     1       5.885   3.861  15.506  0.00  0.00    +0.000 A 
ATOM      7  C   UNL     1       4.952   3.555  16.500  0.00  0.00    +0.000 A 
ATOM      8  C   UNL     1       4.279   4.564  17.205  0.00  0.00    +0.000 A 
ATOM      9  N   UNL     1       3.319   4.278  18.228  0.00  0.00    +0.000 N 
ATOM     10  C   UNL     1       2.537   5.286  18.808  0.00  0.00    +0.000 C 
ATOM     11  O   UNL     1       1.770   5.071  19.754  0.00  0.00    +0.000 OA
ENDROOT
BRANCH   1  14
ATOM     12  O   UNL     1       1.737   9.269  17.462  0.00  0.00    +0.000 OA
ATOM     13  C   UNL     1       1.615   8.920  18.633  0.00  0.00    +0.000 C 
ATOM     14  N   UNL     1       2.052   7.695  19.075  0.00  0.00    +0.000 N 
ATOM     15  H   UNL     1       1.917   7.421  20.042  0.00  0.00    +0.000 HD
BRANCH  13  16
ATOM     16  C   UNL     1       1.013   9.793  19.622  0.00  0.00    +0.000 A 
ATOM     17  C   UNL     1       0.302   9.547  20.804  0.00  0.00    +0.000 A 
ATOM     18  C   UNL     1      -0.009  10.808  21.310  0.00  0.00    +0.000 A 
ATOM     19  C   UNL     1      -0.677  11.263  22.446  0.00  0.00    +0.000 A 
ATOM     20  C   UNL     1      -0.656  12.651  22.416  0.00  0.00    +0.000 A 
ATOM     21 CL   UNL     1      -1.321  13.714  23.591  0.00  0.00    +0.000 Cl
ATOM     22  S   UNL     1       0.139  13.311  21.038  0.00  0.00    +0.000 S 
ATOM     23  C   UNL     1       0.461  11.768  20.506  0.00  0.00    +0.000 A 
ATOM     24  N   UNL     1       1.080  11.182  19.460  0.00  0.00    +0.000 N 
ATOM     25  H   UNL     1       1.538  11.641  18.683  0.00  0.00    +0.000 HD
ENDBRANCH  13  16
ENDBRANCH   1  14
BRANCH   9  26
ATOM     26  C   UNL     1       3.252   2.926  18.811  0.00  0.00    +0.000 C 
BRANCH  26  27
ATOM     27  C   UNL     1       4.134   2.705  20.051  0.00  0.00    +0.000 C 
BRANCH  27  28
ATOM     28  O   UNL     1       5.130   1.710  19.858  0.00  0.00    +0.000 OA
ATOM     29  H   UNL     1       5.001   1.038  20.552  0.00  0.00    +0.000 HD
ENDBRANCH  27  28
ENDBRANCH  26  27
ENDBRANCH   9  26
TORSDOF 5
ENDMDL
MODEL 2
REMARK VINA RESULT:      -8.3      1.070      1.240
REMARK  Name = 
REMARK  5 active torsions:
REMARK  status: ('A' for Active; 'I' for Inactive)
REMARK    1  A    between atoms: C_2  and  C_18
REMARK    2  A    between atoms: N_3  and  C_4
REMARK    3  A    between atoms: N_12  and  C_13
REMARK    4  A    between atoms: C_13  and  C_14
REMARK    5  A    between atoms: C_14  and  O_15
REMARK                            x       y       z     vdW  Elec       q    Type
REMARK                         _______ _______ _______ _____ _____    ______ ____
ROOT
ATOM      1  C   UNL     1       2.765   6.581  18.186  0.00  0.00    +0.000 C 
ATOM      2  C   UNL     1       4.026   7.037  17.468  0.00  0.00    +0.000 C 
ATOM      3  C   UNL     1       4.646   5.901  16.707  0.00  0.00    +0.000 A 
ATOM      4  C   UNL     1       5.354   6.172  15.524  0.00  0.00    +0.000 A 
ATOM      5  C   UNL     1       6.031   5.157  14.857  0.00  0.00    +0.000 A 
ATOM      6  C   UNL     1       6.023   3.871  15.378  0.00  0.00    +0.000 A 
ATOM      7  C   UNL     1       5.330   3.600  16.561  0.00  0.00    +0.000 A 
ATOM      8  C   UNL     1       4.616   4.602  17.235  0.00  0.00    +0.000 A 
ATOM      9  N   UNL     1       3.898   4.352  18.447  0.00  0.00    +0.000 N 
ATOM     10  C   UNL     1       3.059   5.317  19.021  0.00  0.00    +0.000 C 
ATOM     11  O   UNL     1       2.504   5.151  20.113  0.00  0.00    +0.000 OA
ENDROOT
BRANCH   1  14
ATOM     12  O   UNL     1       1.804   9.078  17.327  0.00  0.00    +0.000 OA
ATOM     13  C   UNL     1       1.726   8.815  18.524  0.00  0.00    +0.000 C 
ATOM     14  N   UNL     1       2.217   7.642  19.043  0.00  0.00    +0.000 N 
ATOM     15  H   UNL     1       2.118   7.436  20.031  0.00  0.00    +0.000 HD
BRANCH  13  16
ATOM     16  C   UNL     1       1.121   9.739  19.462  0.00  0.00    +0.000 A 
ATOM     17  C   UNL     1       0.946  11.128  19.454  0.00  0.00    +0.000 A 
ATOM     18  C   UNL     1       0.288  11.420  20.648  0.00  0.00    +0.000 A 
ATOM     19  C   UNL     1      -0.187  12.590  21.236  0.00  0.00    +0.000 A 
ATOM     20  C   UNL     1      -0.780  12.242  22.442  0.00  0.00    +0.000 A 
ATOM     21 CL   UNL     1      -1.543  13.305  23.557  0.00  0.00    +0.000 Cl
ATOM     22  S   UNL     1      -0.715  10.558  22.795  0.00  0.00    +0.000 S 
ATOM     23  C   UNL     1       0.074  10.304  21.352  0.00  0.00    +0.000 A 
ATOM     24  N   UNL     1       0.581   9.261  20.663  0.00  0.00    +0.000 N 
ATOM     25  H   UNL     1       0.573   8.285  20.933  0.00  0.00    +0.000 HD
ENDBRANCH  13  16
ENDBRANCH   1  14
BRANCH   9  26
ATOM     26  C   UNL     1       4.160   3.119  19.211  0.00  0.00    +0.000 C 
BRANCH  26  27
ATOM     27  C   UNL     1       3.230   1.938  18.886  0.00  0.00    +0.000 C 
BRANCH  27  28
ATOM     28  O   UNL     1       3.916   0.821  18.337  0.00  0.00    +0.000 OA
ATOM     29  H   UNL     1       4.122   1.041  17.410  0.00  0.00    +0.000 HD
ENDBRANCH  27  28
ENDBRANCH  26  27
ENDBRANCH   9  26
TORSDOF 5
ENDMDL
MODEL 3
REMARK VINA RESULT:      -8.2      1.025      1.041
REMARK  Name = 
REMARK  5 active torsions:
REMARK  status: ('A' for Active; 'I' for Inactive)
REMARK    1  A    between atoms: C_2  and  C_18
REMARK    2  A    between atoms: N_3  and  C_4
REMARK    3  A    between atoms: N_12  and  C_13
REMARK    4  A    between atoms: C_13  and  C_14
REMARK    5  A    between atoms: C_14  and  O_15
REMARK                            x       y       z     vdW  Elec       q    Type
REMARK                         _______ _______ _______ _____ _____    ______ ____
ROOT
ATOM      1  C   UNL     1       2.897   6.561  17.808  0.00  0.00    +0.000 C 
ATOM      2  C   UNL     1       4.407   6.714  17.902  0.00  0.00    +0.000 C 
ATOM      3  C   UNL     1       5.099   5.753  16.979  0.00  0.00    +0.000 A 
ATOM      4  C   UNL     1       6.332   6.113  16.412  0.00  0.00    +0.000 A 
ATOM      5  C   UNL     1       7.049   5.202  15.642  0.00  0.00    +0.000 A 
ATOM      6  C   UNL     1       6.548   3.922  15.452  0.00  0.00    +0.000 A 
ATOM      7  C   UNL     1       5.327   3.557  16.025  0.00  0.00    +0.000 A 
ATOM      8  C   UNL     1       4.574   4.468  16.782  0.00  0.00    +0.000 A 
ATOM      9  N   UNL     1       3.320   4.120  17.379  0.00  0.00    +0.000 N 
ATOM     10  C   UNL     1       2.503   5.081  17.991  0.00  0.00    +0.000 C 
ATOM     11  O   UNL     1       1.463   4.784  18.590  0.00  0.00    +0.000 OA
ENDROOT
BRANCH   1  14
ATOM     12  O   UNL     1       2.069   9.221  17.444  0.00  0.00    +0.000 OA
ATOM     13  C   UNL     1       1.797   8.677  18.510  0.00  0.00    +0.000 C 
ATOM     14  N   UNL     1       2.206   7.398  18.798  0.00  0.00    +0.000 N 
ATOM     15  H   UNL     1       1.946   6.962  19.676  0.00  0.00    +0.000 HD
BRANCH  13  16
ATOM     16  C   UNL     1       1.037   9.364  19.536  0.00  0.00    +0.000 A 
ATOM     17  C   UNL     1       0.909   9.173  20.917  0.00  0.00    +0.000 A 
ATOM     18  C   UNL     1       0.029  10.166  21.343  0.00  0.00    +0.000 A 
ATOM     19  C   UNL     1      -0.497  10.535  22.580  0.00  0.00    +0.000 A 
ATOM     20  C   UNL     1      -1.321  11.633  22.373  0.00  0.00    +0.000 A 
ATOM     21 CL   UNL     1      -2.202  12.497  23.570  0.00  0.00    +0.000 Cl
ATOM     22  S   UNL     1      -1.423  12.134  20.729  0.00  0.00    +0.000 S 
ATOM     23  C   UNL     1      -0.371  10.916  20.310  0.00  0.00    +0.000 A 
ATOM     24  N   UNL     1       0.217  10.446  19.190  0.00  0.00    +0.000 N 
ATOM     25  H   UNL     1       0.115  10.803  18.248  0.00  0.00    +0.000 HD
ENDBRANCH  13  16
ENDBRANCH   1  14
BRANCH   9  26
ATOM     26  C   UNL     1       2.940   2.702  17.508  0.00  0.00    +0.000 C 
BRANCH  26  27
ATOM     27  C   UNL     1       3.553   1.968  18.712  0.00  0.00    +0.000 C 
BRANCH  27  28
ATOM     28  O   UNL     1       4.055   0.679  18.384  0.00  0.00    +0.000 OA
ATOM     29  H   UNL     1       4.360   0.719  17.459  0.00  0.00    +0.000 HD
ENDBRANCH  27  28
ENDBRANCH  26  27
ENDBRANCH   9  26
TORSDOF 5
ENDMDL
MODEL 4
REMARK VINA RESULT:      -7.5      1.023      1.093
REMARK  Name = 
REMARK  5 active torsions:
REMARK  status: ('A' for Active; 'I' for Inactive)
REMARK    1  A    between atoms: C_2  and  C_18
REMARK    2  A    between atoms: N_3  and  C_4
REMARK    3  A    between atoms: N_12  and  C_13
REMARK    4  A    between atoms: C_13  and  C_14
REMARK    5  A    between atoms: C_14  and  O_15
REMARK                            x       y       z     vdW  Elec       q    Type
REMARK                         _______ _______ _______ _____ _____    ______ ____
ROOT
ATOM      1  C   UNL     1       2.427   6.848  18.232  0.00  0.00    +0.000 C 
ATOM      2  C   UNL     1       3.786   7.221  17.661  0.00  0.00    +0.000 C 
ATOM      3  C   UNL     1       4.407   6.050  16.957  0.00  0.00    +0.000 A 
ATOM      4  C   UNL     1       5.256   6.278  15.861  0.00  0.00    +0.000 A 
ATOM      5  C   UNL     1       5.932   5.222  15.258  0.00  0.00    +0.000 A 
ATOM      6  C   UNL     1       5.781   3.937  15.759  0.00  0.00    +0.000 A 
ATOM      7  C   UNL     1       4.947   3.708  16.857  0.00  0.00    +0.000 A 
ATOM      8  C   UNL     1       4.234   4.753  17.462  0.00  0.00    +0.000 A 
ATOM      9  N   UNL     1       3.373   4.546  18.587  0.00  0.00    +0.000 N 
ATOM     10  C   UNL     1       2.543   5.563  19.078  0.00  0.00    +0.000 C 
ATOM     11  O   UNL     1       1.862   5.429  20.102  0.00  0.00    +0.000 OA
ENDROOT
BRANCH   1  14
ATOM     12  O   UNL     1       1.911   9.466  17.352  0.00  0.00    +0.000 OA
ATOM     13  C   UNL     1       1.600   9.178  18.505  0.00  0.00    +0.000 C 
ATOM     14  N   UNL     1       1.862   7.939  19.038  0.00  0.00    +0.000 N 
ATOM     15  H   UNL     1       1.572   7.717  19.984  0.00  0.00    +0.000 HD
BRANCH  13  16
ATOM     16  C   UNL     1       0.950  10.137  19.374  0.00  0.00    +0.000 A 
ATOM     17  C   UNL     1       0.781  10.205  20.763  0.00  0.00    +0.000 A 
ATOM     18  C   UNL     1       0.065  11.380  20.986  0.00  0.00    +0.000 A 
ATOM     19  C   UNL     1      -0.407  12.030  22.125  0.00  0.00    +0.000 A 
ATOM     20  C   UNL     1      -1.044  13.191  21.710  0.00  0.00    +0.000 A 
ATOM     21 CL   UNL     1      -1.788  14.371  22.715  0.00  0.00    +0.000 Cl
ATOM     22  S   UNL     1      -1.051  13.416  20.003  0.00  0.00    +0.000 S 
ATOM     23  C   UNL     1      -0.201  11.996  19.830  0.00  0.00    +0.000 A 
ATOM     24  N   UNL     1       0.315  11.258  18.825  0.00  0.00    +0.000 N 
ATOM     25  H   UNL     1       0.279  11.462  17.834  0.00  0.00    +0.000 HD
ENDBRANCH  13  16
ENDBRANCH   1  14
BRANCH   9  26
ATOM     26  C   UNL     1       3.467   3.294  19.359  0.00  0.00    +0.000 C 
BRANCH  26  27
ATOM     27  C   UNL     1       2.331   2.287  19.112  0.00  0.00    +0.000 C 
BRANCH  27  28
ATOM     28  O   UNL     1       1.223   2.470  19.982  0.00  0.00    +0.000 OA
ATOM     29  H   UNL     1       1.502   2.173  20.868  0.00  0.00    +0.000 HD
ENDBRANCH  27  28
ENDBRANCH  26  27
ENDBRANCH   9  26
TORSDOF 5
ENDMDL
MODEL 5
REMARK VINA RESULT:      -7.4      2.544      3.052
REMARK  Name = 
REMARK  5 active torsions:
REMARK  status: ('A' for Active; 'I' for Inactive)
REMARK    1  A    between atoms: C_2  and  C_18
REMARK    2  A    between atoms: N_3  and  C_4
REMARK    3  A    between atoms: N_12  and  C_13
REMARK    4  A    between atoms: C_13  and  C_14
REMARK    5  A    between atoms: C_14  and  O_15
REMARK                            x       y       z     vdW  Elec       q    Type
REMARK                         _______ _______ _______ _____ _____    ______ ____
ROOT
ATOM      1  C   UNL     1       2.692   7.780  17.998  0.00  0.00    +0.000 C 
ATOM      2  C   UNL     1       4.027   7.296  17.454  0.00  0.00    +0.000 C 
ATOM      3  C   UNL     1       4.051   5.798  17.357  0.00  0.00    +0.000 A 
ATOM      4  C   UNL     1       4.815   5.187  16.350  0.00  0.00    +0.000 A 
ATOM      5  C   UNL     1       4.945   3.802  16.303  0.00  0.00    +0.000 A 
ATOM      6  C   UNL     1       4.331   3.024  17.274  0.00  0.00    +0.000 A 
ATOM      7  C   UNL     1       3.580   3.629  18.285  0.00  0.00    +0.000 A 
ATOM      8  C   UNL     1       3.412   5.021  18.335  0.00  0.00    +0.000 A 
ATOM      9  N   UNL     1       2.648   5.667  19.359  0.00  0.00    +0.000 N 
ATOM     10  C   UNL     1       2.352   7.037  19.306  0.00  0.00    +0.000 C 
ATOM     11  O   UNL     1       1.773   7.627  20.225  0.00  0.00    +0.000 OA
ENDROOT
BRANCH   1  14
ATOM     12  O   UNL     1       0.496   9.511  17.712  0.00  0.00    +0.000 OA
ATOM     13  C   UNL     1       1.556   9.990  18.105  0.00  0.00    +0.000 C 
ATOM     14  N   UNL     1       2.696   9.233  18.225  0.00  0.00    +0.000 N 
ATOM     15  H   UNL     1       3.552   9.647  18.576  0.00  0.00    +0.000 HD
BRANCH  13  16
ATOM     16  C   UNL     1       1.667  11.393  18.452  0.00  0.00    +0.000 A 
ATOM     17  C   UNL     1       1.037  12.190  19.416  0.00  0.00    +0.000 A 
ATOM     18  C   UNL     1       1.579  13.463  19.247  0.00  0.00    +0.000 A 
ATOM     19  C   UNL     1       1.398  14.689  19.884  0.00  0.00    +0.000 A 
ATOM     20  C   UNL     1       2.244  15.606  19.275  0.00  0.00    +0.000 A 
ATOM     21 CL   UNL     1       2.432  17.264  19.688  0.00  0.00    +0.000 Cl
ATOM     22  S   UNL     1       3.175  14.950  17.983  0.00  0.00    +0.000 S 
ATOM     23  C   UNL     1       2.471  13.467  18.252  0.00  0.00    +0.000 A 
ATOM     24  N   UNL     1       2.541  12.222  17.737  0.00  0.00    +0.000 N 
ATOM     25  H   UNL     1       3.127  11.905  16.974  0.00  0.00    +0.000 HD
ENDBRANCH  13  16
ENDBRANCH   1  14
BRANCH   9  26
ATOM     26  C   UNL     1       2.296   4.928  20.584  0.00  0.00    +0.000 C 
BRANCH  26  27
ATOM     27  C   UNL     1       0.956   4.175  20.531  0.00  0.00    +0.000 C 
BRANCH  27  28
ATOM     28  O   UNL     1       0.970   2.958  21.264  0.00  0.00    +0.000 OA
ATOM     29  H   UNL     1       1.657   2.393  20.866  0.00  0.00    +0.000 HD
ENDBRANCH  27  28
ENDBRANCH  26  27
ENDBRANCH   9  26
TORSDOF 5
ENDMDL
MODEL 6
REMARK VINA RESULT:      -7.3      2.152      3.381
REMARK  Name = 
REMARK  5 active torsions:
REMARK  status: ('A' for Active; 'I' for Inactive)
REMARK    1  A    between atoms: C_2  and  C_18
REMARK    2  A    between atoms: N_3  and  C_4
REMARK    3  A    between atoms: N_12  and  C_13
REMARK    4  A    between atoms: C_13  and  C_14
REMARK    5  A    between atoms: C_14  and  O_15
REMARK                            x       y       z     vdW  Elec       q    Type
REMARK                         _______ _______ _______ _____ _____    ______ ____
ROOT
ATOM      1  C   UNL     1       2.792   6.606  18.813  0.00  0.00    +0.000 C 
ATOM      2  C   UNL     1       1.737   5.525  18.638  0.00  0.00    +0.000 C 
ATOM      3  C   UNL     1       2.374   4.169  18.545  0.00  0.00    +0.000 A 
ATOM      4  C   UNL     1       1.676   3.047  19.023  0.00  0.00    +0.000 A 
ATOM      5  C   UNL     1       2.192   1.767  18.851  0.00  0.00    +0.000 A 
ATOM      6  C   UNL     1       3.396   1.598  18.183  0.00  0.00    +0.000 A 
ATOM      7  C   UNL     1       4.087   2.710  17.695  0.00  0.00    +0.000 A 
ATOM      8  C   UNL     1       3.600   4.012  17.882  0.00  0.00    +0.000 A 
ATOM      9  N   UNL     1       4.288   5.169  17.393  0.00  0.00    +0.000 N 
ATOM     10  C   UNL     1       3.877   6.467  17.726  0.00  0.00    +0.000 C 
ATOM     11  O   UNL     1       4.403   7.475  17.240  0.00  0.00    +0.000 OA
ENDROOT
BRANCH   1  14
ATOM     12  O   UNL     1       1.341   7.843  20.878  0.00  0.00    +0.000 OA
ATOM     13  C   UNL     1       1.546   8.490  19.854  0.00  0.00    +0.000 C 
ATOM     14  N   UNL     1       2.200   7.950  18.773  0.00  0.00    +0.000 N 
ATOM     15  H   UNL     1       2.379   8.513  17.950  0.00  0.00    +0.000 HD
BRANCH  13  16
ATOM     16  C   UNL     1       1.095   9.861  19.725  0.00  0.00    +0.000 A 
ATOM     17  C   UNL     1       0.687  10.631  18.629  0.00  0.00    +0.000 A 
ATOM     18  C   UNL     1       0.371  11.881  19.159  0.00  0.00    +0.000 A 
ATOM     19  C   UNL     1      -0.104  13.075  18.620  0.00  0.00    +0.000 A 
ATOM     20  C   UNL     1      -0.243  13.980  19.663  0.00  0.00    +0.000 A 
ATOM     21 CL   UNL     1      -0.814  15.597  19.552  0.00  0.00    +0.000 Cl
ATOM     22  S   UNL     1       0.215  13.353  21.200  0.00  0.00    +0.000 S 
ATOM     23  C   UNL     1       0.573  11.897  20.480  0.00  0.00    +0.000 A 
ATOM     24  N   UNL     1       1.026  10.683  20.857  0.00  0.00    +0.000 N 
ATOM     25  H   UNL     1       1.269  10.381  21.793  0.00  0.00    +0.000 HD
ENDBRANCH  13  16
ENDBRANCH   1  14
BRANCH   9  26
ATOM     26  C   UNL     1       5.352   5.015  16.386  0.00  0.00    +0.000 C 
BRANCH  26  27
ATOM     27  C   UNL     1       6.784   5.194  16.915  0.00  0.00    +0.000 C 
BRANCH  27  28
ATOM     28  O   UNL     1       7.392   6.404  16.483  0.00  0.00    +0.000 OA
ATOM     29  H   UNL     1       8.068   6.164  15.822  0.00  0.00    +0.000 HD
ENDBRANCH  27  28
ENDBRANCH  26  27
ENDBRANCH   9  26
TORSDOF 5
ENDMDL
MODEL 7
REMARK VINA RESULT:      -7.3      2.425      3.947
REMARK  Name = 
REMARK  5 active torsions:
REMARK  status: ('A' for Active; 'I' for Inactive)
REMARK    1  A    between atoms: C_2  and  C_18
REMARK    2  A    between atoms: N_3  and  C_4
REMARK    3  A    between atoms: N_12  and  C_13
REMARK    4  A    between atoms: C_13  and  C_14
REMARK    5  A    between atoms: C_14  and  O_15
REMARK                            x       y       z     vdW  Elec       q    Type
REMARK                         _______ _______ _______ _____ _____    ______ ____
ROOT
ATOM      1  C   UNL     1       1.870   7.373  20.570  0.00  0.00    +0.000 C 
ATOM      2  C   UNL     1       1.258   6.015  20.879  0.00  0.00    +0.000 C 
ATOM      3  C   UNL     1       2.242   4.914  20.609  0.00  0.00    +0.000 A 
ATOM      4  C   UNL     1       2.188   3.740  21.378  0.00  0.00    +0.000 A 
ATOM      5  C   UNL     1       3.012   2.660  21.080  0.00  0.00    +0.000 A 
ATOM      6  C   UNL     1       3.879   2.738  19.999  0.00  0.00    +0.000 A 
ATOM      7  C   UNL     1       3.927   3.900  19.223  0.00  0.00    +0.000 A 
ATOM      8  C   UNL     1       3.125   5.011  19.523  0.00  0.00    +0.000 A 
ATOM      9  N   UNL     1       3.155   6.213  18.746  0.00  0.00    +0.000 N 
ATOM     10  C   UNL     1       2.474   7.370  19.150  0.00  0.00    +0.000 C 
ATOM     11  O   UNL     1       2.414   8.386  18.447  0.00  0.00    +0.000 OA
ENDROOT
BRANCH   1  14
ATOM     12  O   UNL     1       1.757   9.278  22.632  0.00  0.00    +0.000 OA
ATOM     13  C   UNL     1       0.937   9.369  21.723  0.00  0.00    +0.000 C 
ATOM     14  N   UNL     1       0.882   8.453  20.701  0.00  0.00    +0.000 N 
ATOM     15  H   UNL     1       0.212   8.565  19.948  0.00  0.00    +0.000 HD
BRANCH  13  16
ATOM     16  C   UNL     1      -0.033  10.445  21.686  0.00  0.00    +0.000 A 
ATOM     17  C   UNL     1      -0.403  11.362  20.694  0.00  0.00    +0.000 A 
ATOM     18  C   UNL     1      -1.400  12.144  21.275  0.00  0.00    +0.000 A 
ATOM     19  C   UNL     1      -2.187  13.205  20.830  0.00  0.00    +0.000 A 
ATOM     20  C   UNL     1      -3.030  13.567  21.872  0.00  0.00    +0.000 A 
ATOM     21 CL   UNL     1      -4.219  14.808  21.848  0.00  0.00    +0.000 Cl
ATOM     22  S   UNL     1      -2.815  12.634  23.304  0.00  0.00    +0.000 S 
ATOM     23  C   UNL     1      -1.631  11.755  22.533  0.00  0.00    +0.000 A 
ATOM     24  N   UNL     1      -0.805  10.728  22.820  0.00  0.00    +0.000 N 
ATOM     25  H   UNL     1      -0.742  10.217  23.692  0.00  0.00    +0.000 HD
ENDBRANCH  13  16
ENDBRANCH   1  14
BRANCH   9  26
ATOM     26  C   UNL     1       3.774   6.204  17.409  0.00  0.00    +0.000 C 
BRANCH  26  27
ATOM     27  C   UNL     1       5.222   6.717  17.355  0.00  0.00    +0.000 C 
BRANCH  27  28
ATOM     28  O   UNL     1       5.739   6.793  16.034  0.00  0.00    +0.000 OA
ATOM     29  H   UNL     1       5.054   6.437  15.438  0.00  0.00    +0.000 HD
ENDBRANCH  27  28
ENDBRANCH  26  27
ENDBRANCH   9  26
TORSDOF 5
ENDMDL
MODEL 8
REMARK VINA RESULT:      -7.3      2.362      3.813
REMARK  Name = 
REMARK  5 active torsions:
REMARK  status: ('A' for Active; 'I' for Inactive)
REMARK    1  A    between atoms: C_2  and  C_18
REMARK    2  A    between atoms: N_3  and  C_4
REMARK    3  A    between atoms: N_12  and  C_13
REMARK    4  A    between atoms: C_13  and  C_14
REMARK    5  A    between atoms: C_14  and  O_15
REMARK                            x       y       z     vdW  Elec       q    Type
REMARK                         _______ _______ _______ _____ _____    ______ ____
ROOT
ATOM      1  C   UNL     1       1.852   7.301  20.686  0.00  0.00    +0.000 C 
ATOM      2  C   UNL     1       1.322   5.892  20.901  0.00  0.00    +0.000 C 
ATOM      3  C   UNL     1       2.348   4.871  20.503  0.00  0.00    +0.000 A 
ATOM      4  C   UNL     1       2.384   3.636  21.172  0.00  0.00    +0.000 A 
ATOM      5  C   UNL     1       3.248   2.630  20.754  0.00  0.00    +0.000 A 
ATOM      6  C   UNL     1       4.066   2.843  19.653  0.00  0.00    +0.000 A 
ATOM      7  C   UNL     1       4.024   4.066  18.977  0.00  0.00    +0.000 A 
ATOM      8  C   UNL     1       3.181   5.104  19.399  0.00  0.00    +0.000 A 
ATOM      9  N   UNL     1       3.119   6.366  18.726  0.00  0.00    +0.000 N 
ATOM     10  C   UNL     1       2.398   7.448  19.251  0.00  0.00    +0.000 C 
ATOM     11  O   UNL     1       2.259   8.513  18.638  0.00  0.00    +0.000 OA
ENDROOT
BRANCH   1  14
ATOM     12  O   UNL     1       1.889   9.230  22.729  0.00  0.00    +0.000 OA
ATOM     13  C   UNL     1       0.947   9.248  21.941  0.00  0.00    +0.000 C 
ATOM     14  N   UNL     1       0.817   8.313  20.943  0.00  0.00    +0.000 N 
ATOM     15  H   UNL     1       0.044   8.364  20.289  0.00  0.00    +0.000 HD
BRANCH  13  16
ATOM     16  C   UNL     1      -0.093  10.254  22.029  0.00  0.00    +0.000 A 
ATOM     17  C   UNL     1      -0.951  10.650  23.063  0.00  0.00    +0.000 A 
ATOM     18  C   UNL     1      -1.724  11.675  22.521  0.00  0.00    +0.000 A 
ATOM     19  C   UNL     1      -2.737  12.496  23.016  0.00  0.00    +0.000 A 
ATOM     20  C   UNL     1      -3.115  13.356  21.995  0.00  0.00    +0.000 A 
ATOM     21 CL   UNL     1      -4.312  14.587  22.078  0.00  0.00    +0.000 Cl
ATOM     22  S   UNL     1      -2.255  13.118  20.522  0.00  0.00    +0.000 S 
ATOM     23  C   UNL     1      -1.384  11.900  21.248  0.00  0.00    +0.000 A 
ATOM     24  N   UNL     1      -0.399  11.041  20.912  0.00  0.00    +0.000 N 
ATOM     25  H   UNL     1       0.071  10.966  20.018  0.00  0.00    +0.000 HD
ENDBRANCH  13  16
ENDBRANCH   1  14
BRANCH   9  26
ATOM     26  C   UNL     1       3.683   6.500  17.371  0.00  0.00    +0.000 C 
BRANCH  26  27
ATOM     27  C   UNL     1       5.148   6.963  17.316  0.00  0.00    +0.000 C 
BRANCH  27  28
ATOM     28  O   UNL     1       5.777   6.682  16.073  0.00  0.00    +0.000 OA
ATOM     29  H   UNL     1       6.633   6.260  16.275  0.00  0.00    +0.000 HD
ENDBRANCH  27  28
ENDBRANCH  26  27
ENDBRANCH   9  26
TORSDOF 5
ENDMDL
MODEL 9
REMARK VINA RESULT:      -7.3      2.315      3.359
REMARK  Name = 
REMARK  5 active torsions:
REMARK  status: ('A' for Active; 'I' for Inactive)
REMARK    1  A    between atoms: C_2  and  C_18
REMARK    2  A    between atoms: N_3  and  C_4
REMARK    3  A    between atoms: N_12  and  C_13
REMARK    4  A    between atoms: C_13  and  C_14
REMARK    5  A    between atoms: C_14  and  O_15
REMARK                            x       y       z     vdW  Elec       q    Type
REMARK                         _______ _______ _______ _____ _____    ______ ____
ROOT
ATOM      1  C   UNL     1       2.764   6.673  18.642  0.00  0.00    +0.000 C 
ATOM      2  C   UNL     1       1.751   5.609  18.250  0.00  0.00    +0.000 C 
ATOM      3  C   UNL     1       2.384   4.248  18.242  0.00  0.00    +0.000 A 
ATOM      4  C   UNL     1       1.602   3.125  18.557  0.00  0.00    +0.000 A 
ATOM      5  C   UNL     1       2.131   1.843  18.451  0.00  0.00    +0.000 A 
ATOM      6  C   UNL     1       3.436   1.675  18.009  0.00  0.00    +0.000 A 
ATOM      7  C   UNL     1       4.213   2.789  17.683  0.00  0.00    +0.000 A 
ATOM      8  C   UNL     1       3.709   4.093  17.810  0.00  0.00    +0.000 A 
ATOM      9  N   UNL     1       4.484   5.252  17.484  0.00  0.00    +0.000 N 
ATOM     10  C   UNL     1       4.029   6.547  17.768  0.00  0.00    +0.000 C 
ATOM     11  O   UNL     1       4.642   7.560  17.411  0.00  0.00    +0.000 OA
ENDROOT
BRANCH   1  14
ATOM     12  O   UNL     1       1.282   8.026  20.610  0.00  0.00    +0.000 OA
ATOM     13  C   UNL     1       1.527   8.624  19.566  0.00  0.00    +0.000 C 
ATOM     14  N   UNL     1       2.199   8.026  18.528  0.00  0.00    +0.000 N 
ATOM     15  H   UNL     1       2.412   8.549  17.685  0.00  0.00    +0.000 HD
BRANCH  13  16
ATOM     16  C   UNL     1       1.106   9.996  19.365  0.00  0.00    +0.000 A 
ATOM     17  C   UNL     1      -0.117  10.654  19.543  0.00  0.00    +0.000 A 
ATOM     18  C   UNL     1       0.125  11.977  19.177  0.00  0.00    +0.000 A 
ATOM     19  C   UNL     1      -0.652  13.134  19.140  0.00  0.00    +0.000 A 
ATOM     20  C   UNL     1       0.159  14.169  18.697  0.00  0.00    +0.000 A 
ATOM     21 CL   UNL     1      -0.295  15.813  18.488  0.00  0.00    +0.000 Cl
ATOM     22  S   UNL     1       1.775  13.691  18.343  0.00  0.00    +0.000 S 
ATOM     23  C   UNL     1       1.395  12.135  18.793  0.00  0.00    +0.000 A 
ATOM     24  N   UNL     1       2.020  10.943  18.884  0.00  0.00    +0.000 N 
ATOM     25  H   UNL     1       2.987  10.738  18.664  0.00  0.00    +0.000 HD
ENDBRANCH  13  16
ENDBRANCH   1  14
BRANCH   9  26
ATOM     26  C   UNL     1       5.713   5.108  16.684  0.00  0.00    +0.000 C 
BRANCH  26  27
ATOM     27  C   UNL     1       7.025   5.193  17.481  0.00  0.00    +0.000 C 
BRANCH  27  28
ATOM     28  O   UNL     1       7.957   4.178  17.132  0.00  0.00    +0.000 OA
ATOM     29  H   UNL     1       7.462   3.488  16.655  0.00  0.00    +0.000 HD
ENDBRANCH  27  28
ENDBRANCH  26  27
ENDBRANCH   9  26
TORSDOF 5
ENDMDL
