MODEL 1
REMARK VINA RESULT:      -7.2      0.000      0.000
REMARK  Name = 
REMARK  5 active torsions:
REMARK  status: ('A' for Active; 'I' for Inactive)
REMARK    1  A    between atoms: C_1  and  O_2
REMARK    2  A    between atoms: O_2  and  C_3
REMARK    3  A    between atoms: C_7  and  N_8
REMARK    4  A    between atoms: N_8  and  C_9
REMARK    5  A    between atoms: C_18  and  C_19
REMARK                            x       y       z     vdW  Elec       q    Type
REMARK                         _______ _______ _______ _____ _____    ______ ____
ROOT
ATOM      1  C   UNL     1       2.219   9.451  18.348  0.00  0.00    +0.000 C 
ATOM      2  C   UNL     1       1.290  10.445  18.525  0.00  0.00    +0.000 C 
ATOM      3  C   UNL     1      -0.079   9.879  18.141  0.00  0.00    +0.000 C 
ATOM      4  O   UNL     1      -0.242   9.200  17.130  0.00  0.00    +0.000 OA
ATOM      5  N   UNL     1      -1.089  10.527  18.788  0.00  0.00    +0.000 N 
ATOM      6  C   UNL     1      -0.980  10.531  20.242  0.00  0.00    +0.000 A 
ATOM      7  C   UNL     1      -1.663  11.484  20.993  0.00  0.00    +0.000 A 
ATOM      8  C   UNL     1      -1.381  11.600  22.353  0.00  0.00    +0.000 A 
ATOM      9  C   UNL     1      -0.409  10.779  22.929  0.00  0.00    +0.000 A 
ATOM     10  C   UNL     1       0.221   9.842  22.142  0.00  0.00    +0.000 A 
ATOM     11  C   UNL     1       1.405   9.085  22.678  0.00  0.00    +0.000 C 
ATOM     12  N   UNL     1      -0.092   9.675  20.833  0.00  0.00    +0.000 NA
ATOM     13  C   UNL     1      -1.203  11.721  18.155  0.00  0.00    +0.000 C 
ATOM     14  O   UNL     1      -2.139  12.105  17.463  0.00  0.00    +0.000 OA
ATOM     15  C   UNL     1       0.010  12.597  18.362  0.00  0.00    +0.000 A 
ATOM     16  C   UNL     1      -0.342  13.959  18.597  0.00  0.00    +0.000 A 
ATOM     17  C   UNL     1       0.382  14.678  19.536  0.00  0.00    +0.000 A 
ATOM     18  C   UNL     1       1.435  14.021  20.179  0.00  0.00    +0.000 A 
ATOM     19  C   UNL     1       1.874  12.706  19.805  0.00  0.00    +0.000 A 
ATOM     20  C   UNL     1       1.199  11.966  18.815  0.00  0.00    +0.000 A 
ENDROOT
BRANCH   1  21
ATOM     21  N   UNL     1       1.961   8.062  18.535  0.00  0.00    +0.000 N 
ATOM     22  H   UNL     1       0.999   7.876  18.824  0.00  0.00    +0.000 HD
BRANCH  21  27
ATOM     23  C   UNL     1       2.454   4.416  17.662  0.00  0.00    +0.000 A 
ATOM     24  C   UNL     1       3.790   4.421  17.259  0.00  0.00    +0.000 A 
ATOM     25  C   UNL     1       4.525   5.611  17.279  0.00  0.00    +0.000 A 
ATOM     26  C   UNL     1       3.932   6.805  17.705  0.00  0.00    +0.000 A 
ATOM     27  C   UNL     1       2.593   6.859  18.098  0.00  0.00    +0.000 A 
ATOM     28  C   UNL     1       1.860   5.624  18.077  0.00  0.00    +0.000 A 
BRANCH  23  30
ATOM     29  C   UNL     1       1.109   2.657  18.640  0.00  0.00    +0.000 C 
ATOM     30  O   UNL     1       1.910   3.159  17.586  0.00  0.00    +0.000 OA
ENDBRANCH  23  30
ENDBRANCH  21  27
ENDBRANCH   1  21
TORSDOF 3
ENDMDL
MODEL 2
REMARK VINA RESULT:      -7.1      1.071      1.760
REMARK  Name = 
REMARK  5 active torsions:
REMARK  status: ('A' for Active; 'I' for Inactive)
REMARK    1  A    between atoms: C_1  and  O_2
REMARK    2  A    between atoms: O_2  and  C_3
REMARK    3  A    between atoms: C_7  and  N_8
REMARK    4  A    between atoms: N_8  and  C_9
REMARK    5  A    between atoms: C_18  and  C_19
REMARK                            x       y       z     vdW  Elec       q    Type
REMARK                         _______ _______ _______ _____ _____    ______ ____
ROOT
ATOM      1  C   UNL     1       2.252   9.531  18.298  0.00  0.00    +0.000 C 
ATOM      2  C   UNL     1       1.305  10.501  18.504  0.00  0.00    +0.000 C 
ATOM      3  C   UNL     1      -0.057   9.914  18.123  0.00  0.00    +0.000 C 
ATOM      4  O   UNL     1      -0.216   9.252  17.101  0.00  0.00    +0.000 OA
ATOM      5  N   UNL     1      -1.073  10.528  18.794  0.00  0.00    +0.000 N 
ATOM      6  C   UNL     1      -0.948  10.505  20.246  0.00  0.00    +0.000 A 
ATOM      7  C   UNL     1      -1.643  11.429  21.023  0.00  0.00    +0.000 A 
ATOM      8  C   UNL     1      -1.348  11.523  22.383  0.00  0.00    +0.000 A 
ATOM      9  C   UNL     1      -0.354  10.711  22.931  0.00  0.00    +0.000 A 
ATOM     10  C   UNL     1       0.287   9.804  22.120  0.00  0.00    +0.000 A 
ATOM     11  C   UNL     1       1.493   9.062  22.628  0.00  0.00    +0.000 C 
ATOM     12  N   UNL     1      -0.036   9.657  20.811  0.00  0.00    +0.000 NA
ATOM     13  C   UNL     1      -1.218  11.732  18.186  0.00  0.00    +0.000 C 
ATOM     14  O   UNL     1      -2.170  12.109  17.512  0.00  0.00    +0.000 OA
ATOM     15  C   UNL     1      -0.021  12.628  18.398  0.00  0.00    +0.000 A 
ATOM     16  C   UNL     1      -0.400  13.978  18.664  0.00  0.00    +0.000 A 
ATOM     17  C   UNL     1       0.320  14.693  19.610  0.00  0.00    +0.000 A 
ATOM     18  C   UNL     1       1.393  14.046  20.228  0.00  0.00    +0.000 A 
ATOM     19  C   UNL     1       1.855  12.748  19.824  0.00  0.00    +0.000 A 
ATOM     20  C   UNL     1       1.185  12.014  18.826  0.00  0.00    +0.000 A 
ENDROOT
BRANCH   1  21
ATOM     21  N   UNL     1       2.025   8.133  18.459  0.00  0.00    +0.000 N 
ATOM     22  H   UNL     1       1.053   7.916  18.686  0.00  0.00    +0.000 HD
BRANCH  21  27
ATOM     23  C   UNL     1       4.737   5.908  17.047  0.00  0.00    +0.000 A 
ATOM     24  C   UNL     1       4.156   4.650  17.212  0.00  0.00    +0.000 A 
ATOM     25  C   UNL     1       2.882   4.533  17.777  0.00  0.00    +0.000 A 
ATOM     26  C   UNL     1       2.176   5.673  18.179  0.00  0.00    +0.000 A 
ATOM     27  C   UNL     1       2.720   6.953  18.056  0.00  0.00    +0.000 A 
ATOM     28  C   UNL     1       4.026   7.050  17.466  0.00  0.00    +0.000 A 
BRANCH  23  30
ATOM     29  C   UNL     1       6.875   4.793  16.842  0.00  0.00    +0.000 C 
ATOM     30  O   UNL     1       5.976   5.819  16.466  0.00  0.00    +0.000 OA
ENDBRANCH  23  30
ENDBRANCH  21  27
ENDBRANCH   1  21
TORSDOF 3
ENDMDL
MODEL 3
REMARK VINA RESULT:      -7.0      4.880      7.581
REMARK  Name = 
REMARK  5 active torsions:
REMARK  status: ('A' for Active; 'I' for Inactive)
REMARK    1  A    between atoms: C_1  and  O_2
REMARK    2  A    between atoms: O_2  and  C_3
REMARK    3  A    between atoms: C_7  and  N_8
REMARK    4  A    between atoms: N_8  and  C_9
REMARK    5  A    between atoms: C_18  and  C_19
REMARK                            x       y       z     vdW  Elec       q    Type
REMARK                         _______ _______ _______ _____ _____    ______ ____
ROOT
ATOM      1  C   UNL     1      -5.935  12.979  19.322  0.00  0.00    +0.000 C 
ATOM      2  C   UNL     1      -6.151  13.428  20.599  0.00  0.00    +0.000 C 
ATOM      3  C   UNL     1      -6.421  12.210  21.485  0.00  0.00    +0.000 C 
ATOM      4  O   UNL     1      -7.165  11.299  21.130  0.00  0.00    +0.000 OA
ATOM      5  N   UNL     1      -6.086  12.451  22.785  0.00  0.00    +0.000 N 
ATOM      6  C   UNL     1      -4.708  12.880  22.992  0.00  0.00    +0.000 A 
ATOM      7  C   UNL     1      -4.353  13.559  24.155  0.00  0.00    +0.000 A 
ATOM      8  C   UNL     1      -3.088  14.140  24.237  0.00  0.00    +0.000 A 
ATOM      9  C   UNL     1      -2.215  14.049  23.152  0.00  0.00    +0.000 A 
ATOM     10  C   UNL     1      -2.612  13.350  22.035  0.00  0.00    +0.000 A 
ATOM     11  C   UNL     1      -1.784  13.403  20.781  0.00  0.00    +0.000 C 
ATOM     12  N   UNL     1      -3.814  12.725  21.968  0.00  0.00    +0.000 NA
ATOM     13  C   UNL     1      -7.078  13.244  23.262  0.00  0.00    +0.000 C 
ATOM     14  O   UNL     1      -7.916  12.951  24.106  0.00  0.00    +0.000 OA
ATOM     15  C   UNL     1      -7.086  14.605  22.608  0.00  0.00    +0.000 A 
ATOM     16  C   UNL     1      -7.329  15.652  23.546  0.00  0.00    +0.000 A 
ATOM     17  C   UNL     1      -6.629  16.842  23.408  0.00  0.00    +0.000 A 
ATOM     18  C   UNL     1      -5.740  16.945  22.335  0.00  0.00    +0.000 A 
ATOM     19  C   UNL     1      -5.637  15.943  21.311  0.00  0.00    +0.000 A 
ATOM     20  C   UNL     1      -6.377  14.746  21.386  0.00  0.00    +0.000 A 
ENDROOT
BRANCH   1  21
ATOM     21  N   UNL     1      -5.325  11.732  18.997  0.00  0.00    +0.000 N 
ATOM     22  H   UNL     1      -5.837  10.933  19.376  0.00  0.00    +0.000 HD
BRANCH  21  27
ATOM     23  C   UNL     1      -2.143  10.396  17.450  0.00  0.00    +0.000 A 
ATOM     24  C   UNL     1      -2.469  10.448  16.094  0.00  0.00    +0.000 A 
ATOM     25  C   UNL     1      -3.722  10.922  15.691  0.00  0.00    +0.000 A 
ATOM     26  C   UNL     1      -4.658  11.352  16.638  0.00  0.00    +0.000 A 
ATOM     27  C   UNL     1      -4.390  11.302  18.008  0.00  0.00    +0.000 A 
ATOM     28  C   UNL     1      -3.095  10.819  18.399  0.00  0.00    +0.000 A 
BRANCH  23  30
ATOM     29  C   UNL     1      -0.015  10.523  18.596  0.00  0.00    +0.000 C 
ATOM     30  O   UNL     1      -0.872   9.919  17.645  0.00  0.00    +0.000 OA
ENDBRANCH  23  30
ENDBRANCH  21  27
ENDBRANCH   1  21
TORSDOF 3
ENDMDL
MODEL 4
REMARK VINA RESULT:      -6.9      1.072      1.072
REMARK  Name = 
REMARK  5 active torsions:
REMARK  status: ('A' for Active; 'I' for Inactive)
REMARK    1  A    between atoms: C_1  and  O_2
REMARK    2  A    between atoms: O_2  and  C_3
REMARK    3  A    between atoms: C_7  and  N_8
REMARK    4  A    between atoms: N_8  and  C_9
REMARK    5  A    between atoms: C_18  and  C_19
REMARK                            x       y       z     vdW  Elec       q    Type
REMARK                         _______ _______ _______ _____ _____    ______ ____
ROOT
ATOM      1  C   UNL     1       2.177   9.471  18.799  0.00  0.00    +0.000 C 
ATOM      2  C   UNL     1       1.281  10.508  18.833  0.00  0.00    +0.000 C 
ATOM      3  C   UNL     1      -0.065   9.982  18.331  0.00  0.00    +0.000 C 
ATOM      4  O   UNL     1      -0.153   9.263  17.339  0.00  0.00    +0.000 OA
ATOM      5  N   UNL     1      -1.106  10.701  18.840  0.00  0.00    +0.000 N 
ATOM      6  C   UNL     1      -1.148  10.770  20.295  0.00  0.00    +0.000 A 
ATOM      7  C   UNL     1      -1.861  11.784  20.929  0.00  0.00    +0.000 A 
ATOM      8  C   UNL     1      -1.716  11.953  22.305  0.00  0.00    +0.000 A 
ATOM      9  C   UNL     1      -0.848  11.121  23.015  0.00  0.00    +0.000 A 
ATOM     10  C   UNL     1      -0.184  10.122  22.340  0.00  0.00    +0.000 A 
ATOM     11  C   UNL     1       0.903   9.344  23.030  0.00  0.00    +0.000 C 
ATOM     12  N   UNL     1      -0.366   9.907  21.014  0.00  0.00    +0.000 NA
ATOM     13  C   UNL     1      -1.099  11.868  18.148  0.00  0.00    +0.000 C 
ATOM     14  O   UNL     1      -1.940  12.256  17.345  0.00  0.00    +0.000 OA
ATOM     15  C   UNL     1       0.125  12.701  18.444  0.00  0.00    +0.000 A 
ATOM     16  C   UNL     1      -0.187  14.087  18.582  0.00  0.00    +0.000 A 
ATOM     17  C   UNL     1       0.469  14.819  19.561  0.00  0.00    +0.000 A 
ATOM     18  C   UNL     1       1.418  14.151  20.339  0.00  0.00    +0.000 A 
ATOM     19  C   UNL     1       1.833  12.802  20.070  0.00  0.00    +0.000 A 
ATOM     20  C   UNL     1       1.231  12.044  19.047  0.00  0.00    +0.000 A 
ENDROOT
BRANCH   1  21
ATOM     21  N   UNL     1       1.838   8.104  19.016  0.00  0.00    +0.000 N 
ATOM     22  H   UNL     1       0.830   7.940  18.993  0.00  0.00    +0.000 HD
BRANCH  21  27
ATOM     23  C   UNL     1       2.998   4.594  19.816  0.00  0.00    +0.000 A 
ATOM     24  C   UNL     1       3.935   4.390  18.802  0.00  0.00    +0.000 A 
ATOM     25  C   UNL     1       4.187   5.399  17.866  0.00  0.00    +0.000 A 
ATOM     26  C   UNL     1       3.509   6.621  17.938  0.00  0.00    +0.000 A 
ATOM     27  C   UNL     1       2.547   6.869  18.920  0.00  0.00    +0.000 A 
ATOM     28  C   UNL     1       2.309   5.822  19.874  0.00  0.00    +0.000 A 
BRANCH  23  30
ATOM     29  C   UNL     1       1.695   3.224  21.327  0.00  0.00    +0.000 C 
ATOM     30  O   UNL     1       2.901   3.502  20.640  0.00  0.00    +0.000 OA
ENDBRANCH  23  30
ENDBRANCH  21  27
ENDBRANCH   1  21
TORSDOF 3
ENDMDL
MODEL 5
REMARK VINA RESULT:      -6.9      7.787     10.753
REMARK  Name = 
REMARK  5 active torsions:
REMARK  status: ('A' for Active; 'I' for Inactive)
REMARK    1  A    between atoms: C_1  and  O_2
REMARK    2  A    between atoms: O_2  and  C_3
REMARK    3  A    between atoms: C_7  and  N_8
REMARK    4  A    between atoms: N_8  and  C_9
REMARK    5  A    between atoms: C_18  and  C_19
REMARK                            x       y       z     vdW  Elec       q    Type
REMARK                         _______ _______ _______ _____ _____    ______ ____
ROOT
ATOM      1  C   UNL     1       7.119  14.166  17.726  0.00  0.00    +0.000 C 
ATOM      2  C   UNL     1       8.348  14.178  18.334  0.00  0.00    +0.000 C 
ATOM      3  C   UNL     1       8.850  15.623  18.348  0.00  0.00    +0.000 C 
ATOM      4  O   UNL     1       8.758  16.353  17.364  0.00  0.00    +0.000 OA
ATOM      5  N   UNL     1       9.720  15.842  19.375  0.00  0.00    +0.000 N 
ATOM      6  C   UNL     1       9.199  15.519  20.697  0.00  0.00    +0.000 A 
ATOM      7  C   UNL     1      10.073  15.280  21.755  0.00  0.00    +0.000 A 
ATOM      8  C   UNL     1       9.563  14.771  22.948  0.00  0.00    +0.000 A 
ATOM      9  C   UNL     1       8.200  14.492  23.053  0.00  0.00    +0.000 A 
ATOM     10  C   UNL     1       7.380  14.765  21.982  0.00  0.00    +0.000 A 
ATOM     11  C   UNL     1       5.952  14.292  21.988  0.00  0.00    +0.000 C 
ATOM     12  N   UNL     1       7.853  15.321  20.839  0.00  0.00    +0.000 NA
ATOM     13  C   UNL     1      10.878  15.253  18.985  0.00  0.00    +0.000 C 
ATOM     14  O   UNL     1      11.931  15.811  18.700  0.00  0.00    +0.000 OA
ATOM     15  C   UNL     1      10.755  13.751  18.899  0.00  0.00    +0.000 A 
ATOM     16  C   UNL     1      11.904  13.085  19.422  0.00  0.00    +0.000 A 
ATOM     17  C   UNL     1      11.719  11.925  20.160  0.00  0.00    +0.000 A 
ATOM     18  C   UNL     1      10.409  11.467  20.323  0.00  0.00    +0.000 A 
ATOM     19  C   UNL     1       9.288  12.061  19.649  0.00  0.00    +0.000 A 
ATOM     20  C   UNL     1       9.445  13.206  18.844  0.00  0.00    +0.000 A 
ENDROOT
BRANCH   1  21
ATOM     21  N   UNL     1       6.174  15.231  17.794  0.00  0.00    +0.000 N 
ATOM     22  H   UNL     1       6.502  16.078  17.326  0.00  0.00    +0.000 HD
BRANCH  21  27
ATOM     23  C   UNL     1       2.742  16.706  18.381  0.00  0.00    +0.000 A 
ATOM     24  C   UNL     1       1.987  15.548  18.567  0.00  0.00    +0.000 A 
ATOM     25  C   UNL     1       2.600  14.292  18.504  0.00  0.00    +0.000 A 
ATOM     26  C   UNL     1       3.974  14.184  18.260  0.00  0.00    +0.000 A 
ATOM     27  C   UNL     1       4.772  15.310  18.047  0.00  0.00    +0.000 A 
ATOM     28  C   UNL     1       4.122  16.589  18.123  0.00  0.00    +0.000 A 
BRANCH  23  30
ATOM     29  C   UNL     1       1.014  18.154  17.499  0.00  0.00    +0.000 C 
ATOM     30  O   UNL     1       1.970  17.835  18.493  0.00  0.00    +0.000 OA
ENDBRANCH  23  30
ENDBRANCH  21  27
ENDBRANCH   1  21
TORSDOF 3
ENDMDL
MODEL 6
REMARK VINA RESULT:      -6.7      5.047      7.332
REMARK  Name = 
REMARK  5 active torsions:
REMARK  status: ('A' for Active; 'I' for Inactive)
REMARK    1  A    between atoms: C_1  and  O_2
REMARK    2  A    between atoms: O_2  and  C_3
REMARK    3  A    between atoms: C_7  and  N_8
REMARK    4  A    between atoms: N_8  and  C_9
REMARK    5  A    between atoms: C_18  and  C_19
REMARK                            x       y       z     vdW  Elec       q    Type
REMARK                         _______ _______ _______ _____ _____    ______ ____
ROOT
ATOM      1  C   UNL     1      -5.705  12.984  19.142  0.00  0.00    +0.000 C 
ATOM      2  C   UNL     1      -5.696  13.504  20.411  0.00  0.00    +0.000 C 
ATOM      3  C   UNL     1      -5.946  12.354  21.390  0.00  0.00    +0.000 C 
ATOM      4  O   UNL     1      -6.812  11.507  21.191  0.00  0.00    +0.000 OA
ATOM      5  N   UNL     1      -5.409  12.614  22.616  0.00  0.00    +0.000 N 
ATOM      6  C   UNL     1      -3.983  12.915  22.608  0.00  0.00    +0.000 A 
ATOM      7  C   UNL     1      -3.405  13.603  23.673  0.00  0.00    +0.000 A 
ATOM      8  C   UNL     1      -2.095  14.060  23.549  0.00  0.00    +0.000 A 
ATOM      9  C   UNL     1      -1.397  13.841  22.360  0.00  0.00    +0.000 A 
ATOM     10  C   UNL     1      -2.010  13.139  21.348  0.00  0.00    +0.000 A 
ATOM     11  C   UNL     1      -1.367  13.061  19.990  0.00  0.00    +0.000 C 
ATOM     12  N   UNL     1      -3.261  12.633  21.481  0.00  0.00    +0.000 NA
ATOM     13  C   UNL     1      -6.247  13.519  23.182  0.00  0.00    +0.000 C 
ATOM     14  O   UNL     1      -6.980  13.344  24.148  0.00  0.00    +0.000 OA
ATOM     15  C   UNL     1      -6.225  14.847  22.463  0.00  0.00    +0.000 A 
ATOM     16  C   UNL     1      -6.236  15.950  23.368  0.00  0.00    +0.000 A 
ATOM     17  C   UNL     1      -5.457  17.058  23.072  0.00  0.00    +0.000 A 
ATOM     18  C   UNL     1      -4.724  17.031  21.882  0.00  0.00    +0.000 A 
ATOM     19  C   UNL     1      -4.860  15.983  20.909  0.00  0.00    +0.000 A 
ATOM     20  C   UNL     1      -5.686  14.868  21.149  0.00  0.00    +0.000 A 
ENDROOT
BRANCH   1  21
ATOM     21  N   UNL     1      -5.263  11.671  18.804  0.00  0.00    +0.000 N 
ATOM     22  H   UNL     1      -5.963  10.956  19.009  0.00  0.00    +0.000 HD
BRANCH  21  27
ATOM     23  C   UNL     1      -3.391  10.742  15.653  0.00  0.00    +0.000 A 
ATOM     24  C   UNL     1      -2.271  10.107  16.191  0.00  0.00    +0.000 A 
ATOM     25  C   UNL     1      -2.134   9.980  17.577  0.00  0.00    +0.000 A 
ATOM     26  C   UNL     1      -3.117  10.483  18.438  0.00  0.00    +0.000 A 
ATOM     27  C   UNL     1      -4.246  11.146  17.952  0.00  0.00    +0.000 A 
ATOM     28  C   UNL     1      -4.370  11.258  16.525  0.00  0.00    +0.000 A 
BRANCH  23  30
ATOM     29  C   UNL     1      -4.149   9.859  13.531  0.00  0.00    +0.000 C 
ATOM     30  O   UNL     1      -3.352  10.756  14.282  0.00  0.00    +0.000 OA
ENDBRANCH  23  30
ENDBRANCH  21  27
ENDBRANCH   1  21
TORSDOF 3
ENDMDL
MODEL 7
REMARK VINA RESULT:      -6.7      7.660     10.410
REMARK  Name = 
REMARK  5 active torsions:
REMARK  status: ('A' for Active; 'I' for Inactive)
REMARK    1  A    between atoms: C_1  and  O_2
REMARK    2  A    between atoms: O_2  and  C_3
REMARK    3  A    between atoms: C_7  and  N_8
REMARK    4  A    between atoms: N_8  and  C_9
REMARK    5  A    between atoms: C_18  and  C_19
REMARK                            x       y       z     vdW  Elec       q    Type
REMARK                         _______ _______ _______ _____ _____    ______ ____
ROOT
ATOM      1  C   UNL     1       7.158  14.120  17.666  0.00  0.00    +0.000 C 
ATOM      2  C   UNL     1       8.368  14.152  18.310  0.00  0.00    +0.000 C 
ATOM      3  C   UNL     1       8.852  15.604  18.326  0.00  0.00    +0.000 C 
ATOM      4  O   UNL     1       8.782  16.324  17.334  0.00  0.00    +0.000 OA
ATOM      5  N   UNL     1       9.688  15.843  19.377  0.00  0.00    +0.000 N 
ATOM      6  C   UNL     1       9.131  15.524  20.686  0.00  0.00    +0.000 A 
ATOM      7  C   UNL     1       9.975  15.305  21.772  0.00  0.00    +0.000 A 
ATOM      8  C   UNL     1       9.436  14.800  22.954  0.00  0.00    +0.000 A 
ATOM      9  C   UNL     1       8.073  14.505  23.020  0.00  0.00    +0.000 A 
ATOM     10  C   UNL     1       7.283  14.759  21.922  0.00  0.00    +0.000 A 
ATOM     11  C   UNL     1       5.861  14.269  21.889  0.00  0.00    +0.000 C 
ATOM     12  N   UNL     1       7.784  15.311  20.789  0.00  0.00    +0.000 NA
ATOM     13  C   UNL     1      10.864  15.264  19.028  0.00  0.00    +0.000 C 
ATOM     14  O   UNL     1      11.919  15.833  18.770  0.00  0.00    +0.000 OA
ATOM     15  C   UNL     1      10.762  13.760  18.952  0.00  0.00    +0.000 A 
ATOM     16  C   UNL     1      11.902  13.113  19.516  0.00  0.00    +0.000 A 
ATOM     17  C   UNL     1      11.709  11.957  20.258  0.00  0.00    +0.000 A 
ATOM     18  C   UNL     1      10.400  11.484  20.385  0.00  0.00    +0.000 A 
ATOM     19  C   UNL     1       9.293  12.058  19.672  0.00  0.00    +0.000 A 
ATOM     20  C   UNL     1       9.460  13.198  18.862  0.00  0.00    +0.000 A 
ENDROOT
BRANCH   1  21
ATOM     21  N   UNL     1       6.200  15.174  17.696  0.00  0.00    +0.000 N 
ATOM     22  H   UNL     1       6.277  15.799  16.891  0.00  0.00    +0.000 HD
BRANCH  21  27
ATOM     23  C   UNL     1       2.673  14.574  18.921  0.00  0.00    +0.000 A 
ATOM     24  C   UNL     1       2.456  15.730  19.673  0.00  0.00    +0.000 A 
ATOM     25  C   UNL     1       3.458  16.701  19.772  0.00  0.00    +0.000 A 
ATOM     26  C   UNL     1       4.683  16.527  19.118  0.00  0.00    +0.000 A 
ATOM     27  C   UNL     1       4.959  15.380  18.371  0.00  0.00    +0.000 A 
ATOM     28  C   UNL     1       3.913  14.400  18.277  0.00  0.00    +0.000 A 
BRANCH  23  30
ATOM     29  C   UNL     1       0.269  14.296  18.869  0.00  0.00    +0.000 C 
ATOM     30  O   UNL     1       1.574  13.753  18.932  0.00  0.00    +0.000 OA
ENDBRANCH  23  30
ENDBRANCH  21  27
ENDBRANCH   1  21
TORSDOF 3
ENDMDL
MODEL 8
REMARK VINA RESULT:      -6.6      3.070      4.925
REMARK  Name = 
REMARK  5 active torsions:
REMARK  status: ('A' for Active; 'I' for Inactive)
REMARK    1  A    between atoms: C_1  and  O_2
REMARK    2  A    between atoms: O_2  and  C_3
REMARK    3  A    between atoms: C_7  and  N_8
REMARK    4  A    between atoms: N_8  and  C_9
REMARK    5  A    between atoms: C_18  and  C_19
REMARK                            x       y       z     vdW  Elec       q    Type
REMARK                         _______ _______ _______ _____ _____    ______ ____
ROOT
ATOM      1  C   UNL     1      -0.161  10.720  21.604  0.00  0.00    +0.000 C 
ATOM      2  C   UNL     1      -0.667  11.895  22.096  0.00  0.00    +0.000 C 
ATOM      3  C   UNL     1       0.088  13.046  21.427  0.00  0.00    +0.000 C 
ATOM      4  O   UNL     1       1.309  13.032  21.292  0.00  0.00    +0.000 OA
ATOM      5  N   UNL     1      -0.664  14.182  21.385  0.00  0.00    +0.000 N 
ATOM      6  C   UNL     1      -1.958  14.035  20.732  0.00  0.00    +0.000 A 
ATOM      7  C   UNL     1      -2.980  14.947  20.986  0.00  0.00    +0.000 A 
ATOM      8  C   UNL     1      -4.263  14.670  20.517  0.00  0.00    +0.000 A 
ATOM      9  C   UNL     1      -4.504  13.481  19.825  0.00  0.00    +0.000 A 
ATOM     10  C   UNL     1      -3.453  12.626  19.586  0.00  0.00    +0.000 A 
ATOM     11  C   UNL     1      -3.712  11.254  19.026  0.00  0.00    +0.000 C 
ATOM     12  N   UNL     1      -2.187  12.915  19.980  0.00  0.00    +0.000 NA
ATOM     13  C   UNL     1      -0.643  14.665  22.653  0.00  0.00    +0.000 C 
ATOM     14  O   UNL     1      -0.103  15.694  23.043  0.00  0.00    +0.000 OA
ATOM     15  C   UNL     1      -1.366  13.760  23.622  0.00  0.00    +0.000 A 
ATOM     16  C   UNL     1      -2.160  14.493  24.554  0.00  0.00    +0.000 A 
ATOM     17  C   UNL     1      -3.400  13.986  24.912  0.00  0.00    +0.000 A 
ATOM     18  C   UNL     1      -3.785  12.767  24.348  0.00  0.00    +0.000 A 
ATOM     19  C   UNL     1      -2.901  11.969  23.544  0.00  0.00    +0.000 A 
ATOM     20  C   UNL     1      -1.611  12.424  23.207  0.00  0.00    +0.000 A 
ENDROOT
BRANCH   1  21
ATOM     21  N   UNL     1       0.343  10.548  20.282  0.00  0.00    +0.000 N 
ATOM     22  H   UNL     1       0.421  11.430  19.773  0.00  0.00    +0.000 HD
BRANCH  21  27
ATOM     23  C   UNL     1       2.148   7.278  19.688  0.00  0.00    +0.000 A 
ATOM     24  C   UNL     1       2.551   7.439  18.361  0.00  0.00    +0.000 A 
ATOM     25  C   UNL     1       2.237   8.613  17.669  0.00  0.00    +0.000 A 
ATOM     26  C   UNL     1       1.521   9.639  18.297  0.00  0.00    +0.000 A 
ATOM     27  C   UNL     1       1.076   9.521  19.616  0.00  0.00    +0.000 A 
ATOM     28  C   UNL     1       1.417   8.309  20.310  0.00  0.00    +0.000 A 
BRANCH  23  30
ATOM     29  C   UNL     1       3.678   5.404  19.647  0.00  0.00    +0.000 C 
ATOM     30  O   UNL     1       2.560   6.074  20.198  0.00  0.00    +0.000 OA
ENDBRANCH  23  30
ENDBRANCH  21  27
ENDBRANCH   1  21
TORSDOF 3
ENDMDL
MODEL 9
REMARK VINA RESULT:      -6.6      1.300      1.794
REMARK  Name = 
REMARK  5 active torsions:
REMARK  status: ('A' for Active; 'I' for Inactive)
REMARK    1  A    between atoms: C_1  and  O_2
REMARK    2  A    between atoms: O_2  and  C_3
REMARK    3  A    between atoms: C_7  and  N_8
REMARK    4  A    between atoms: N_8  and  C_9
REMARK    5  A    between atoms: C_18  and  C_19
REMARK                            x       y       z     vdW  Elec       q    Type
REMARK                         _______ _______ _______ _____ _____    ______ ____
ROOT
ATOM      1  C   UNL     1       2.064   9.454  19.328  0.00  0.00    +0.000 C 
ATOM      2  C   UNL     1       1.263  10.563  19.243  0.00  0.00    +0.000 C 
ATOM      3  C   UNL     1      -0.052  10.142  18.583  0.00  0.00    +0.000 C 
ATOM      4  O   UNL     1      -0.080   9.413  17.595  0.00  0.00    +0.000 OA
ATOM      5  N   UNL     1      -1.083  10.955  18.954  0.00  0.00    +0.000 N 
ATOM      6  C   UNL     1      -1.296  11.055  20.392  0.00  0.00    +0.000 A 
ATOM      7  C   UNL     1      -1.992  12.138  20.924  0.00  0.00    +0.000 A 
ATOM      8  C   UNL     1      -2.002  12.321  22.305  0.00  0.00    +0.000 A 
ATOM      9  C   UNL     1      -1.301  11.433  23.124  0.00  0.00    +0.000 A 
ATOM     10  C   UNL     1      -0.647  10.370  22.546  0.00  0.00    +0.000 A 
ATOM     11  C   UNL     1       0.278   9.517  23.371  0.00  0.00    +0.000 C 
ATOM     12  N   UNL     1      -0.684  10.144  21.209  0.00  0.00    +0.000 NA
ATOM     13  C   UNL     1      -0.892  12.103  18.257  0.00  0.00    +0.000 C 
ATOM     14  O   UNL     1      -1.592  12.544  17.353  0.00  0.00    +0.000 OA
ATOM     15  C   UNL     1       0.354  12.837  18.694  0.00  0.00    +0.000 A 
ATOM     16  C   UNL     1       0.146  14.246  18.780  0.00  0.00    +0.000 A 
ATOM     17  C   UNL     1       0.738  14.940  19.825  0.00  0.00    +0.000 A 
ATOM     18  C   UNL     1       1.525  14.210  20.720  0.00  0.00    +0.000 A 
ATOM     19  C   UNL     1       1.853  12.827  20.517  0.00  0.00    +0.000 A 
ATOM     20  C   UNL     1       1.318  12.102  19.434  0.00  0.00    +0.000 A 
ENDROOT
BRANCH   1  21
ATOM     21  N   UNL     1       1.585   8.125  19.515  0.00  0.00    +0.000 N 
ATOM     22  H   UNL     1       0.593   8.029  19.293  0.00  0.00    +0.000 HD
BRANCH  21  27
ATOM     23  C   UNL     1       3.877   5.219  18.737  0.00  0.00    +0.000 A 
ATOM     24  C   UNL     1       3.469   4.297  19.703  0.00  0.00    +0.000 A 
ATOM     25  C   UNL     1       2.447   4.626  20.599  0.00  0.00    +0.000 A 
ATOM     26  C   UNL     1       1.820   5.876  20.535  0.00  0.00    +0.000 A 
ATOM     27  C   UNL     1       2.204   6.841  19.602  0.00  0.00    +0.000 A 
ATOM     28  C   UNL     1       3.251   6.480  18.687  0.00  0.00    +0.000 A 
BRANCH  23  30
ATOM     29  C   UNL     1       4.869   4.930  16.548  0.00  0.00    +0.000 C 
ATOM     30  O   UNL     1       4.876   4.711  17.946  0.00  0.00    +0.000 OA
ENDBRANCH  23  30
ENDBRANCH  21  27
ENDBRANCH   1  21
TORSDOF 3
ENDMDL
