MODEL 1
REMARK VINA RESULT:      -7.3      0.000      0.000
REMARK  Name = 
REMARK  3 active torsions:
REMARK  status: ('A' for Active; 'I' for Inactive)
REMARK    1  A    between atoms: N_5  and  C_6
REMARK    2  A    between atoms: C_6  and  C_7
REMARK    3  A    between atoms: C_7  and  N_8
REMARK                            x       y       z     vdW  Elec       q    Type
REMARK                         _______ _______ _______ _____ _____    ______ ____
ROOT
ATOM      1  N   UNL     1       2.718   4.858  18.238  0.00  0.00    +0.000 NA
ATOM      2  C   UNL     1       2.437   6.291  18.086  0.00  0.00    +0.000 C 
ATOM      3  C   UNL     1       3.756   6.959  17.771  0.00  0.00    +0.000 C 
ATOM      4  C   UNL     1       4.684   5.841  17.221  0.00  0.00    +0.000 C 
ATOM      5  C   UNL     1       5.913   5.824  18.171  0.00  0.00    +0.000 C 
ATOM      6  C   UNL     1       7.008   4.784  17.957  0.00  0.00    +0.000 C 
ATOM      7  C   UNL     1       7.618   4.746  16.561  0.00  0.00    +0.000 C 
ATOM      8  C   UNL     1       6.674   4.140  15.535  0.00  0.00    +0.000 C 
ATOM      9  C   UNL     1       5.708   5.126  14.896  0.00  0.00    +0.000 C 
ATOM     10  C   UNL     1       5.116   6.220  15.783  0.00  0.00    +0.000 C 
ATOM     11  C   UNL     1       3.784   4.573  17.261  0.00  0.00    +0.000 C 
ENDROOT
BRANCH   1  12
ATOM     12  C   UNL     1       1.447   4.134  18.037  0.00  0.00    +0.000 C 
BRANCH  12  13
ATOM     13  C   UNL     1       1.213   2.769  18.683  0.00  0.00    +0.000 C 
BRANCH  13  18
ATOM     14  C   UNL     1       2.999   2.335  20.392  0.00  0.00    +0.000 A 
ATOM     15  N   UNL     1       3.108   2.432  21.702  0.00  0.00    +0.000 NA
ATOM     16  N   UNL     1       1.883   2.831  22.188  0.00  0.00    +0.000 NA
ATOM     17  C   UNL     1       1.071   2.961  21.167  0.00  0.00    +0.000 A 
ATOM     18  N   UNL     1       1.734   2.651  20.019  0.00  0.00    +0.000 N 
ENDBRANCH  13  18
ENDBRANCH  12  13
ENDBRANCH   1  12
TORSDOF 3
ENDMDL
MODEL 2
REMARK VINA RESULT:      -7.2      2.567      6.156
REMARK  Name = 
REMARK  3 active torsions:
REMARK  status: ('A' for Active; 'I' for Inactive)
REMARK    1  A    between atoms: N_5  and  C_6
REMARK    2  A    between atoms: C_6  and  C_7
REMARK    3  A    between atoms: C_7  and  N_8
REMARK                            x       y       z     vdW  Elec       q    Type
REMARK                         _______ _______ _______ _____ _____    ______ ____
ROOT
ATOM      1  N   UNL     1       4.691   5.444  17.745  0.00  0.00    +0.000 NA
ATOM      2  C   UNL     1       4.096   6.786  17.727  0.00  0.00    +0.000 C 
ATOM      3  C   UNL     1       2.638   6.616  18.089  0.00  0.00    +0.000 C 
ATOM      4  C   UNL     1       2.534   5.254  18.829  0.00  0.00    +0.000 C 
ATOM      5  C   UNL     1       1.527   4.412  17.999  0.00  0.00    +0.000 C 
ATOM      6  C   UNL     1       1.237   2.974  18.413  0.00  0.00    +0.000 C 
ATOM      7  C   UNL     1       0.781   2.781  19.855  0.00  0.00    +0.000 C 
ATOM      8  C   UNL     1       1.917   2.966  20.848  0.00  0.00    +0.000 C 
ATOM      9  C   UNL     1       2.146   4.401  21.296  0.00  0.00    +0.000 C 
ATOM     10  C   UNL     1       1.984   5.506  20.255  0.00  0.00    +0.000 C 
ATOM     11  C   UNL     1       4.001   4.735  18.837  0.00  0.00    +0.000 C 
ENDROOT
BRANCH   1  12
ATOM     12  C   UNL     1       6.150   5.610  17.904  0.00  0.00    +0.000 C 
BRANCH  12  13
ATOM     13  C   UNL     1       7.127   4.702  17.158  0.00  0.00    +0.000 C 
BRANCH  13  18
ATOM     14  C   UNL     1       7.412   5.210  14.717  0.00  0.00    +0.000 A 
ATOM     15  N   UNL     1       6.957   4.718  13.581  0.00  0.00    +0.000 NA
ATOM     16  N   UNL     1       6.076   3.707  13.895  0.00  0.00    +0.000 NA
ATOM     17  C   UNL     1       6.019   3.618  15.202  0.00  0.00    +0.000 A 
ATOM     18  N   UNL     1       6.841   4.552  15.756  0.00  0.00    +0.000 N 
ENDBRANCH  13  18
ENDBRANCH  12  13
ENDBRANCH   1  12
TORSDOF 3
ENDMDL
MODEL 3
REMARK VINA RESULT:      -6.8      3.207      6.551
REMARK  Name = 
REMARK  3 active torsions:
REMARK  status: ('A' for Active; 'I' for Inactive)
REMARK    1  A    between atoms: N_5  and  C_6
REMARK    2  A    between atoms: C_6  and  C_7
REMARK    3  A    between atoms: C_7  and  N_8
REMARK                            x       y       z     vdW  Elec       q    Type
REMARK                         _______ _______ _______ _____ _____    ______ ____
ROOT
ATOM      1  N   UNL     1       4.827   5.583  17.265  0.00  0.00    +0.000 NA
ATOM      2  C   UNL     1       5.980   5.141  18.059  0.00  0.00    +0.000 C 
ATOM      3  C   UNL     1       5.426   4.556  19.338  0.00  0.00    +0.000 C 
ATOM      4  C   UNL     1       3.949   4.181  19.035  0.00  0.00    +0.000 C 
ATOM      5  C   UNL     1       3.103   4.984  20.061  0.00  0.00    +0.000 C 
ATOM      6  C   UNL     1       1.582   4.901  20.002  0.00  0.00    +0.000 C 
ATOM      7  C   UNL     1       0.995   3.495  20.057  0.00  0.00    +0.000 C 
ATOM      8  C   UNL     1       1.208   2.730  18.760  0.00  0.00    +0.000 C 
ATOM      9  C   UNL     1       2.530   1.986  18.669  0.00  0.00    +0.000 C 
ATOM     10  C   UNL     1       3.769   2.659  19.257  0.00  0.00    +0.000 C 
ATOM     11  C   UNL     1       3.771   4.593  17.545  0.00  0.00    +0.000 C 
ENDROOT
BRANCH   1  12
ATOM     12  C   UNL     1       5.267   5.677  15.859  0.00  0.00    +0.000 C 
BRANCH  12  13
ATOM     13  C   UNL     1       6.631   5.138  15.427  0.00  0.00    +0.000 C 
BRANCH  13  18
ATOM     14  C   UNL     1       7.580   5.028  13.107  0.00  0.00    +0.000 A 
ATOM     15  N   UNL     1       7.354   4.321  12.017  0.00  0.00    +0.000 NA
ATOM     16  N   UNL     1       6.287   3.491  12.280  0.00  0.00    +0.000 NA
ATOM     17  C   UNL     1       5.897   3.718  13.510  0.00  0.00    +0.000 A 
ATOM     18  N   UNL     1       6.681   4.685  14.063  0.00  0.00    +0.000 N 
ENDBRANCH  13  18
ENDBRANCH  12  13
ENDBRANCH   1  12
TORSDOF 3
ENDMDL
MODEL 4
REMARK VINA RESULT:      -6.7      2.452      5.764
REMARK  Name = 
REMARK  3 active torsions:
REMARK  status: ('A' for Active; 'I' for Inactive)
REMARK    1  A    between atoms: N_5  and  C_6
REMARK    2  A    between atoms: C_6  and  C_7
REMARK    3  A    between atoms: C_7  and  N_8
REMARK                            x       y       z     vdW  Elec       q    Type
REMARK                         _______ _______ _______ _____ _____    ______ ____
ROOT
ATOM      1  N   UNL     1       4.304   4.824  17.504  0.00  0.00    +0.000 NA
ATOM      2  C   UNL     1       3.606   4.088  16.442  0.00  0.00    +0.000 C 
ATOM      3  C   UNL     1       2.901   2.930  17.112  0.00  0.00    +0.000 C 
ATOM      4  C   UNL     1       2.762   3.319  18.609  0.00  0.00    +0.000 C 
ATOM      5  C   UNL     1       3.492   2.195  19.394  0.00  0.00    +0.000 C 
ATOM      6  C   UNL     1       3.606   2.297  20.911  0.00  0.00    +0.000 C 
ATOM      7  C   UNL     1       2.292   2.478  21.661  0.00  0.00    +0.000 C 
ATOM      8  C   UNL     1       1.718   3.876  21.490  0.00  0.00    +0.000 C 
ATOM      9  C   UNL     1       0.841   4.059  20.261  0.00  0.00    +0.000 C 
ATOM     10  C   UNL     1       1.257   3.346  18.976  0.00  0.00    +0.000 C 
ATOM     11  C   UNL     1       3.420   4.727  18.679  0.00  0.00    +0.000 C 
ENDROOT
BRANCH   1  12
ATOM     12  C   UNL     1       4.561   6.188  17.001  0.00  0.00    +0.000 C 
BRANCH  12  13
ATOM     13  C   UNL     1       5.982   6.748  16.946  0.00  0.00    +0.000 C 
BRANCH  13  18
ATOM     14  C   UNL     1       7.466   5.960  18.810  0.00  0.00    +0.000 A 
ATOM     15  N   UNL     1       8.281   4.943  19.014  0.00  0.00    +0.000 NA
ATOM     16  N   UNL     1       8.310   4.200  17.856  0.00  0.00    +0.000 NA
ATOM     17  C   UNL     1       7.519   4.782  16.987  0.00  0.00    +0.000 A 
ATOM     18  N   UNL     1       6.975   5.898  17.547  0.00  0.00    +0.000 N 
ENDBRANCH  13  18
ENDBRANCH  12  13
ENDBRANCH   1  12
TORSDOF 3
ENDMDL
MODEL 5
REMARK VINA RESULT:      -6.7      3.101      6.604
REMARK  Name = 
REMARK  3 active torsions:
REMARK  status: ('A' for Active; 'I' for Inactive)
REMARK    1  A    between atoms: N_5  and  C_6
REMARK    2  A    between atoms: C_6  and  C_7
REMARK    3  A    between atoms: C_7  and  N_8
REMARK                            x       y       z     vdW  Elec       q    Type
REMARK                         _______ _______ _______ _____ _____    ______ ____
ROOT
ATOM      1  N   UNL     1       4.732   4.727  16.847  0.00  0.00    +0.000 NA
ATOM      2  C   UNL     1       4.534   6.175  16.981  0.00  0.00    +0.000 C 
ATOM      3  C   UNL     1       3.217   6.367  17.697  0.00  0.00    +0.000 C 
ATOM      4  C   UNL     1       2.931   5.032  18.438  0.00  0.00    +0.000 C 
ATOM      5  C   UNL     1       1.564   4.541  17.886  0.00  0.00    +0.000 C 
ATOM      6  C   UNL     1       1.006   3.204  18.358  0.00  0.00    +0.000 C 
ATOM      7  C   UNL     1       0.877   3.037  19.868  0.00  0.00    +0.000 C 
ATOM      8  C   UNL     1       2.225   2.850  20.545  0.00  0.00    +0.000 C 
ATOM      9  C   UNL     1       2.934   4.142  20.923  0.00  0.00    +0.000 C 
ATOM     10  C   UNL     1       2.830   5.320  19.956  0.00  0.00    +0.000 C 
ATOM     11  C   UNL     1       4.160   4.149  18.077  0.00  0.00    +0.000 C 
ENDROOT
BRANCH   1  12
ATOM     12  C   UNL     1       6.174   4.494  16.635  0.00  0.00    +0.000 C 
BRANCH  12  13
ATOM     13  C   UNL     1       6.949   5.286  15.582  0.00  0.00    +0.000 C 
BRANCH  13  18
ATOM     14  C   UNL     1       6.075   3.752  13.799  0.00  0.00    +0.000 A 
ATOM     15  N   UNL     1       6.298   3.560  12.513  0.00  0.00    +0.000 NA
ATOM     16  N   UNL     1       7.307   4.418  12.139  0.00  0.00    +0.000 NA
ATOM     17  C   UNL     1       7.667   5.099  13.199  0.00  0.00    +0.000 A 
ATOM     18  N   UNL     1       6.919   4.704  14.267  0.00  0.00    +0.000 N 
ENDBRANCH  13  18
ENDBRANCH  12  13
ENDBRANCH   1  12
TORSDOF 3
ENDMDL
MODEL 6
REMARK VINA RESULT:      -6.6      2.810      5.391
REMARK  Name = 
REMARK  3 active torsions:
REMARK  status: ('A' for Active; 'I' for Inactive)
REMARK    1  A    between atoms: N_5  and  C_6
REMARK    2  A    between atoms: C_6  and  C_7
REMARK    3  A    between atoms: C_7  and  N_8
REMARK                            x       y       z     vdW  Elec       q    Type
REMARK                         _______ _______ _______ _____ _____    ______ ____
ROOT
ATOM      1  N   UNL     1       4.110   5.926  16.543  0.00  0.00    +0.000 NA
ATOM      2  C   UNL     1       4.075   6.957  17.587  0.00  0.00    +0.000 C 
ATOM      3  C   UNL     1       3.212   6.413  18.703  0.00  0.00    +0.000 C 
ATOM      4  C   UNL     1       3.199   4.870  18.523  0.00  0.00    +0.000 C 
ATOM      5  C   UNL     1       1.703   4.489  18.356  0.00  0.00    +0.000 C 
ATOM      6  C   UNL     1       1.327   3.036  18.088  0.00  0.00    +0.000 C 
ATOM      7  C   UNL     1       1.857   2.021  19.095  0.00  0.00    +0.000 C 
ATOM      8  C   UNL     1       3.353   1.789  18.948  0.00  0.00    +0.000 C 
ATOM      9  C   UNL     1       4.229   2.758  19.726  0.00  0.00    +0.000 C 
ATOM     10  C   UNL     1       3.785   4.218  19.800  0.00  0.00    +0.000 C 
ATOM     11  C   UNL     1       4.097   4.645  17.272  0.00  0.00    +0.000 C 
ENDROOT
BRANCH   1  12
ATOM     12  C   UNL     1       5.301   6.181  15.709  0.00  0.00    +0.000 C 
BRANCH  12  13
ATOM     13  C   UNL     1       6.583   5.373  15.906  0.00  0.00    +0.000 C 
BRANCH  13  18
ATOM     14  C   UNL     1       7.595   6.838  17.674  0.00  0.00    +0.000 A 
ATOM     15  N   UNL     1       8.110   6.665  18.876  0.00  0.00    +0.000 NA
ATOM     16  N   UNL     1       8.098   5.312  19.137  0.00  0.00    +0.000 NA
ATOM     17  C   UNL     1       7.584   4.708  18.093  0.00  0.00    +0.000 A 
ATOM     18  N   UNL     1       7.261   5.634  17.148  0.00  0.00    +0.000 N 
ENDBRANCH  13  18
ENDBRANCH  12  13
ENDBRANCH   1  12
TORSDOF 3
ENDMDL
MODEL 7
REMARK VINA RESULT:      -6.6      1.340      2.482
REMARK  Name = 
REMARK  3 active torsions:
REMARK  status: ('A' for Active; 'I' for Inactive)
REMARK    1  A    between atoms: N_5  and  C_6
REMARK    2  A    between atoms: C_6  and  C_7
REMARK    3  A    between atoms: C_7  and  N_8
REMARK                            x       y       z     vdW  Elec       q    Type
REMARK                         _______ _______ _______ _____ _____    ______ ____
ROOT
ATOM      1  N   UNL     1       3.802   4.278  17.041  0.00  0.00    +0.000 NA
ATOM      2  C   UNL     1       4.283   3.634  15.813  0.00  0.00    +0.000 C 
ATOM      3  C   UNL     1       5.553   4.353  15.417  0.00  0.00    +0.000 C 
ATOM      4  C   UNL     1       6.074   5.046  16.706  0.00  0.00    +0.000 C 
ATOM      5  C   UNL     1       6.143   6.558  16.360  0.00  0.00    +0.000 C 
ATOM      6  C   UNL     1       6.558   7.553  17.438  0.00  0.00    +0.000 C 
ATOM      7  C   UNL     1       7.891   7.269  18.120  0.00  0.00    +0.000 C 
ATOM      8  C   UNL     1       7.811   6.086  19.072  0.00  0.00    +0.000 C 
ATOM      9  C   UNL     1       8.051   4.730  18.427  0.00  0.00    +0.000 C 
ATOM     10  C   UNL     1       7.488   4.498  17.026  0.00  0.00    +0.000 C 
ATOM     11  C   UNL     1       5.021   4.647  17.781  0.00  0.00    +0.000 C 
ENDROOT
BRANCH   1  12
ATOM     12  C   UNL     1       2.901   3.323  17.717  0.00  0.00    +0.000 C 
BRANCH  12  13
ATOM     13  C   UNL     1       1.887   3.803  18.754  0.00  0.00    +0.000 C 
BRANCH  13  18
ATOM     14  C   UNL     1       3.188   2.772  20.636  0.00  0.00    +0.000 A 
ATOM     15  N   UNL     1       2.933   2.384  21.870  0.00  0.00    +0.000 NA
ATOM     16  N   UNL     1       1.589   2.580  22.094  0.00  0.00    +0.000 NA
ATOM     17  C   UNL     1       1.069   3.076  20.997  0.00  0.00    +0.000 A 
ATOM     18  N   UNL     1       2.042   3.205  20.053  0.00  0.00    +0.000 N 
ENDBRANCH  13  18
ENDBRANCH  12  13
ENDBRANCH   1  12
TORSDOF 3
ENDMDL
MODEL 8
REMARK VINA RESULT:      -6.6      2.705      5.374
REMARK  Name = 
REMARK  3 active torsions:
REMARK  status: ('A' for Active; 'I' for Inactive)
REMARK    1  A    between atoms: N_5  and  C_6
REMARK    2  A    between atoms: C_6  and  C_7
REMARK    3  A    between atoms: C_7  and  N_8
REMARK                            x       y       z     vdW  Elec       q    Type
REMARK                         _______ _______ _______ _____ _____    ______ ____
ROOT
ATOM      1  N   UNL     1       3.821   6.161  17.039  0.00  0.00    +0.000 NA
ATOM      2  C   UNL     1       3.708   7.065  18.190  0.00  0.00    +0.000 C 
ATOM      3  C   UNL     1       2.867   6.347  19.221  0.00  0.00    +0.000 C 
ATOM      4  C   UNL     1       2.953   4.836  18.871  0.00  0.00    +0.000 C 
ATOM      5  C   UNL     1       1.485   4.386  18.633  0.00  0.00    +0.000 C 
ATOM      6  C   UNL     1       1.205   2.952  18.199  0.00  0.00    +0.000 C 
ATOM      7  C   UNL     1       1.784   1.865  19.097  0.00  0.00    +0.000 C 
ATOM      8  C   UNL     1       3.293   1.742  18.955  0.00  0.00    +0.000 C 
ATOM      9  C   UNL     1       4.097   2.670  19.853  0.00  0.00    +0.000 C 
ATOM     10  C   UNL     1       3.561   4.082  20.079  0.00  0.00    +0.000 C 
ATOM     11  C   UNL     1       3.879   4.808  17.620  0.00  0.00    +0.000 C 
ENDROOT
BRANCH   1  12
ATOM     12  C   UNL     1       5.005   6.579  16.262  0.00  0.00    +0.000 C 
BRANCH  12  13
ATOM     13  C   UNL     1       6.282   7.038  16.965  0.00  0.00    +0.000 C 
BRANCH  13  18
ATOM     14  C   UNL     1       7.484   4.836  16.983  0.00  0.00    +0.000 A 
ATOM     15  N   UNL     1       8.228   4.163  17.840  0.00  0.00    +0.000 NA
ATOM     16  N   UNL     1       8.271   4.891  19.008  0.00  0.00    +0.000 NA
ATOM     17  C   UNL     1       7.555   5.975  18.830  0.00  0.00    +0.000 A 
ATOM     18  N   UNL     1       7.037   5.974  17.570  0.00  0.00    +0.000 N 
ENDBRANCH  13  18
ENDBRANCH  12  13
ENDBRANCH   1  12
TORSDOF 3
ENDMDL
MODEL 9
REMARK VINA RESULT:      -6.5      3.250      6.584
REMARK  Name = 
REMARK  3 active torsions:
REMARK  status: ('A' for Active; 'I' for Inactive)
REMARK    1  A    between atoms: N_5  and  C_6
REMARK    2  A    between atoms: C_6  and  C_7
REMARK    3  A    between atoms: C_7  and  N_8
REMARK                            x       y       z     vdW  Elec       q    Type
REMARK                         _______ _______ _______ _____ _____    ______ ____
ROOT
ATOM      1  N   UNL     1       5.960   5.031  16.984  0.00  0.00    +0.000 NA
ATOM      2  C   UNL     1       6.520   5.318  18.310  0.00  0.00    +0.000 C 
ATOM      3  C   UNL     1       5.384   5.176  19.298  0.00  0.00    +0.000 C 
ATOM      4  C   UNL     1       4.315   4.291  18.600  0.00  0.00    +0.000 C 
ATOM      5  C   UNL     1       3.024   5.155  18.569  0.00  0.00    +0.000 C 
ATOM      6  C   UNL     1       1.777   4.610  17.884  0.00  0.00    +0.000 C 
ATOM      7  C   UNL     1       1.298   3.247  18.371  0.00  0.00    +0.000 C 
ATOM      8  C   UNL     1       2.199   2.117  17.898  0.00  0.00    +0.000 C 
ATOM      9  C   UNL     1       3.387   1.828  18.802  0.00  0.00    +0.000 C 
ATOM     10  C   UNL     1       4.093   3.017  19.452  0.00  0.00    +0.000 C 
ATOM     11  C   UNL     1       4.952   3.981  17.215  0.00  0.00    +0.000 C 
ENDROOT
BRANCH   1  12
ATOM     12  C   UNL     1       7.083   4.664  16.099  0.00  0.00    +0.000 C 
BRANCH  12  13
ATOM     13  C   UNL     1       7.234   5.300  14.718  0.00  0.00    +0.000 C 
BRANCH  13  18
ATOM     14  C   UNL     1       5.664   3.741  13.534  0.00  0.00    +0.000 A 
ATOM     15  N   UNL     1       5.595   3.184  12.341  0.00  0.00    +0.000 NA
ATOM     16  N   UNL     1       6.722   3.559  11.645  0.00  0.00    +0.000 NA
ATOM     17  C   UNL     1       7.440   4.325  12.430  0.00  0.00    +0.000 A 
ATOM     18  N   UNL     1       6.811   4.458  13.631  0.00  0.00    +0.000 N 
ENDBRANCH  13  18
ENDBRANCH  12  13
ENDBRANCH   1  12
TORSDOF 3
ENDMDL
