MODEL 1
REMARK VINA RESULT:      -9.0      0.000      0.000
REMARK  Name = 
REMARK  9 active torsions:
REMARK  status: ('A' for Active; 'I' for Inactive)
REMARK    1  A    between atoms: C_4  and  O_5
REMARK    2  A    between atoms: N_9  and  C_10
REMARK    3  A    between atoms: C_12  and  C_13
REMARK    4  A    between atoms: C_13  and  N_14
REMARK    5  A    between atoms: N_14  and  C_15
REMARK    6  A    between atoms: C_15  and  C_16
REMARK    7  A    between atoms: C_20  and  O_21
REMARK    8  A    between atoms: C_27  and  O_28
REMARK    9  A    between atoms: C_29  and  O_30
REMARK                            x       y       z     vdW  Elec       q    Type
REMARK                         _______ _______ _______ _____ _____    ______ ____
ROOT
ATOM      1  C   UNL     1       5.574   4.711  17.347  0.00  0.00    +0.000 C 
ATOM      2  O   UNL     1       6.480   5.529  18.122  0.00  0.00    +0.000 OA
ATOM      3  C   UNL     1       7.219   6.395  17.229  0.00  0.00    +0.000 C 
ATOM      4  C   UNL     1       6.854   5.948  15.811  0.00  0.00    +0.000 C 
ATOM      5  C   UNL     1       5.456   5.375  15.976  0.00  0.00    +0.000 C 
ENDROOT
BRANCH   1  13
ATOM      6  N   UNL     1       5.159   1.278  21.342  0.00  0.00    +0.000 N 
ATOM      7  C   UNL     1       4.359   2.193  20.683  0.00  0.00    +0.000 A 
ATOM      8  N   UNL     1       3.085   2.280  21.104  0.00  0.00    +0.000 NA
ATOM      9  C   UNL     1       2.278   3.156  20.473  0.00  0.00    +0.000 A 
ATOM     10  C   UNL     1       2.743   3.934  19.419  0.00  0.00    +0.000 A 
ATOM     11  N   UNL     1       2.182   4.895  18.604  0.00  0.00    +0.000 NA
ATOM     12  C   UNL     1       3.159   5.278  17.809  0.00  0.00    +0.000 A 
ATOM     13  N   UNL     1       4.314   4.582  18.047  0.00  0.00    +0.000 N 
ATOM     14  C   UNL     1       4.070   3.726  19.087  0.00  0.00    +0.000 A 
ATOM     15  N   UNL     1       4.925   2.870  19.670  0.00  0.00    +0.000 NA
ATOM     16  H   UNL     1       4.584   0.571  21.779  0.00  0.00    +0.000 HD
ATOM     17  H   UNL     1       5.893   0.959  20.727  0.00  0.00    +0.000 HD
BRANCH   9  18
ATOM     18  O   UNL     1       1.004   3.209  20.958  0.00  0.00    +0.000 OA
ATOM     19  H   UNL     1       0.919   2.326  21.349  0.00  0.00    +0.000 HD
ENDBRANCH   9  18
ENDBRANCH   1  13
BRANCH   4  20
ATOM     20  O   UNL     1       7.717   4.891  15.347  0.00  0.00    +0.000 OA
ATOM     21  H   UNL     1       8.511   4.853  15.913  0.00  0.00    +0.000 HD
ENDBRANCH   4  20
BRANCH   5  22
ATOM     22  O   UNL     1       5.139   4.474  14.919  0.00  0.00    +0.000 OA
ATOM     23  H   UNL     1       5.684   3.672  15.065  0.00  0.00    +0.000 HD
ENDBRANCH   5  22
BRANCH   3  24
ATOM     24  C   UNL     1       6.864   7.878  17.485  0.00  0.00    +0.000 C 
BRANCH  24  25
ATOM     25  N   UNL     1       8.052   8.743  17.446  0.00  0.00    +0.000 NA
ATOM     26  H   UNL     1       7.813   9.654  17.054  0.00  0.00    +0.000 HD
BRANCH  25  27
ATOM     27  C   UNL     1       8.625   8.932  18.777  0.00  0.00    +0.000 C 
BRANCH  27  28
ATOM     28  C   UNL     1       9.320  10.258  18.906  0.00  0.00    +0.000 C 
ATOM     29  C   UNL     1       9.820  10.922  17.848  0.00  0.00    +0.000 C 
ATOM     30  C   UNL     1      10.390  12.245  18.093  0.00  0.00    +0.000 A 
ATOM     31  C   UNL     1      10.572  13.170  17.061  0.00  0.00    +0.000 A 
ATOM     32  C   UNL     1      11.144  14.408  17.350  0.00  0.00    +0.000 A 
ATOM     33  C   UNL     1      11.591  14.713  18.633  0.00  0.00    +0.000 A 
ATOM     34  C   UNL     1      11.409  13.793  19.665  0.00  0.00    +0.000 A 
ATOM     35  C   UNL     1      10.768  12.585  19.399  0.00  0.00    +0.000 A 
ATOM     36  O   UNL     1      10.536  11.743  20.456  0.00  0.00    +0.000 OA
ATOM     37  C   UNL     1       9.370  10.914  20.266  0.00  0.00    +0.000 C 
BRANCH  32  38
ATOM     38  O   UNL     1      11.274  15.367  16.390  0.00  0.00    +0.000 OA
ATOM     39  H   UNL     1      12.220  15.556  16.267  0.00  0.00    +0.000 HD
ENDBRANCH  32  38
ENDBRANCH  27  28
ENDBRANCH  25  27
ENDBRANCH  24  25
ENDBRANCH   3  24
TORSDOF 9
ENDMDL
MODEL 2
REMARK VINA RESULT:      -9.0      4.311      7.509
REMARK  Name = 
REMARK  9 active torsions:
REMARK  status: ('A' for Active; 'I' for Inactive)
REMARK    1  A    between atoms: C_4  and  O_5
REMARK    2  A    between atoms: N_9  and  C_10
REMARK    3  A    between atoms: C_12  and  C_13
REMARK    4  A    between atoms: C_13  and  N_14
REMARK    5  A    between atoms: N_14  and  C_15
REMARK    6  A    between atoms: C_15  and  C_16
REMARK    7  A    between atoms: C_20  and  O_21
REMARK    8  A    between atoms: C_27  and  O_28
REMARK    9  A    between atoms: C_29  and  O_30
REMARK                            x       y       z     vdW  Elec       q    Type
REMARK                         _______ _______ _______ _____ _____    ______ ____
ROOT
ATOM      1  C   UNL     1       4.497   3.571  17.411  0.00  0.00    +0.000 C 
ATOM      2  O   UNL     1       3.158   3.614  16.870  0.00  0.00    +0.000 OA
ATOM      3  C   UNL     1       2.242   3.028  17.826  0.00  0.00    +0.000 C 
ATOM      4  C   UNL     1       3.113   2.443  18.941  0.00  0.00    +0.000 C 
ATOM      5  C   UNL     1       4.351   3.324  18.912  0.00  0.00    +0.000 C 
ENDROOT
BRANCH   1  13
ATOM      6  N   UNL     1       8.432   5.233  20.521  0.00  0.00    +0.000 N 
ATOM      7  C   UNL     1       7.788   5.641  19.368  0.00  0.00    +0.000 A 
ATOM      8  N   UNL     1       8.210   6.800  18.830  0.00  0.00    +0.000 NA
ATOM      9  C   UNL     1       7.593   7.229  17.712  0.00  0.00    +0.000 A 
ATOM     10  C   UNL     1       6.553   6.506  17.139  0.00  0.00    +0.000 A 
ATOM     11  N   UNL     1       5.754   6.674  16.027  0.00  0.00    +0.000 NA
ATOM     12  C   UNL     1       4.967   5.619  16.013  0.00  0.00    +0.000 A 
ATOM     13  N   UNL     1       5.194   4.797  17.084  0.00  0.00    +0.000 N 
ATOM     14  C   UNL     1       6.219   5.343  17.809  0.00  0.00    +0.000 A 
ATOM     15  N   UNL     1       6.788   4.861  18.927  0.00  0.00    +0.000 NA
ATOM     16  H   UNL     1       8.857   6.028  20.978  0.00  0.00    +0.000 HD
ATOM     17  H   UNL     1       7.813   4.660  21.075  0.00  0.00    +0.000 HD
BRANCH   9  18
ATOM     18  O   UNL     1       8.077   8.400  17.208  0.00  0.00    +0.000 OA
ATOM     19  H   UNL     1       7.617   8.439  16.355  0.00  0.00    +0.000 HD
ENDBRANCH   9  18
ENDBRANCH   1  13
BRANCH   4  20
ATOM     20  O   UNL     1       3.519   1.093  18.645  0.00  0.00    +0.000 OA
ATOM     21  H   UNL     1       3.378   0.534  19.433  0.00  0.00    +0.000 HD
ENDBRANCH   4  20
BRANCH   5  22
ATOM     22  O   UNL     1       5.467   2.665  19.504  0.00  0.00    +0.000 OA
ATOM     23  H   UNL     1       6.206   3.309  19.494  0.00  0.00    +0.000 HD
ENDBRANCH   5  22
BRANCH   3  24
ATOM     24  C   UNL     1       1.248   4.088  18.354  0.00  0.00    +0.000 C 
BRANCH  24  25
ATOM     25  N   UNL     1       1.749   5.457  18.164  0.00  0.00    +0.000 NA
ATOM     26  H   UNL     1       0.991   6.074  17.868  0.00  0.00    +0.000 HD
BRANCH  25  27
ATOM     27  C   UNL     1       2.344   5.987  19.389  0.00  0.00    +0.000 C 
BRANCH  27  28
ATOM     28  C   UNL     1       1.812   7.352  19.726  0.00  0.00    +0.000 C 
ATOM     29  C   UNL     1       1.752   8.350  18.826  0.00  0.00    +0.000 C 
ATOM     30  C   UNL     1       1.128   9.602  19.252  0.00  0.00    +0.000 A 
ATOM     31  C   UNL     1       0.660  10.541  18.330  0.00  0.00    +0.000 A 
ATOM     32  C   UNL     1       0.097  11.729  18.795  0.00  0.00    +0.000 A 
ATOM     33  C   UNL     1       0.049  12.019  20.156  0.00  0.00    +0.000 A 
ATOM     34  C   UNL     1       0.513  11.083  21.079  0.00  0.00    +0.000 A 
ATOM     35  C   UNL     1       1.006   9.861  20.624  0.00  0.00    +0.000 A 
ATOM     36  O   UNL     1       1.377   8.936  21.566  0.00  0.00    +0.000 OA
ATOM     37  C   UNL     1       1.233   7.577  21.103  0.00  0.00    +0.000 C 
BRANCH  32  38
ATOM     38  O   UNL     1      -0.438  12.641  17.935  0.00  0.00    +0.000 OA
ATOM     39  H   UNL     1      -1.368  12.788  18.179  0.00  0.00    +0.000 HD
ENDBRANCH  32  38
ENDBRANCH  27  28
ENDBRANCH  25  27
ENDBRANCH  24  25
ENDBRANCH   3  24
TORSDOF 9
ENDMDL
MODEL 3
REMARK VINA RESULT:      -8.9      5.165      7.901
REMARK  Name = 
REMARK  9 active torsions:
REMARK  status: ('A' for Active; 'I' for Inactive)
REMARK    1  A    between atoms: C_4  and  O_5
REMARK    2  A    between atoms: N_9  and  C_10
REMARK    3  A    between atoms: C_12  and  C_13
REMARK    4  A    between atoms: C_13  and  N_14
REMARK    5  A    between atoms: N_14  and  C_15
REMARK    6  A    between atoms: C_15  and  C_16
REMARK    7  A    between atoms: C_20  and  O_21
REMARK    8  A    between atoms: C_27  and  O_28
REMARK    9  A    between atoms: C_29  and  O_30
REMARK                            x       y       z     vdW  Elec       q    Type
REMARK                         _______ _______ _______ _____ _____    ______ ____
ROOT
ATOM      1  C   UNL     1       3.304   3.682  18.127  0.00  0.00    +0.000 C 
ATOM      2  O   UNL     1       2.094   4.414  18.427  0.00  0.00    +0.000 OA
ATOM      3  C   UNL     1       1.328   3.680  19.412  0.00  0.00    +0.000 C 
ATOM      4  C   UNL     1       2.044   2.338  19.589  0.00  0.00    +0.000 C 
ATOM      5  C   UNL     1       3.490   2.670  19.256  0.00  0.00    +0.000 C 
ENDROOT
BRANCH   1  13
ATOM      6  N   UNL     1       6.274   3.512  13.760  0.00  0.00    +0.000 N 
ATOM      7  C   UNL     1       6.208   4.240  14.933  0.00  0.00    +0.000 A 
ATOM      8  N   UNL     1       7.153   5.183  15.101  0.00  0.00    +0.000 NA
ATOM      9  C   UNL     1       7.122   5.901  16.241  0.00  0.00    +0.000 A 
ATOM     10  C   UNL     1       6.154   5.671  17.213  0.00  0.00    +0.000 A 
ATOM     11  N   UNL     1       5.864   6.227  18.441  0.00  0.00    +0.000 NA
ATOM     12  C   UNL     1       4.797   5.580  18.861  0.00  0.00    +0.000 A 
ATOM     13  N   UNL     1       4.408   4.607  17.981  0.00  0.00    +0.000 N 
ATOM     14  C   UNL     1       5.259   4.661  16.909  0.00  0.00    +0.000 A 
ATOM     15  N   UNL     1       5.236   3.907  15.798  0.00  0.00    +0.000 NA
ATOM     16  H   UNL     1       7.211   3.546  13.387  0.00  0.00    +0.000 HD
ATOM     17  H   UNL     1       5.865   2.600  13.900  0.00  0.00    +0.000 HD
BRANCH   9  18
ATOM     18  O   UNL     1       8.095   6.852  16.343  0.00  0.00    +0.000 OA
ATOM     19  H   UNL     1       8.677   6.599  15.609  0.00  0.00    +0.000 HD
ENDBRANCH   9  18
ENDBRANCH   1  13
BRANCH   4  20
ATOM     20  O   UNL     1       1.583   1.359  18.638  0.00  0.00    +0.000 OA
ATOM     21  H   UNL     1       1.332   0.544  19.112  0.00  0.00    +0.000 HD
ENDBRANCH   4  20
BRANCH   5  22
ATOM     22  O   UNL     1       4.214   1.503  18.878  0.00  0.00    +0.000 OA
ATOM     23  H   UNL     1       4.348   0.982  19.698  0.00  0.00    +0.000 HD
ENDBRANCH   5  22
BRANCH   3  24
ATOM     24  C   UNL     1       1.234   4.473  20.736  0.00  0.00    +0.000 C 
BRANCH  24  25
ATOM     25  N   UNL     1       0.797   5.859  20.519  0.00  0.00    +0.000 NA
ATOM     26  H   UNL     1      -0.007   6.074  21.109  0.00  0.00    +0.000 HD
BRANCH  25  27
ATOM     27  C   UNL     1       1.867   6.813  20.804  0.00  0.00    +0.000 C 
BRANCH  27  28
ATOM     28  C   UNL     1       1.384   8.235  20.736  0.00  0.00    +0.000 C 
ATOM     29  C   UNL     1       1.188   8.880  19.573  0.00  0.00    +0.000 C 
ATOM     30  C   UNL     1       0.627  10.229  19.638  0.00  0.00    +0.000 A 
ATOM     31  C   UNL     1       0.026  10.830  18.530  0.00  0.00    +0.000 A 
ATOM     32  C   UNL     1      -0.469  12.128  18.645  0.00  0.00    +0.000 A 
ATOM     33  C   UNL     1      -0.318  12.855  19.823  0.00  0.00    +0.000 A 
ATOM     34  C   UNL     1       0.281  12.257  20.931  0.00  0.00    +0.000 A 
ATOM     35  C   UNL     1       0.707  10.933  20.847  0.00  0.00    +0.000 A 
ATOM     36  O   UNL     1       1.216  10.357  21.983  0.00  0.00    +0.000 OA
ATOM     37  C   UNL     1       1.012   8.929  22.026  0.00  0.00    +0.000 C 
BRANCH  32  38
ATOM     38  O   UNL     1      -1.128  12.727  17.613  0.00  0.00    +0.000 OA
ATOM     39  H   UNL     1      -1.684  12.061  17.173  0.00  0.00    +0.000 HD
ENDBRANCH  32  38
ENDBRANCH  27  28
ENDBRANCH  25  27
ENDBRANCH  24  25
ENDBRANCH   3  24
TORSDOF 9
ENDMDL
MODEL 4
REMARK VINA RESULT:      -8.9      5.859      8.293
REMARK  Name = 
REMARK  9 active torsions:
REMARK  status: ('A' for Active; 'I' for Inactive)
REMARK    1  A    between atoms: C_4  and  O_5
REMARK    2  A    between atoms: N_9  and  C_10
REMARK    3  A    between atoms: C_12  and  C_13
REMARK    4  A    between atoms: C_13  and  N_14
REMARK    5  A    between atoms: N_14  and  C_15
REMARK    6  A    between atoms: C_15  and  C_16
REMARK    7  A    between atoms: C_20  and  O_21
REMARK    8  A    between atoms: C_27  and  O_28
REMARK    9  A    between atoms: C_29  and  O_30
REMARK                            x       y       z     vdW  Elec       q    Type
REMARK                         _______ _______ _______ _____ _____    ______ ____
ROOT
ATOM      1  C   UNL     1       4.440   3.200  17.244  0.00  0.00    +0.000 C 
ATOM      2  O   UNL     1       3.182   3.687  16.726  0.00  0.00    +0.000 OA
ATOM      3  C   UNL     1       2.197   3.677  17.787  0.00  0.00    +0.000 C 
ATOM      4  C   UNL     1       2.865   2.978  18.975  0.00  0.00    +0.000 C 
ATOM      5  C   UNL     1       4.341   3.274  18.766  0.00  0.00    +0.000 C 
ENDROOT
BRANCH   1  13
ATOM      6  N   UNL     1       5.344   3.055  12.040  0.00  0.00    +0.000 N 
ATOM      7  C   UNL     1       5.873   3.667  13.160  0.00  0.00    +0.000 A 
ATOM      8  N   UNL     1       6.946   4.453  12.957  0.00  0.00    +0.000 NA
ATOM      9  C   UNL     1       7.491   5.055  14.033  0.00  0.00    +0.000 A 
ATOM     10  C   UNL     1       6.970   4.863  15.307  0.00  0.00    +0.000 A 
ATOM     11  N   UNL     1       7.289   5.332  16.565  0.00  0.00    +0.000 NA
ATOM     12  C   UNL     1       6.389   4.798  17.364  0.00  0.00    +0.000 A 
ATOM     13  N   UNL     1       5.528   3.976  16.688  0.00  0.00    +0.000 N 
ATOM     14  C   UNL     1       5.875   4.018  15.365  0.00  0.00    +0.000 A 
ATOM     15  N   UNL     1       5.287   3.386  14.336  0.00  0.00    +0.000 NA
ATOM     16  H   UNL     1       6.046   2.997  11.316  0.00  0.00    +0.000 HD
ATOM     17  H   UNL     1       4.883   2.197  12.304  0.00  0.00    +0.000 HD
BRANCH   9  18
ATOM     18  O   UNL     1       8.564   5.850  13.758  0.00  0.00    +0.000 OA
ATOM     19  H   UNL     1       8.886   5.450  12.936  0.00  0.00    +0.000 HD
ENDBRANCH   9  18
ENDBRANCH   1  13
BRANCH   4  20
ATOM     20  O   UNL     1       2.685   1.550  18.923  0.00  0.00    +0.000 OA
ATOM     21  H   UNL     1       1.941   1.341  18.326  0.00  0.00    +0.000 HD
ENDBRANCH   4  20
BRANCH   5  22
ATOM     22  O   UNL     1       5.158   2.328  19.449  0.00  0.00    +0.000 OA
ATOM     23  H   UNL     1       5.701   2.839  20.086  0.00  0.00    +0.000 HD
ENDBRANCH   5  22
BRANCH   3  24
ATOM     24  C   UNL     1       1.746   5.115  18.131  0.00  0.00    +0.000 C 
BRANCH  24  25
ATOM     25  N   UNL     1       2.594   6.128  17.487  0.00  0.00    +0.000 NA
ATOM     26  H   UNL     1       2.053   6.662  16.806  0.00  0.00    +0.000 HD
BRANCH  25  27
ATOM     27  C   UNL     1       3.172   7.049  18.464  0.00  0.00    +0.000 C 
BRANCH  27  28
ATOM     28  C   UNL     1       2.188   8.103  18.890  0.00  0.00    +0.000 C 
ATOM     29  C   UNL     1       1.680   8.162  20.133  0.00  0.00    +0.000 C 
ATOM     30  C   UNL     1       0.805   9.290  20.448  0.00  0.00    +0.000 A 
ATOM     31  C   UNL     1       0.542   9.671  21.766  0.00  0.00    +0.000 A 
ATOM     32  C   UNL     1      -0.321  10.740  22.007  0.00  0.00    +0.000 A 
ATOM     33  C   UNL     1      -0.970  11.390  20.961  0.00  0.00    +0.000 A 
ATOM     34  C   UNL     1      -0.709  11.013  19.644  0.00  0.00    +0.000 A 
ATOM     35  C   UNL     1       0.212   9.998  19.394  0.00  0.00    +0.000 A 
ATOM     36  O   UNL     1       0.501   9.712  18.084  0.00  0.00    +0.000 OA
ATOM     37  C   UNL     1       1.837   9.195  17.906  0.00  0.00    +0.000 C 
BRANCH  32  38
ATOM     38  O   UNL     1      -0.549  11.192  23.272  0.00  0.00    +0.000 OA
ATOM     39  H   UNL     1      -1.010  12.047  23.217  0.00  0.00    +0.000 HD
ENDBRANCH  32  38
ENDBRANCH  27  28
ENDBRANCH  25  27
ENDBRANCH  24  25
ENDBRANCH   3  24
TORSDOF 9
ENDMDL
MODEL 5
REMARK VINA RESULT:      -8.8      4.810      7.990
REMARK  Name = 
REMARK  9 active torsions:
REMARK  status: ('A' for Active; 'I' for Inactive)
REMARK    1  A    between atoms: C_4  and  O_5
REMARK    2  A    between atoms: N_9  and  C_10
REMARK    3  A    between atoms: C_12  and  C_13
REMARK    4  A    between atoms: C_13  and  N_14
REMARK    5  A    between atoms: N_14  and  C_15
REMARK    6  A    between atoms: C_15  and  C_16
REMARK    7  A    between atoms: C_20  and  O_21
REMARK    8  A    between atoms: C_27  and  O_28
REMARK    9  A    between atoms: C_29  and  O_30
REMARK                            x       y       z     vdW  Elec       q    Type
REMARK                         _______ _______ _______ _____ _____    ______ ____
ROOT
ATOM      1  C   UNL     1       3.773   4.261  18.172  0.00  0.00    +0.000 C 
ATOM      2  O   UNL     1       2.459   4.797  18.450  0.00  0.00    +0.000 OA
ATOM      3  C   UNL     1       1.957   4.211  19.674  0.00  0.00    +0.000 C 
ATOM      4  C   UNL     1       2.964   3.126  20.066  0.00  0.00    +0.000 C 
ATOM      5  C   UNL     1       4.269   3.632  19.473  0.00  0.00    +0.000 C 
ENDROOT
BRANCH   1  13
ATOM      6  N   UNL     1       8.379   5.242  20.566  0.00  0.00    +0.000 N 
ATOM      7  C   UNL     1       7.656   5.720  19.490  0.00  0.00    +0.000 A 
ATOM      8  N   UNL     1       8.201   6.750  18.817  0.00  0.00    +0.000 NA
ATOM      9  C   UNL     1       7.513   7.245  17.770  0.00  0.00    +0.000 A 
ATOM     10  C   UNL     1       6.280   6.718  17.403  0.00  0.00    +0.000 A 
ATOM     11  N   UNL     1       5.366   6.993  16.407  0.00  0.00    +0.000 NA
ATOM     12  C   UNL     1       4.401   6.114  16.580  0.00  0.00    +0.000 A 
ATOM     13  N   UNL     1       4.630   5.310  17.664  0.00  0.00    +0.000 N 
ATOM     14  C   UNL     1       5.838   5.673  18.195  0.00  0.00    +0.000 A 
ATOM     15  N   UNL     1       6.470   5.135  19.252  0.00  0.00    +0.000 NA
ATOM     16  H   UNL     1       9.011   5.956  20.900  0.00  0.00    +0.000 HD
ATOM     17  H   UNL     1       7.755   4.826  21.242  0.00  0.00    +0.000 HD
BRANCH   9  18
ATOM     18  O   UNL     1       8.126   8.275  17.120  0.00  0.00    +0.000 OA
ATOM     19  H   UNL     1       8.734   8.591  17.807  0.00  0.00    +0.000 HD
ENDBRANCH   9  18
ENDBRANCH   1  13
BRANCH   4  20
ATOM     20  O   UNL     1       2.654   1.863  19.446  0.00  0.00    +0.000 OA
ATOM     21  H   UNL     1       3.448   1.524  18.991  0.00  0.00    +0.000 HD
ENDBRANCH   4  20
BRANCH   5  22
ATOM     22  O   UNL     1       5.199   2.570  19.289  0.00  0.00    +0.000 OA
ATOM     23  H   UNL     1       4.765   1.922  18.695  0.00  0.00    +0.000 HD
ENDBRANCH   5  22
BRANCH   3  24
ATOM     24  C   UNL     1       1.799   5.287  20.773  0.00  0.00    +0.000 C 
BRANCH  24  25
ATOM     25  N   UNL     1       1.923   6.649  20.233  0.00  0.00    +0.000 NA
ATOM     26  H   UNL     1       1.132   6.862  19.625  0.00  0.00    +0.000 HD
BRANCH  25  27
ATOM     27  C   UNL     1       1.990   7.647  21.299  0.00  0.00    +0.000 C 
BRANCH  27  28
ATOM     28  C   UNL     1       1.170   8.865  20.977  0.00  0.00    +0.000 C 
ATOM     29  C   UNL     1       0.956   9.284  19.718  0.00  0.00    +0.000 C 
ATOM     30  C   UNL     1       0.066  10.429  19.533  0.00  0.00    +0.000 A 
ATOM     31  C   UNL     1      -0.533  10.703  18.301  0.00  0.00    +0.000 A 
ATOM     32  C   UNL     1      -1.353  11.824  18.177  0.00  0.00    +0.000 A 
ATOM     33  C   UNL     1      -1.536  12.704  19.240  0.00  0.00    +0.000 A 
ATOM     34  C   UNL     1      -0.941  12.432  20.472  0.00  0.00    +0.000 A 
ATOM     35  C   UNL     1      -0.183  11.273  20.624  0.00  0.00    +0.000 A 
ATOM     36  O   UNL     1       0.318  11.000  21.871  0.00  0.00    +0.000 OA
ATOM     37  C   UNL     1       0.482   9.587  22.113  0.00  0.00    +0.000 C 
BRANCH  32  38
ATOM     38  O   UNL     1      -2.016  12.090  17.016  0.00  0.00    +0.000 OA
ATOM     39  H   UNL     1      -1.747  11.435  16.349  0.00  0.00    +0.000 HD
ENDBRANCH  32  38
ENDBRANCH  27  28
ENDBRANCH  25  27
ENDBRANCH  24  25
ENDBRANCH   3  24
TORSDOF 9
ENDMDL
MODEL 6
REMARK VINA RESULT:      -8.7      4.720      7.977
REMARK  Name = 
REMARK  9 active torsions:
REMARK  status: ('A' for Active; 'I' for Inactive)
REMARK    1  A    between atoms: C_4  and  O_5
REMARK    2  A    between atoms: N_9  and  C_10
REMARK    3  A    between atoms: C_12  and  C_13
REMARK    4  A    between atoms: C_13  and  N_14
REMARK    5  A    between atoms: N_14  and  C_15
REMARK    6  A    between atoms: C_15  and  C_16
REMARK    7  A    between atoms: C_20  and  O_21
REMARK    8  A    between atoms: C_27  and  O_28
REMARK    9  A    between atoms: C_29  and  O_30
REMARK                            x       y       z     vdW  Elec       q    Type
REMARK                         _______ _______ _______ _____ _____    ______ ____
ROOT
ATOM      1  C   UNL     1       3.822   4.199  18.083  0.00  0.00    +0.000 C 
ATOM      2  O   UNL     1       2.476   4.704  18.230  0.00  0.00    +0.000 OA
ATOM      3  C   UNL     1       1.897   4.164  19.441  0.00  0.00    +0.000 C 
ATOM      4  C   UNL     1       2.900   3.134  19.966  0.00  0.00    +0.000 C 
ATOM      5  C   UNL     1       4.232   3.653  19.449  0.00  0.00    +0.000 C 
ENDROOT
BRANCH   1  13
ATOM      6  N   UNL     1       8.344   5.251  20.603  0.00  0.00    +0.000 N 
ATOM      7  C   UNL     1       7.650   5.709  19.500  0.00  0.00    +0.000 A 
ATOM      8  N   UNL     1       8.207   6.735  18.830  0.00  0.00    +0.000 NA
ATOM      9  C   UNL     1       7.547   7.210  17.756  0.00  0.00    +0.000 A 
ATOM     10  C   UNL     1       6.330   6.668  17.359  0.00  0.00    +0.000 A 
ATOM     11  N   UNL     1       5.446   6.923  16.332  0.00  0.00    +0.000 NA
ATOM     12  C   UNL     1       4.483   6.037  16.486  0.00  0.00    +0.000 A 
ATOM     13  N   UNL     1       4.685   5.249  17.587  0.00  0.00    +0.000 N 
ATOM     14  C   UNL     1       5.874   5.629  18.150  0.00  0.00    +0.000 A 
ATOM     15  N   UNL     1       6.478   5.110  19.233  0.00  0.00    +0.000 NA
ATOM     16  H   UNL     1       8.960   5.975  20.947  0.00  0.00    +0.000 HD
ATOM     17  H   UNL     1       7.704   4.839  21.265  0.00  0.00    +0.000 HD
BRANCH   9  18
ATOM     18  O   UNL     1       8.172   8.238  17.112  0.00  0.00    +0.000 OA
ATOM     19  H   UNL     1       8.263   7.868  16.220  0.00  0.00    +0.000 HD
ENDBRANCH   9  18
ENDBRANCH   1  13
BRANCH   4  20
ATOM     20  O   UNL     1       2.677   1.832  19.391  0.00  0.00    +0.000 OA
ATOM     21  H   UNL     1       2.726   1.157  20.094  0.00  0.00    +0.000 HD
ENDBRANCH   4  20
BRANCH   5  22
ATOM     22  O   UNL     1       5.205   2.614  19.393  0.00  0.00    +0.000 OA
ATOM     23  H   UNL     1       5.883   2.903  18.746  0.00  0.00    +0.000 HD
ENDBRANCH   5  22
BRANCH   3  24
ATOM     24  C   UNL     1       1.621   5.288  20.466  0.00  0.00    +0.000 C 
BRANCH  24  25
ATOM     25  N   UNL     1       2.627   6.357  20.397  0.00  0.00    +0.000 NA
ATOM     26  H   UNL     1       3.540   5.969  20.156  0.00  0.00    +0.000 HD
BRANCH  25  27
ATOM     27  C   UNL     1       2.266   7.373  19.410  0.00  0.00    +0.000 C 
BRANCH  27  28
ATOM     28  C   UNL     1       1.485   8.500  20.026  0.00  0.00    +0.000 C 
ATOM     29  C   UNL     1       0.862   9.439  19.292  0.00  0.00    +0.000 C 
ATOM     30  C   UNL     1       0.058  10.428  20.007  0.00  0.00    +0.000 A 
ATOM     31  C   UNL     1      -0.923  11.185  19.362  0.00  0.00    +0.000 A 
ATOM     32  C   UNL     1      -1.641  12.132  20.091  0.00  0.00    +0.000 A 
ATOM     33  C   UNL     1      -1.355  12.378  21.430  0.00  0.00    +0.000 A 
ATOM     34  C   UNL     1      -0.377  11.624  22.078  0.00  0.00    +0.000 A 
ATOM     35  C   UNL     1       0.290  10.623  21.376  0.00  0.00    +0.000 A 
ATOM     36  O   UNL     1       1.186   9.849  22.069  0.00  0.00    +0.000 OA
ATOM     37  C   UNL     1       1.314   8.518  21.528  0.00  0.00    +0.000 C 
BRANCH  32  38
ATOM     38  O   UNL     1      -2.656  12.841  19.520  0.00  0.00    +0.000 OA
ATOM     39  H   UNL     1      -3.270  13.120  20.221  0.00  0.00    +0.000 HD
ENDBRANCH  32  38
ENDBRANCH  27  28
ENDBRANCH  25  27
ENDBRANCH  24  25
ENDBRANCH   3  24
TORSDOF 9
ENDMDL
MODEL 7
REMARK VINA RESULT:      -8.7      1.167      1.209
REMARK  Name = 
REMARK  9 active torsions:
REMARK  status: ('A' for Active; 'I' for Inactive)
REMARK    1  A    between atoms: C_4  and  O_5
REMARK    2  A    between atoms: N_9  and  C_10
REMARK    3  A    between atoms: C_12  and  C_13
REMARK    4  A    between atoms: C_13  and  N_14
REMARK    5  A    between atoms: N_14  and  C_15
REMARK    6  A    between atoms: C_15  and  C_16
REMARK    7  A    between atoms: C_20  and  O_21
REMARK    8  A    between atoms: C_27  and  O_28
REMARK    9  A    between atoms: C_29  and  O_30
REMARK                            x       y       z     vdW  Elec       q    Type
REMARK                         _______ _______ _______ _____ _____    ______ ____
ROOT
ATOM      1  C   UNL     1       5.840   4.890  18.555  0.00  0.00    +0.000 C 
ATOM      2  O   UNL     1       6.567   6.072  18.962  0.00  0.00    +0.000 OA
ATOM      3  C   UNL     1       7.424   6.497  17.876  0.00  0.00    +0.000 C 
ATOM      4  C   UNL     1       7.332   5.401  16.811  0.00  0.00    +0.000 C 
ATOM      5  C   UNL     1       5.946   4.817  17.033  0.00  0.00    +0.000 C 
ENDROOT
BRANCH   1  13
ATOM      6  N   UNL     1       2.992   0.460  18.974  0.00  0.00    +0.000 N 
ATOM      7  C   UNL     1       2.834   1.812  19.212  0.00  0.00    +0.000 A 
ATOM      8  N   UNL     1       1.626   2.199  19.660  0.00  0.00    +0.000 NA
ATOM      9  C   UNL     1       1.438   3.513  19.890  0.00  0.00    +0.000 A 
ATOM     10  C   UNL     1       2.453   4.437  19.665  0.00  0.00    +0.000 A 
ATOM     11  N   UNL     1       2.567   5.804  19.809  0.00  0.00    +0.000 NA
ATOM     12  C   UNL     1       3.804   6.080  19.451  0.00  0.00    +0.000 A 
ATOM     13  N   UNL     1       4.481   4.962  19.046  0.00  0.00    +0.000 N 
ATOM     14  C   UNL     1       3.634   3.895  19.191  0.00  0.00    +0.000 A 
ATOM     15  N   UNL     1       3.886   2.600  18.937  0.00  0.00    +0.000 NA
ATOM     16  H   UNL     1       2.090   0.029  18.823  0.00  0.00    +0.000 HD
ATOM     17  H   UNL     1       3.695   0.316  18.264  0.00  0.00    +0.000 HD
BRANCH   9  18
ATOM     18  O   UNL     1       0.199   3.839  20.358  0.00  0.00    +0.000 OA
ATOM     19  H   UNL     1      -0.365   3.321  19.764  0.00  0.00    +0.000 HD
ENDBRANCH   9  18
ENDBRANCH   1  13
BRANCH   4  20
ATOM     20  O   UNL     1       8.297   4.355  17.038  0.00  0.00    +0.000 OA
ATOM     21  H   UNL     1       8.172   3.991  17.935  0.00  0.00    +0.000 HD
ENDBRANCH   4  20
BRANCH   5  22
ATOM     22  O   UNL     1       5.852   3.498  16.505  0.00  0.00    +0.000 OA
ATOM     23  H   UNL     1       6.176   3.545  15.582  0.00  0.00    +0.000 HD
ENDBRANCH   5  22
BRANCH   3  24
ATOM     24  C   UNL     1       6.983   7.877  17.337  0.00  0.00    +0.000 C 
BRANCH  24  25
ATOM     25  N   UNL     1       8.075   8.860  17.374  0.00  0.00    +0.000 NA
ATOM     26  H   UNL     1       7.735   9.779  17.090  0.00  0.00    +0.000 HD
BRANCH  25  27
ATOM     27  C   UNL     1       8.663   8.960  18.709  0.00  0.00    +0.000 C 
BRANCH  27  28
ATOM     28  C   UNL     1       9.393  10.260  18.903  0.00  0.00    +0.000 C 
ATOM     29  C   UNL     1      10.010  10.904  17.896  0.00  0.00    +0.000 C 
ATOM     30  C   UNL     1      10.605  12.205  18.196  0.00  0.00    +0.000 A 
ATOM     31  C   UNL     1      10.913  13.122  17.188  0.00  0.00    +0.000 A 
ATOM     32  C   UNL     1      11.504  14.338  17.532  0.00  0.00    +0.000 A 
ATOM     33  C   UNL     1      11.845  14.626  18.850  0.00  0.00    +0.000 A 
ATOM     34  C   UNL     1      11.537  13.713  19.858  0.00  0.00    +0.000 A 
ATOM     35  C   UNL     1      10.877  12.530  19.532  0.00  0.00    +0.000 A 
ATOM     36  O   UNL     1      10.520  11.697  20.561  0.00  0.00    +0.000 OA
ATOM     37  C   UNL     1       9.346  10.913  20.265  0.00  0.00    +0.000 C 
BRANCH  32  38
ATOM     38  O   UNL     1      11.755  15.292  16.590  0.00  0.00    +0.000 OA
ATOM     39  H   UNL     1      12.110  14.857  15.797  0.00  0.00    +0.000 HD
ENDBRANCH  32  38
ENDBRANCH  27  28
ENDBRANCH  25  27
ENDBRANCH  24  25
ENDBRANCH   3  24
TORSDOF 9
ENDMDL
MODEL 8
REMARK VINA RESULT:      -8.7      5.781      8.265
REMARK  Name = 
REMARK  9 active torsions:
REMARK  status: ('A' for Active; 'I' for Inactive)
REMARK    1  A    between atoms: C_4  and  O_5
REMARK    2  A    between atoms: N_9  and  C_10
REMARK    3  A    between atoms: C_12  and  C_13
REMARK    4  A    between atoms: C_13  and  N_14
REMARK    5  A    between atoms: N_14  and  C_15
REMARK    6  A    between atoms: C_15  and  C_16
REMARK    7  A    between atoms: C_20  and  O_21
REMARK    8  A    between atoms: C_27  and  O_28
REMARK    9  A    between atoms: C_29  and  O_30
REMARK                            x       y       z     vdW  Elec       q    Type
REMARK                         _______ _______ _______ _____ _____    ______ ____
ROOT
ATOM      1  C   UNL     1       4.507   3.296  17.180  0.00  0.00    +0.000 C 
ATOM      2  O   UNL     1       3.251   3.769  16.644  0.00  0.00    +0.000 OA
ATOM      3  C   UNL     1       2.259   3.779  17.698  0.00  0.00    +0.000 C 
ATOM      4  C   UNL     1       2.920   3.108  18.905  0.00  0.00    +0.000 C 
ATOM      5  C   UNL     1       4.397   3.403  18.700  0.00  0.00    +0.000 C 
ENDROOT
BRANCH   1  13
ATOM      6  N   UNL     1       5.421   3.075  11.981  0.00  0.00    +0.000 N 
ATOM      7  C   UNL     1       5.949   3.703  13.094  0.00  0.00    +0.000 A 
ATOM      8  N   UNL     1       7.023   4.485  12.881  0.00  0.00    +0.000 NA
ATOM      9  C   UNL     1       7.566   5.102  13.949  0.00  0.00    +0.000 A 
ATOM     10  C   UNL     1       7.042   4.929  15.225  0.00  0.00    +0.000 A 
ATOM     11  N   UNL     1       7.360   5.416  16.476  0.00  0.00    +0.000 NA
ATOM     12  C   UNL     1       6.458   4.894  17.282  0.00  0.00    +0.000 A 
ATOM     13  N   UNL     1       5.597   4.064  16.616  0.00  0.00    +0.000 N 
ATOM     14  C   UNL     1       5.947   4.086  15.293  0.00  0.00    +0.000 A 
ATOM     15  N   UNL     1       5.360   3.440  14.272  0.00  0.00    +0.000 NA
ATOM     16  H   UNL     1       6.124   3.006  11.259  0.00  0.00    +0.000 HD
ATOM     17  H   UNL     1       4.958   2.222  12.256  0.00  0.00    +0.000 HD
BRANCH   9  18
ATOM     18  O   UNL     1       8.641   5.892  13.665  0.00  0.00    +0.000 OA
ATOM     19  H   UNL     1       8.313   6.380  12.895  0.00  0.00    +0.000 HD
ENDBRANCH   9  18
ENDBRANCH   1  13
BRANCH   4  20
ATOM     20  O   UNL     1       2.744   1.678  18.882  0.00  0.00    +0.000 OA
ATOM     21  H   UNL     1       2.178   1.412  19.631  0.00  0.00    +0.000 HD
ENDBRANCH   4  20
BRANCH   5  22
ATOM     22  O   UNL     1       5.212   2.474  19.409  0.00  0.00    +0.000 OA
ATOM     23  H   UNL     1       5.259   1.667  18.855  0.00  0.00    +0.000 HD
ENDBRANCH   5  22
BRANCH   3  24
ATOM     24  C   UNL     1       1.802   5.223  18.008  0.00  0.00    +0.000 C 
BRANCH  24  25
ATOM     25  N   UNL     1       2.021   5.581  19.417  0.00  0.00    +0.000 NA
ATOM     26  H   UNL     1       2.542   4.844  19.892  0.00  0.00    +0.000 HD
BRANCH  25  27
ATOM     27  C   UNL     1       2.749   6.841  19.546  0.00  0.00    +0.000 C 
BRANCH  27  28
ATOM     28  C   UNL     1       1.826   7.999  19.802  0.00  0.00    +0.000 C 
ATOM     29  C   UNL     1       1.469   8.870  18.841  0.00  0.00    +0.000 C 
ATOM     30  C   UNL     1       0.492   9.898  19.195  0.00  0.00    +0.000 A 
ATOM     31  C   UNL     1      -0.235  10.588  18.222  0.00  0.00    +0.000 A 
ATOM     32  C   UNL     1      -1.135  11.576  18.618  0.00  0.00    +0.000 A 
ATOM     33  C   UNL     1      -1.276  11.928  19.957  0.00  0.00    +0.000 A 
ATOM     34  C   UNL     1      -0.553  11.239  20.932  0.00  0.00    +0.000 A 
ATOM     35  C   UNL     1       0.290  10.198  20.549  0.00  0.00    +0.000 A 
ATOM     36  O   UNL     1       0.921   9.494  21.543  0.00  0.00    +0.000 OA
ATOM     37  C   UNL     1       1.199   8.128  21.171  0.00  0.00    +0.000 C 
BRANCH  32  38
ATOM     38  O   UNL     1      -1.918  12.224  17.709  0.00  0.00    +0.000 OA
ATOM     39  H   UNL     1      -2.771  12.430  18.126  0.00  0.00    +0.000 HD
ENDBRANCH  32  38
ENDBRANCH  27  28
ENDBRANCH  25  27
ENDBRANCH  24  25
ENDBRANCH   3  24
TORSDOF 9
ENDMDL
MODEL 9
REMARK VINA RESULT:      -8.6      4.411      8.052
REMARK  Name = 
REMARK  9 active torsions:
REMARK  status: ('A' for Active; 'I' for Inactive)
REMARK    1  A    between atoms: C_4  and  O_5
REMARK    2  A    between atoms: N_9  and  C_10
REMARK    3  A    between atoms: C_12  and  C_13
REMARK    4  A    between atoms: C_13  and  N_14
REMARK    5  A    between atoms: N_14  and  C_15
REMARK    6  A    between atoms: C_15  and  C_16
REMARK    7  A    between atoms: C_20  and  O_21
REMARK    8  A    between atoms: C_27  and  O_28
REMARK    9  A    between atoms: C_29  and  O_30
REMARK                            x       y       z     vdW  Elec       q    Type
REMARK                         _______ _______ _______ _____ _____    ______ ____
ROOT
ATOM      1  C   UNL     1       3.942   3.919  17.972  0.00  0.00    +0.000 C 
ATOM      2  O   UNL     1       2.561   4.348  17.975  0.00  0.00    +0.000 OA
ATOM      3  C   UNL     1       1.915   3.852  19.172  0.00  0.00    +0.000 C 
ATOM      4  C   UNL     1       2.928   2.924  19.846  0.00  0.00    +0.000 C 
ATOM      5  C   UNL     1       4.267   3.491  19.402  0.00  0.00    +0.000 C 
ENDROOT
BRANCH   1  13
ATOM      6  N   UNL     1       8.279   5.284  20.664  0.00  0.00    +0.000 N 
ATOM      7  C   UNL     1       7.622   5.663  19.509  0.00  0.00    +0.000 A 
ATOM      8  N   UNL     1       8.167   6.685  18.824  0.00  0.00    +0.000 NA
ATOM      9  C   UNL     1       7.542   7.085  17.699  0.00  0.00    +0.000 A 
ATOM     10  C   UNL     1       6.372   6.470  17.266  0.00  0.00    +0.000 A 
ATOM     11  N   UNL     1       5.531   6.641  16.187  0.00  0.00    +0.000 NA
ATOM     12  C   UNL     1       4.602   5.719  16.332  0.00  0.00    +0.000 A 
ATOM     13  N   UNL     1       4.782   4.987  17.474  0.00  0.00    +0.000 N 
ATOM     14  C   UNL     1       5.922   5.445  18.079  0.00  0.00    +0.000 A 
ATOM     15  N   UNL     1       6.493   5.000  19.211  0.00  0.00    +0.000 NA
ATOM     16  H   UNL     1       8.843   6.048  21.006  0.00  0.00    +0.000 HD
ATOM     17  H   UNL     1       7.624   4.869  21.311  0.00  0.00    +0.000 HD
BRANCH   9  18
ATOM     18  O   UNL     1       8.152   8.113  17.042  0.00  0.00    +0.000 OA
ATOM     19  H   UNL     1       7.636   8.141  16.222  0.00  0.00    +0.000 HD
ENDBRANCH   9  18
ENDBRANCH   1  13
BRANCH   4  20
ATOM     20  O   UNL     1       2.829   1.575  19.348  0.00  0.00    +0.000 OA
ATOM     21  H   UNL     1       3.666   1.105  19.524  0.00  0.00    +0.000 HD
ENDBRANCH   4  20
BRANCH   5  22
ATOM     22  O   UNL     1       5.299   2.514  19.497  0.00  0.00    +0.000 OA
ATOM     23  H   UNL     1       5.285   2.014  18.655  0.00  0.00    +0.000 HD
ENDBRANCH   5  22
BRANCH   3  24
ATOM     24  C   UNL     1       1.489   5.021  20.090  0.00  0.00    +0.000 C 
BRANCH  24  25
ATOM     25  N   UNL     1       2.593   5.962  20.332  0.00  0.00    +0.000 NA
ATOM     26  H   UNL     1       3.480   5.461  20.384  0.00  0.00    +0.000 HD
BRANCH  25  27
ATOM     27  C   UNL     1       2.677   6.975  19.281  0.00  0.00    +0.000 C 
BRANCH  27  28
ATOM     28  C   UNL     1       1.761   8.136  19.547  0.00  0.00    +0.000 C 
ATOM     29  C   UNL     1       1.143   8.318  20.728  0.00  0.00    +0.000 C 
ATOM     30  C   UNL     1       0.351   9.536  20.892  0.00  0.00    +0.000 A 
ATOM     31  C   UNL     1      -0.000  10.020  22.154  0.00  0.00    +0.000 A 
ATOM     32  C   UNL     1      -0.779  11.173  22.248  0.00  0.00    +0.000 A 
ATOM     33  C   UNL     1      -1.260  11.812  21.109  0.00  0.00    +0.000 A 
ATOM     34  C   UNL     1      -0.909  11.332  19.847  0.00  0.00    +0.000 A 
ATOM     35  C   UNL     1      -0.068  10.226  19.746  0.00  0.00    +0.000 A 
ATOM     36  O   UNL     1       0.318   9.835  18.490  0.00  0.00    +0.000 OA
ATOM     37  C   UNL     1       1.610   9.191  18.476  0.00  0.00    +0.000 C 
BRANCH  32  38
ATOM     38  O   UNL     1      -1.084  11.722  23.458  0.00  0.00    +0.000 OA
ATOM     39  H   UNL     1      -0.289  12.156  23.811  0.00  0.00    +0.000 HD
ENDBRANCH  32  38
ENDBRANCH  27  28
ENDBRANCH  25  27
ENDBRANCH  24  25
ENDBRANCH   3  24
TORSDOF 9
ENDMDL
