MODEL 1
REMARK VINA RESULT:      -6.9      0.000      0.000
REMARK  Name = 
REMARK  5 active torsions:
REMARK  status: ('A' for Active; 'I' for Inactive)
REMARK    1  A    between atoms: C_1  and  N_2
REMARK    2  A    between atoms: N_2  and  S_3
REMARK    3  A    between atoms: S_3  and  N_6
REMARK    4  A    between atoms: C_9  and  N_10
REMARK    5  A    between atoms: C_14  and  C_15
REMARK                            x       y       z     vdW  Elec       q    Type
REMARK                         _______ _______ _______ _____ _____    ______ ____
ROOT
ATOM      1  N   UNL     1       6.861  13.307  23.431  0.00  0.00    +0.000 N 
ATOM      2  C   UNL     1       5.632  14.062  23.687  0.00  0.00    +0.000 C 
ATOM      3  C   UNL     1       5.162  14.655  22.364  0.00  0.00    +0.000 C 
ATOM      4  C   UNL     1       6.386  14.532  21.534  0.00  0.00    +0.000 A 
ATOM      5  C   UNL     1       6.640  14.912  20.241  0.00  0.00    +0.000 A 
ATOM      6  N   UNL     1       7.834  14.622  19.684  0.00  0.00    +0.000 NA
ATOM      7  C   UNL     1       8.761  13.949  20.400  0.00  0.00    +0.000 A 
ATOM      8  N   UNL     1       9.981  13.707  19.805  0.00  0.00    +0.000 N 
ATOM      9  C   UNL     1      10.223  14.086  18.408  0.00  0.00    +0.000 C 
ATOM     10  C   UNL     1      10.285  12.843  17.507  0.00  0.00    +0.000 C 
ATOM     11  O   UNL     1      11.254  11.899  17.992  0.00  0.00    +0.000 OA
ATOM     12  C   UNL     1      10.898  11.464  19.316  0.00  0.00    +0.000 C 
ATOM     13  C   UNL     1      10.846  12.639  20.310  0.00  0.00    +0.000 C 
ATOM     14  N   UNL     1       8.546  13.536  21.666  0.00  0.00    +0.000 NA
ATOM     15  C   UNL     1       7.354  13.809  22.202  0.00  0.00    +0.000 A 
ENDROOT
BRANCH   5  16
ATOM     16  C   UNL     1       5.650  15.524  19.343  0.00  0.00    +0.000 A 
ATOM     17  C   UNL     1       5.164  16.813  19.453  0.00  0.00    +0.000 A 
ATOM     18  N   UNL     1       4.166  17.341  18.711  0.00  0.00    +0.000 NA
ATOM     19  C   UNL     1       3.634  16.544  17.786  0.00  0.00    +0.000 A 
ATOM     20  N   UNL     1       2.585  17.047  17.052  0.00  0.00    +0.000 N 
ATOM     21  N   UNL     1       4.067  15.312  17.512  0.00  0.00    +0.000 NA
ATOM     22  C   UNL     1       5.060  14.832  18.300  0.00  0.00    +0.000 A 
ATOM     23  H   UNL     1       2.606  18.056  17.068  0.00  0.00    +0.000 HD
ATOM     24  H   UNL     1       2.551  16.593  16.143  0.00  0.00    +0.000 HD
ENDBRANCH   5  16
BRANCH   1  28
ATOM     25  N   UNL     1       6.967  11.597  26.406  0.00  0.00    +0.000 NA
ATOM     26  C   UNL     1       7.388  12.902  26.963  0.00  0.00    +0.000 C 
ATOM     27  C   UNL     1       7.389  13.840  25.779  0.00  0.00    +0.000 C 
ATOM     28  C   UNL     1       7.753  12.979  24.549  0.00  0.00    +0.000 C 
ATOM     29  C   UNL     1       7.622  11.530  25.057  0.00  0.00    +0.000 C 
BRANCH  25  30
ATOM     30  S   UNL     1       5.309  11.279  26.349  0.00  0.00    +0.000 S 
ATOM     31  O   UNL     1       4.984  10.788  25.036  0.00  0.00    +0.000 OA
ATOM     32  O   UNL     1       4.575  12.346  26.987  0.00  0.00    +0.000 OA
BRANCH  30  34
ATOM     33  C   UNL     1       6.379   9.951  28.353  0.00  0.00    +0.000 C 
ATOM     34  N   UNL     1       5.280   9.943  27.369  0.00  0.00    +0.000 NA
ATOM     35  H   UNL     1       4.374   9.949  27.838  0.00  0.00    +0.000 HD
ENDBRANCH  30  34
ENDBRANCH  25  30
ENDBRANCH   1  28
TORSDOF 4
ENDMDL
MODEL 2
REMARK VINA RESULT:      -6.7      8.826     10.802
REMARK  Name = 
REMARK  5 active torsions:
REMARK  status: ('A' for Active; 'I' for Inactive)
REMARK    1  A    between atoms: C_1  and  N_2
REMARK    2  A    between atoms: N_2  and  S_3
REMARK    3  A    between atoms: S_3  and  N_6
REMARK    4  A    between atoms: C_9  and  N_10
REMARK    5  A    between atoms: C_14  and  C_15
REMARK                            x       y       z     vdW  Elec       q    Type
REMARK                         _______ _______ _______ _____ _____    ______ ____
ROOT
ATOM      1  N   UNL     1       1.484   8.743  19.013  0.00  0.00    +0.000 N 
ATOM      2  C   UNL     1       2.230   9.706  18.198  0.00  0.00    +0.000 C 
ATOM      3  C   UNL     1       3.286   8.936  17.414  0.00  0.00    +0.000 C 
ATOM      4  C   UNL     1       3.328   7.652  18.156  0.00  0.00    +0.000 A 
ATOM      5  C   UNL     1       4.098   6.532  17.976  0.00  0.00    +0.000 A 
ATOM      6  N   UNL     1       3.893   5.451  18.755  0.00  0.00    +0.000 NA
ATOM      7  C   UNL     1       2.922   5.476  19.694  0.00  0.00    +0.000 A 
ATOM      8  N   UNL     1       2.773   4.363  20.493  0.00  0.00    +0.000 N 
ATOM      9  C   UNL     1       3.580   3.159  20.263  0.00  0.00    +0.000 C 
ATOM     10  C   UNL     1       2.721   2.030  19.672  0.00  0.00    +0.000 C 
ATOM     11  O   UNL     1       1.572   1.768  20.494  0.00  0.00    +0.000 OA
ATOM     12  C   UNL     1       0.749   2.945  20.581  0.00  0.00    +0.000 C 
ATOM     13  C   UNL     1       1.511   4.131  21.200  0.00  0.00    +0.000 C 
ATOM     14  N   UNL     1       2.126   6.547  19.890  0.00  0.00    +0.000 NA
ATOM     15  C   UNL     1       2.322   7.605  19.100  0.00  0.00    +0.000 A 
ENDROOT
BRANCH   5  16
ATOM     16  C   UNL     1       5.082   6.362  16.896  0.00  0.00    +0.000 A 
ATOM     17  C   UNL     1       4.784   5.991  15.598  0.00  0.00    +0.000 A 
ATOM     18  N   UNL     1       5.691   5.712  14.635  0.00  0.00    +0.000 NA
ATOM     19  C   UNL     1       6.972   5.832  14.979  0.00  0.00    +0.000 A 
ATOM     20  N   UNL     1       7.910   5.507  14.026  0.00  0.00    +0.000 N 
ATOM     21  N   UNL     1       7.397   6.268  16.165  0.00  0.00    +0.000 NA
ATOM     22  C   UNL     1       6.442   6.517  17.095  0.00  0.00    +0.000 A 
ATOM     23  H   UNL     1       7.502   5.573  13.105  0.00  0.00    +0.000 HD
ATOM     24  H   UNL     1       8.768   6.025  14.197  0.00  0.00    +0.000 HD
ENDBRANCH   5  16
BRANCH   1  28
ATOM     25  N   UNL     1      -1.141  10.795  19.839  0.00  0.00    +0.000 NA
ATOM     26  C   UNL     1      -0.159  11.431  20.744  0.00  0.00    +0.000 C 
ATOM     27  C   UNL     1       1.122  10.663  20.515  0.00  0.00    +0.000 C 
ATOM     28  C   UNL     1       0.701   9.221  20.158  0.00  0.00    +0.000 C 
ATOM     29  C   UNL     1      -0.812   9.331  19.886  0.00  0.00    +0.000 C 
BRANCH  25  30
ATOM     30  S   UNL     1      -1.244  11.396  18.264  0.00  0.00    +0.000 S 
ATOM     31  O   UNL     1      -1.207  10.286  17.349  0.00  0.00    +0.000 OA
ATOM     32  O   UNL     1      -0.397  12.556  18.117  0.00  0.00    +0.000 OA
BRANCH  30  34
ATOM     33  C   UNL     1      -3.792  10.881  17.859  0.00  0.00    +0.000 C 
ATOM     34  N   UNL     1      -2.841  11.918  18.302  0.00  0.00    +0.000 NA
ATOM     35  H   UNL     1      -3.037  12.201  19.263  0.00  0.00    +0.000 HD
ENDBRANCH  30  34
ENDBRANCH  25  30
ENDBRANCH   1  28
TORSDOF 4
ENDMDL
MODEL 3
REMARK VINA RESULT:      -6.7      3.403      7.087
REMARK  Name = 
REMARK  5 active torsions:
REMARK  status: ('A' for Active; 'I' for Inactive)
REMARK    1  A    between atoms: C_1  and  N_2
REMARK    2  A    between atoms: N_2  and  S_3
REMARK    3  A    between atoms: S_3  and  N_6
REMARK    4  A    between atoms: C_9  and  N_10
REMARK    5  A    between atoms: C_14  and  C_15
REMARK                            x       y       z     vdW  Elec       q    Type
REMARK                         _______ _______ _______ _____ _____    ______ ____
ROOT
ATOM      1  N   UNL     1       4.441  14.875  19.158  0.00  0.00    +0.000 N 
ATOM      2  C   UNL     1       4.824  15.220  17.786  0.00  0.00    +0.000 C 
ATOM      3  C   UNL     1       6.291  14.847  17.602  0.00  0.00    +0.000 C 
ATOM      4  C   UNL     1       6.737  14.700  19.009  0.00  0.00    +0.000 A 
ATOM      5  C   UNL     1       7.966  14.401  19.538  0.00  0.00    +0.000 A 
ATOM      6  N   UNL     1       8.100  14.256  20.872  0.00  0.00    +0.000 NA
ATOM      7  C   UNL     1       7.020  14.390  21.672  0.00  0.00    +0.000 A 
ATOM      8  N   UNL     1       7.209  14.270  23.032  0.00  0.00    +0.000 N 
ATOM      9  C   UNL     1       8.523  13.913  23.579  0.00  0.00    +0.000 C 
ATOM     10  C   UNL     1       8.517  12.477  24.124  0.00  0.00    +0.000 C 
ATOM     11  O   UNL     1       7.459  12.289  25.079  0.00  0.00    +0.000 OA
ATOM     12  C   UNL     1       6.185  12.527  24.456  0.00  0.00    +0.000 C 
ATOM     13  C   UNL     1       6.076  13.961  23.907  0.00  0.00    +0.000 C 
ATOM     14  N   UNL     1       5.788  14.660  21.194  0.00  0.00    +0.000 NA
ATOM     15  C   UNL     1       5.661  14.782  19.870  0.00  0.00    +0.000 A 
ENDROOT
BRANCH   5  16
ATOM     16  C   UNL     1       9.166  14.104  18.741  0.00  0.00    +0.000 A 
ATOM     17  C   UNL     1      10.076  15.041  18.290  0.00  0.00    +0.000 A 
ATOM     18  N   UNL     1      11.109  14.792  17.455  0.00  0.00    +0.000 NA
ATOM     19  C   UNL     1      11.259  13.528  17.063  0.00  0.00    +0.000 A 
ATOM     20  N   UNL     1      12.277  13.263  16.177  0.00  0.00    +0.000 N 
ATOM     21  N   UNL     1      10.511  12.511  17.493  0.00  0.00    +0.000 NA
ATOM     22  C   UNL     1       9.481  12.825  18.317  0.00  0.00    +0.000 A 
ATOM     23  H   UNL     1      12.978  13.987  16.231  0.00  0.00    +0.000 HD
ATOM     24  H   UNL     1      12.587  12.301  16.285  0.00  0.00    +0.000 HD
ENDBRANCH   5  16
BRANCH   1  28
ATOM     25  N   UNL     1       1.108  14.291  19.738  0.00  0.00    +0.000 NA
ATOM     26  C   UNL     1       0.916  15.561  19.005  0.00  0.00    +0.000 C 
ATOM     27  C   UNL     1       2.312  15.997  18.626  0.00  0.00    +0.000 C 
ATOM     28  C   UNL     1       3.242  15.482  19.746  0.00  0.00    +0.000 C 
ATOM     29  C   UNL     1       2.360  14.498  20.540  0.00  0.00    +0.000 C 
BRANCH  25  30
ATOM     30  S   UNL     1       1.139  12.868  18.827  0.00  0.00    +0.000 S 
ATOM     31  O   UNL     1       0.931  11.754  19.714  0.00  0.00    +0.000 OA
ATOM     32  O   UNL     1       2.220  12.913  17.871  0.00  0.00    +0.000 OA
BRANCH  30  34
ATOM     33  C   UNL     1      -1.376  12.183  18.469  0.00  0.00    +0.000 C 
ATOM     34  N   UNL     1      -0.305  13.079  17.993  0.00  0.00    +0.000 NA
ATOM     35  H   UNL     1      -0.573  14.057  18.107  0.00  0.00    +0.000 HD
ENDBRANCH  30  34
ENDBRANCH  25  30
ENDBRANCH   1  28
TORSDOF 4
ENDMDL
MODEL 4
REMARK VINA RESULT:      -6.7      8.703     11.568
REMARK  Name = 
REMARK  5 active torsions:
REMARK  status: ('A' for Active; 'I' for Inactive)
REMARK    1  A    between atoms: C_1  and  N_2
REMARK    2  A    between atoms: N_2  and  S_3
REMARK    3  A    between atoms: S_3  and  N_6
REMARK    4  A    between atoms: C_9  and  N_10
REMARK    5  A    between atoms: C_14  and  C_15
REMARK                            x       y       z     vdW  Elec       q    Type
REMARK                         _______ _______ _______ _____ _____    ______ ____
ROOT
ATOM      1  N   UNL     1      -3.797  11.456  18.573  0.00  0.00    +0.000 N 
ATOM      2  C   UNL     1      -3.738  10.169  17.875  0.00  0.00    +0.000 C 
ATOM      3  C   UNL     1      -2.346   9.586  18.085  0.00  0.00    +0.000 C 
ATOM      4  C   UNL     1      -1.591  10.780  18.540  0.00  0.00    +0.000 A 
ATOM      5  C   UNL     1      -0.270  10.939  18.869  0.00  0.00    +0.000 A 
ATOM      6  N   UNL     1       0.163  12.131  19.328  0.00  0.00    +0.000 NA
ATOM      7  C   UNL     1      -0.711  13.151  19.472  0.00  0.00    +0.000 A 
ATOM      8  N   UNL     1      -0.218  14.363  19.908  0.00  0.00    +0.000 N 
ATOM      9  C   UNL     1       1.191  14.505  20.293  0.00  0.00    +0.000 C 
ATOM     10  C   UNL     1       1.330  14.654  21.815  0.00  0.00    +0.000 C 
ATOM     11  O   UNL     1       0.517  15.733  22.308  0.00  0.00    +0.000 OA
ATOM     12  C   UNL     1      -0.869  15.479  22.017  0.00  0.00    +0.000 C 
ATOM     13  C   UNL     1      -1.121  15.351  20.503  0.00  0.00    +0.000 C 
ATOM     14  N   UNL     1      -2.023  13.033  19.183  0.00  0.00    +0.000 NA
ATOM     15  C   UNL     1      -2.447  11.843  18.749  0.00  0.00    +0.000 A 
ENDROOT
BRANCH   5  16
ATOM     16  C   UNL     1       0.724   9.855  18.875  0.00  0.00    +0.000 A 
ATOM     17  C   UNL     1       1.468   9.450  17.783  0.00  0.00    +0.000 A 
ATOM     18  N   UNL     1       2.290   8.378  17.748  0.00  0.00    +0.000 NA
ATOM     19  C   UNL     1       2.394   7.678  18.877  0.00  0.00    +0.000 A 
ATOM     20  N   UNL     1       3.188   6.556  18.848  0.00  0.00    +0.000 N 
ATOM     21  N   UNL     1       1.804   8.009  20.027  0.00  0.00    +0.000 NA
ATOM     22  C   UNL     1       0.981   9.085  19.995  0.00  0.00    +0.000 A 
ATOM     23  H   UNL     1       3.855   6.625  18.093  0.00  0.00    +0.000 HD
ATOM     24  H   UNL     1       3.552   6.366  19.778  0.00  0.00    +0.000 HD
ENDBRANCH   5  16
BRANCH   1  28
ATOM     25  N   UNL     1      -6.676  12.902  19.759  0.00  0.00    +0.000 NA
ATOM     26  C   UNL     1      -7.268  12.390  18.503  0.00  0.00    +0.000 C 
ATOM     27  C   UNL     1      -6.131  11.675  17.810  0.00  0.00    +0.000 C 
ATOM     28  C   UNL     1      -4.842  12.422  18.216  0.00  0.00    +0.000 C 
ATOM     29  C   UNL     1      -5.288  13.329  19.381  0.00  0.00    +0.000 C 
BRANCH  25  30
ATOM     30  S   UNL     1      -6.706  11.878  21.102  0.00  0.00    +0.000 S 
ATOM     31  O   UNL     1      -5.490  12.067  21.848  0.00  0.00    +0.000 OA
ATOM     32  O   UNL     1      -7.193  10.572  20.722  0.00  0.00    +0.000 OA
BRANCH  30  34
ATOM     33  C   UNL     1      -7.861  12.351  23.418  0.00  0.00    +0.000 C 
ATOM     34  N   UNL     1      -7.917  12.652  21.975  0.00  0.00    +0.000 NA
ATOM     35  H   UNL     1      -7.807  13.653  21.809  0.00  0.00    +0.000 HD
ENDBRANCH  30  34
ENDBRANCH  25  30
ENDBRANCH   1  28
TORSDOF 4
ENDMDL
MODEL 5
REMARK VINA RESULT:      -6.5      3.508      6.852
REMARK  Name = 
REMARK  5 active torsions:
REMARK  status: ('A' for Active; 'I' for Inactive)
REMARK    1  A    between atoms: C_1  and  N_2
REMARK    2  A    between atoms: N_2  and  S_3
REMARK    3  A    between atoms: S_3  and  N_6
REMARK    4  A    between atoms: C_9  and  N_10
REMARK    5  A    between atoms: C_14  and  C_15
REMARK                            x       y       z     vdW  Elec       q    Type
REMARK                         _______ _______ _______ _____ _____    ______ ____
ROOT
ATOM      1  N   UNL     1       4.531  15.151  19.359  0.00  0.00    +0.000 N 
ATOM      2  C   UNL     1       4.939  15.625  18.035  0.00  0.00    +0.000 C 
ATOM      3  C   UNL     1       6.369  15.156  17.790  0.00  0.00    +0.000 C 
ATOM      4  C   UNL     1       6.804  14.804  19.164  0.00  0.00    +0.000 A 
ATOM      5  C   UNL     1       8.004  14.342  19.639  0.00  0.00    +0.000 A 
ATOM      6  N   UNL     1       8.127  14.026  20.944  0.00  0.00    +0.000 NA
ATOM      7  C   UNL     1       7.063  14.153  21.767  0.00  0.00    +0.000 A 
ATOM      8  N   UNL     1       7.244  13.854  23.101  0.00  0.00    +0.000 N 
ATOM      9  C   UNL     1       8.524  13.325  23.585  0.00  0.00    +0.000 C 
ATOM     10  C   UNL     1       8.398  11.839  23.954  0.00  0.00    +0.000 C 
ATOM     11  O   UNL     1       7.329  11.627  24.892  0.00  0.00    +0.000 OA
ATOM     12  C   UNL     1       6.078  12.044  24.317  0.00  0.00    +0.000 C 
ATOM     13  C   UNL     1       6.090  13.538  23.945  0.00  0.00    +0.000 C 
ATOM     14  N   UNL     1       5.858  14.580  21.339  0.00  0.00    +0.000 NA
ATOM     15  C   UNL     1       5.740  14.871  20.041  0.00  0.00    +0.000 A 
ENDROOT
BRANCH   5  16
ATOM     16  C   UNL     1       9.173  14.043  18.798  0.00  0.00    +0.000 A 
ATOM     17  C   UNL     1      10.075  14.978  18.326  0.00  0.00    +0.000 A 
ATOM     18  N   UNL     1      11.077  14.730  17.454  0.00  0.00    +0.000 NA
ATOM     19  C   UNL     1      11.203  13.470  17.043  0.00  0.00    +0.000 A 
ATOM     20  N   UNL     1      12.187  13.206  16.119  0.00  0.00    +0.000 N 
ATOM     21  N   UNL     1      10.461  12.454  17.487  0.00  0.00    +0.000 NA
ATOM     22  C   UNL     1       9.462  12.767  18.349  0.00  0.00    +0.000 A 
ATOM     23  H   UNL     1      12.896  13.924  16.157  0.00  0.00    +0.000 HD
ATOM     24  H   UNL     1      12.492  12.240  16.206  0.00  0.00    +0.000 HD
ENDBRANCH   5  16
BRANCH   1  28
ATOM     25  N   UNL     1       1.161  14.782  19.904  0.00  0.00    +0.000 NA
ATOM     26  C   UNL     1       1.076  16.144  19.331  0.00  0.00    +0.000 C 
ATOM     27  C   UNL     1       2.504  16.504  18.992  0.00  0.00    +0.000 C 
ATOM     28  C   UNL     1       3.388  15.781  20.031  0.00  0.00    +0.000 C 
ATOM     29  C   UNL     1       2.427  14.786  20.710  0.00  0.00    +0.000 C 
BRANCH  25  30
ATOM     30  S   UNL     1       1.070  13.483  18.828  0.00  0.00    +0.000 S 
ATOM     31  O   UNL     1       2.159  13.589  17.892  0.00  0.00    +0.000 OA
ATOM     32  O   UNL     1      -0.297  13.274  18.413  0.00  0.00    +0.000 OA
BRANCH  30  34
ATOM     33  C   UNL     1       0.310  11.588  20.487  0.00  0.00    +0.000 C 
ATOM     34  N   UNL     1       1.487  12.251  19.893  0.00  0.00    +0.000 NA
ATOM     35  H   UNL     1       2.052  11.584  19.368  0.00  0.00    +0.000 HD
ENDBRANCH  30  34
ENDBRANCH  25  30
ENDBRANCH   1  28
TORSDOF 4
ENDMDL
MODEL 6
REMARK VINA RESULT:      -6.4      0.901      1.017
REMARK  Name = 
REMARK  5 active torsions:
REMARK  status: ('A' for Active; 'I' for Inactive)
REMARK    1  A    between atoms: C_1  and  N_2
REMARK    2  A    between atoms: N_2  and  S_3
REMARK    3  A    between atoms: S_3  and  N_6
REMARK    4  A    between atoms: C_9  and  N_10
REMARK    5  A    between atoms: C_14  and  C_15
REMARK                            x       y       z     vdW  Elec       q    Type
REMARK                         _______ _______ _______ _____ _____    ______ ____
ROOT
ATOM      1  N   UNL     1       6.968  13.515  23.444  0.00  0.00    +0.000 N 
ATOM      2  C   UNL     1       5.744  14.283  23.687  0.00  0.00    +0.000 C 
ATOM      3  C   UNL     1       5.252  14.816  22.347  0.00  0.00    +0.000 C 
ATOM      4  C   UNL     1       6.460  14.653  21.501  0.00  0.00    +0.000 A 
ATOM      5  C   UNL     1       6.691  14.971  20.188  0.00  0.00    +0.000 A 
ATOM      6  N   UNL     1       7.874  14.654  19.624  0.00  0.00    +0.000 NA
ATOM      7  C   UNL     1       8.813  14.012  20.353  0.00  0.00    +0.000 A 
ATOM      8  N   UNL     1      10.021  13.740  19.747  0.00  0.00    +0.000 N 
ATOM      9  C   UNL     1      10.238  14.054  18.330  0.00  0.00    +0.000 C 
ATOM     10  C   UNL     1      10.282  12.771  17.486  0.00  0.00    +0.000 C 
ATOM     11  O   UNL     1      11.259  11.848  17.997  0.00  0.00    +0.000 OA
ATOM     12  C   UNL     1      10.926  11.475  19.346  0.00  0.00    +0.000 C 
ATOM     13  C   UNL     1      10.894  12.694  20.285  0.00  0.00    +0.000 C 
ATOM     14  N   UNL     1       8.620  13.659  21.640  0.00  0.00    +0.000 NA
ATOM     15  C   UNL     1       7.438  13.958  22.184  0.00  0.00    +0.000 A 
ENDROOT
BRANCH   5  16
ATOM     16  C   UNL     1       5.686  15.544  19.281  0.00  0.00    +0.000 A 
ATOM     17  C   UNL     1       5.180  16.828  19.359  0.00  0.00    +0.000 A 
ATOM     18  N   UNL     1       4.169  17.321  18.610  0.00  0.00    +0.000 NA
ATOM     19  C   UNL     1       3.643  16.490  17.711  0.00  0.00    +0.000 A 
ATOM     20  N   UNL     1       2.582  16.958  16.971  0.00  0.00    +0.000 N 
ATOM     21  N   UNL     1       4.093  15.259  17.468  0.00  0.00    +0.000 NA
ATOM     22  C   UNL     1       5.099  14.815  18.262  0.00  0.00    +0.000 A 
ATOM     23  H   UNL     1       2.588  17.967  16.960  0.00  0.00    +0.000 HD
ATOM     24  H   UNL     1       2.549  16.479  16.075  0.00  0.00    +0.000 HD
ENDBRANCH   5  16
BRANCH   1  28
ATOM     25  N   UNL     1       7.207  11.747  26.377  0.00  0.00    +0.000 NA
ATOM     26  C   UNL     1       7.512  13.069  26.969  0.00  0.00    +0.000 C 
ATOM     27  C   UNL     1       7.437  14.032  25.807  0.00  0.00    +0.000 C 
ATOM     28  C   UNL     1       7.879  13.237  24.560  0.00  0.00    +0.000 C 
ATOM     29  C   UNL     1       7.871  11.769  25.031  0.00  0.00    +0.000 C 
BRANCH  25  30
ATOM     30  S   UNL     1       5.582  11.290  26.302  0.00  0.00    +0.000 S 
ATOM     31  O   UNL     1       5.332  10.320  27.335  0.00  0.00    +0.000 OA
ATOM     32  O   UNL     1       5.186  11.086  24.928  0.00  0.00    +0.000 OA
BRANCH  30  34
ATOM     33  C   UNL     1       4.047  12.550  28.027  0.00  0.00    +0.000 C 
ATOM     34  N   UNL     1       4.896  12.729  26.834  0.00  0.00    +0.000 NA
ATOM     35  H   UNL     1       5.666  13.369  27.031  0.00  0.00    +0.000 HD
ENDBRANCH  30  34
ENDBRANCH  25  30
ENDBRANCH   1  28
TORSDOF 4
ENDMDL
MODEL 7
REMARK VINA RESULT:      -6.4      3.432      7.883
REMARK  Name = 
REMARK  5 active torsions:
REMARK  status: ('A' for Active; 'I' for Inactive)
REMARK    1  A    between atoms: C_1  and  N_2
REMARK    2  A    between atoms: N_2  and  S_3
REMARK    3  A    between atoms: S_3  and  N_6
REMARK    4  A    between atoms: C_9  and  N_10
REMARK    5  A    between atoms: C_14  and  C_15
REMARK                            x       y       z     vdW  Elec       q    Type
REMARK                         _______ _______ _______ _____ _____    ______ ____
ROOT
ATOM      1  N   UNL     1       8.933  14.769  20.292  0.00  0.00    +0.000 N 
ATOM      2  C   UNL     1       9.768  14.386  21.434  0.00  0.00    +0.000 C 
ATOM      3  C   UNL     1       8.864  13.749  22.482  0.00  0.00    +0.000 C 
ATOM      4  C   UNL     1       7.524  14.194  22.026  0.00  0.00    +0.000 A 
ATOM      5  C   UNL     1       6.276  13.983  22.556  0.00  0.00    +0.000 A 
ATOM      6  N   UNL     1       5.190  14.444  21.903  0.00  0.00    +0.000 NA
ATOM      7  C   UNL     1       5.339  15.093  20.728  0.00  0.00    +0.000 A 
ATOM      8  N   UNL     1       4.205  15.579  20.114  0.00  0.00    +0.000 N 
ATOM      9  C   UNL     1       2.875  15.313  20.674  0.00  0.00    +0.000 C 
ATOM     10  C   UNL     1       2.108  14.304  19.806  0.00  0.00    +0.000 C 
ATOM     11  O   UNL     1       2.047  14.738  18.437  0.00  0.00    +0.000 OA
ATOM     12  C   UNL     1       3.375  14.859  17.898  0.00  0.00    +0.000 C 
ATOM     13  C   UNL     1       4.219  15.883  18.681  0.00  0.00    +0.000 C 
ATOM     14  N   UNL     1       6.544  15.301  20.159  0.00  0.00    +0.000 NA
ATOM     15  C   UNL     1       7.613  14.824  20.802  0.00  0.00    +0.000 A 
ENDROOT
BRANCH   5  16
ATOM     16  C   UNL     1       6.005  13.174  23.753  0.00  0.00    +0.000 A 
ATOM     17  C   UNL     1       6.063  11.794  23.812  0.00  0.00    +0.000 A 
ATOM     18  N   UNL     1       5.696  11.038  24.870  0.00  0.00    +0.000 NA
ATOM     19  C   UNL     1       5.264  11.697  25.944  0.00  0.00    +0.000 A 
ATOM     20  N   UNL     1       4.841  10.944  27.014  0.00  0.00    +0.000 N 
ATOM     21  N   UNL     1       5.243  13.026  26.055  0.00  0.00    +0.000 NA
ATOM     22  C   UNL     1       5.609  13.730  24.956  0.00  0.00    +0.000 A 
ATOM     23  H   UNL     1       5.252  10.023  26.971  0.00  0.00    +0.000 HD
ATOM     24  H   UNL     1       4.962  11.471  27.876  0.00  0.00    +0.000 HD
ENDBRANCH   5  16
BRANCH   1  28
ATOM     25  N   UNL     1      10.982  15.091  17.556  0.00  0.00    +0.000 NA
ATOM     26  C   UNL     1      11.653  16.125  18.373  0.00  0.00    +0.000 C 
ATOM     27  C   UNL     1      10.891  16.134  19.678  0.00  0.00    +0.000 C 
ATOM     28  C   UNL     1       9.436  15.755  19.329  0.00  0.00    +0.000 C 
ATOM     29  C   UNL     1       9.523  15.235  17.881  0.00  0.00    +0.000 C 
BRANCH  25  30
ATOM     30  S   UNL     1      11.535  13.502  17.711  0.00  0.00    +0.000 S 
ATOM     31  O   UNL     1      11.984  13.306  19.064  0.00  0.00    +0.000 OA
ATOM     32  O   UNL     1      12.333  13.139  16.564  0.00  0.00    +0.000 OA
BRANCH  30  34
ATOM     33  C   UNL     1       9.954  11.549  18.489  0.00  0.00    +0.000 C 
ATOM     34  N   UNL     1      10.056  12.713  17.589  0.00  0.00    +0.000 NA
ATOM     35  H   UNL     1       9.334  13.402  17.804  0.00  0.00    +0.000 HD
ENDBRANCH  30  34
ENDBRANCH  25  30
ENDBRANCH   1  28
TORSDOF 4
ENDMDL
MODEL 8
REMARK VINA RESULT:      -6.4      6.569      9.704
REMARK  Name = 
REMARK  5 active torsions:
REMARK  status: ('A' for Active; 'I' for Inactive)
REMARK    1  A    between atoms: C_1  and  N_2
REMARK    2  A    between atoms: N_2  and  S_3
REMARK    3  A    between atoms: S_3  and  N_6
REMARK    4  A    between atoms: C_9  and  N_10
REMARK    5  A    between atoms: C_14  and  C_15
REMARK                            x       y       z     vdW  Elec       q    Type
REMARK                         _______ _______ _______ _____ _____    ______ ____
ROOT
ATOM      1  N   UNL     1       2.085  14.387  20.599  0.00  0.00    +0.000 N 
ATOM      2  C   UNL     1       2.617  13.745  19.394  0.00  0.00    +0.000 C 
ATOM      3  C   UNL     1       1.497  12.920  18.770  0.00  0.00    +0.000 C 
ATOM      4  C   UNL     1       0.535  12.829  19.896  0.00  0.00    +0.000 A 
ATOM      5  C   UNL     1      -0.675  12.192  19.998  0.00  0.00    +0.000 A 
ATOM      6  N   UNL     1      -1.402  12.320  21.126  0.00  0.00    +0.000 NA
ATOM      7  C   UNL     1      -0.939  13.086  22.138  0.00  0.00    +0.000 A 
ATOM      8  N   UNL     1      -1.697  13.158  23.287  0.00  0.00    +0.000 N 
ATOM      9  C   UNL     1      -3.007  12.501  23.366  0.00  0.00    +0.000 C 
ATOM     10  C   UNL     1      -4.141  13.537  23.347  0.00  0.00    +0.000 C 
ATOM     11  O   UNL     1      -3.961  14.522  24.379  0.00  0.00    +0.000 OA
ATOM     12  C   UNL     1      -2.721  15.224  24.179  0.00  0.00    +0.000 C 
ATOM     13  C   UNL     1      -1.512  14.273  24.220  0.00  0.00    +0.000 C 
ATOM     14  N   UNL     1       0.233  13.749  22.072  0.00  0.00    +0.000 NA
ATOM     15  C   UNL     1       0.937  13.633  20.943  0.00  0.00    +0.000 A 
ENDROOT
BRANCH   5  16
ATOM     16  C   UNL     1      -1.321  11.451  18.904  0.00  0.00    +0.000 A 
ATOM     17  C   UNL     1      -0.817  10.311  18.307  0.00  0.00    +0.000 A 
ATOM     18  N   UNL     1      -1.340   9.697  17.222  0.00  0.00    +0.000 NA
ATOM     19  C   UNL     1      -2.445  10.239  16.714  0.00  0.00    +0.000 A 
ATOM     20  N   UNL     1      -2.966   9.657  15.582  0.00  0.00    +0.000 N 
ATOM     21  N   UNL     1      -3.086  11.282  17.243  0.00  0.00    +0.000 NA
ATOM     22  C   UNL     1      -2.506  11.864  18.321  0.00  0.00    +0.000 A 
ATOM     23  H   UNL     1      -2.649   8.701  15.510  0.00  0.00    +0.000 HD
ATOM     24  H   UNL     1      -3.968   9.823  15.538  0.00  0.00    +0.000 HD
ENDBRANCH   5  16
BRANCH   1  28
ATOM     25  N   UNL     1       4.829  16.412  20.997  0.00  0.00    +0.000 NA
ATOM     26  C   UNL     1       5.436  15.209  21.607  0.00  0.00    +0.000 C 
ATOM     27  C   UNL     1       4.361  14.150  21.513  0.00  0.00    +0.000 C 
ATOM     28  C   UNL     1       3.013  14.896  21.614  0.00  0.00    +0.000 C 
ATOM     29  C   UNL     1       3.393  16.379  21.435  0.00  0.00    +0.000 C 
BRANCH  25  30
ATOM     30  S   UNL     1       5.001  16.604  19.327  0.00  0.00    +0.000 S 
ATOM     31  O   UNL     1       3.786  17.170  18.805  0.00  0.00    +0.000 OA
ATOM     32  O   UNL     1       5.627  15.436  18.754  0.00  0.00    +0.000 OA
BRANCH  30  34
ATOM     33  C   UNL     1       7.497  17.384  19.034  0.00  0.00    +0.000 C 
ATOM     34  N   UNL     1       6.131  17.849  19.338  0.00  0.00    +0.000 NA
ATOM     35  H   UNL     1       5.821  18.536  18.650  0.00  0.00    +0.000 HD
ENDBRANCH  30  34
ENDBRANCH  25  30
ENDBRANCH   1  28
TORSDOF 4
ENDMDL
MODEL 9
REMARK VINA RESULT:      -6.3      3.589      6.866
REMARK  Name = 
REMARK  5 active torsions:
REMARK  status: ('A' for Active; 'I' for Inactive)
REMARK    1  A    between atoms: C_1  and  N_2
REMARK    2  A    between atoms: N_2  and  S_3
REMARK    3  A    between atoms: S_3  and  N_6
REMARK    4  A    between atoms: C_9  and  N_10
REMARK    5  A    between atoms: C_14  and  C_15
REMARK                            x       y       z     vdW  Elec       q    Type
REMARK                         _______ _______ _______ _____ _____    ______ ____
ROOT
ATOM      1  N   UNL     1       4.129  15.109  19.472  0.00  0.00    +0.000 N 
ATOM      2  C   UNL     1       4.407  15.509  18.090  0.00  0.00    +0.000 C 
ATOM      3  C   UNL     1       5.830  15.077  17.755  0.00  0.00    +0.000 C 
ATOM      4  C   UNL     1       6.390  14.831  19.107  0.00  0.00    +0.000 A 
ATOM      5  C   UNL     1       7.644  14.445  19.507  0.00  0.00    +0.000 A 
ATOM      6  N   UNL     1       7.886  14.220  20.814  0.00  0.00    +0.000 NA
ATOM      7  C   UNL     1       6.889  14.363  21.715  0.00  0.00    +0.000 A 
ATOM      8  N   UNL     1       7.191  14.159  23.044  0.00  0.00    +0.000 N 
ATOM      9  C   UNL     1       8.527  13.709  23.451  0.00  0.00    +0.000 C 
ATOM     10  C   UNL     1       8.492  12.247  23.921  0.00  0.00    +0.000 C 
ATOM     11  O   UNL     1       7.514  12.059  24.958  0.00  0.00    +0.000 OA
ATOM     12  C   UNL     1       6.204  12.392  24.465  0.00  0.00    +0.000 C 
ATOM     13  C   UNL     1       6.124  13.858  24.001  0.00  0.00    +0.000 C 
ATOM     14  N   UNL     1       5.636  14.717  21.364  0.00  0.00    +0.000 NA
ATOM     15  C   UNL     1       5.400  14.918  20.065  0.00  0.00    +0.000 A 
ENDROOT
BRANCH   5  16
ATOM     16  C   UNL     1       8.751  14.134  18.591  0.00  0.00    +0.000 A 
ATOM     17  C   UNL     1       9.092  12.867  18.154  0.00  0.00    +0.000 A 
ATOM     18  N   UNL     1      10.180  12.560  17.414  0.00  0.00    +0.000 NA
ATOM     19  C   UNL     1      10.966  13.578  17.069  0.00  0.00    +0.000 A 
ATOM     20  N   UNL     1      12.103  13.279  16.356  0.00  0.00    +0.000 N 
ATOM     21  N   UNL     1      10.707  14.857  17.344  0.00  0.00    +0.000 NA
ATOM     22  C   UNL     1       9.610  15.102  18.102  0.00  0.00    +0.000 A 
ATOM     23  H   UNL     1      11.994  12.390  15.891  0.00  0.00    +0.000 HD
ATOM     24  H   UNL     1      12.372  14.077  15.785  0.00  0.00    +0.000 HD
ENDBRANCH   5  16
BRANCH   1  28
ATOM     25  N   UNL     1       0.845  14.636  20.357  0.00  0.00    +0.000 NA
ATOM     26  C   UNL     1       0.639  15.941  19.691  0.00  0.00    +0.000 C 
ATOM     27  C   UNL     1       2.010  16.335  19.192  0.00  0.00    +0.000 C 
ATOM     28  C   UNL     1       3.020  15.741  20.196  0.00  0.00    +0.000 C 
ATOM     29  C   UNL     1       2.177  14.762  21.038  0.00  0.00    +0.000 C 
BRANCH  25  30
ATOM     30  S   UNL     1       0.726  13.250  19.398  0.00  0.00    +0.000 S 
ATOM     31  O   UNL     1       2.015  12.612  19.356  0.00  0.00    +0.000 OA
ATOM     32  O   UNL     1      -0.044  13.532  18.210  0.00  0.00    +0.000 OA
BRANCH  30  34
ATOM     33  C   UNL     1      -1.231  11.519  19.707  0.00  0.00    +0.000 C 
ATOM     34  N   UNL     1      -0.224  12.320  20.428  0.00  0.00    +0.000 NA
ATOM     35  H   UNL     1       0.411  11.718  20.952  0.00  0.00    +0.000 HD
ENDBRANCH  30  34
ENDBRANCH  25  30
ENDBRANCH   1  28
TORSDOF 4
ENDMDL
