MODEL 1
REMARK VINA RESULT:      -8.0      0.000      0.000
REMARK  Name = 
REMARK  4 active torsions:
REMARK  status: ('A' for Active; 'I' for Inactive)
REMARK    1  A    between atoms: C_2  and  C_11
REMARK    2  A    between atoms: N_3  and  N_4
REMARK    3  A    between atoms: C_5  and  C_6
REMARK    4  A    between atoms: C_13  and  C_14
REMARK                            x       y       z     vdW  Elec       q    Type
REMARK                         _______ _______ _______ _____ _____    ______ ____
ROOT
ATOM      1  C   UNL     1       7.426   6.964  17.553  0.00  0.00    +0.000 A 
ATOM      2  C   UNL     1       7.733   8.342  17.406  0.00  0.00    +0.000 A 
ATOM      3  C   UNL     1       8.489   8.703  18.500  0.00  0.00    +0.000 A 
ATOM      4  N   UNL     1       8.602   7.543  19.224  0.00  0.00    +0.000 N 
ATOM      5  N   UNL     1       7.954   6.478  18.693  0.00  0.00    +0.000 NA
ATOM      6  H   UNL     1       9.126   7.407  20.082  0.00  0.00    +0.000 HD
ENDROOT
BRANCH   3   7
ATOM      7  C   UNL     1       9.094   9.994  18.848  0.00  0.00    +0.000 A 
ATOM      8  C   UNL     1       9.254  10.342  20.198  0.00  0.00    +0.000 A 
ATOM      9  C   UNL     1       9.843  11.555  20.567  0.00  0.00    +0.000 A 
ATOM     10  C   UNL     1      10.292  12.455  19.596  0.00  0.00    +0.000 A 
ATOM     11  C   UNL     1      10.887  13.676  19.956  0.00  0.00    +0.000 A 
ATOM     12  C   UNL     1      11.332  14.567  18.978  0.00  0.00    +0.000 A 
ATOM     13  C   UNL     1      11.188  14.245  17.632  0.00  0.00    +0.000 A 
ATOM     14  C   UNL     1      10.600  13.033  17.260  0.00  0.00    +0.000 A 
ATOM     15  C   UNL     1      10.143  12.124  18.230  0.00  0.00    +0.000 A 
ATOM     16  C   UNL     1       9.547  10.894  17.875  0.00  0.00    +0.000 A 
ENDBRANCH   3   7
BRANCH   1  18
ATOM     17  O   UNL     1       5.444   6.406  16.418  0.00  0.00    +0.000 OA
ATOM     18  C   UNL     1       6.643   6.180  16.588  0.00  0.00    +0.000 C 
ATOM     19  N   UNL     1       7.351   5.193  15.914  0.00  0.00    +0.000 N 
ATOM     20  H   UNL     1       8.336   5.059  16.123  0.00  0.00    +0.000 HD
BRANCH  19  21
ATOM     21  N   UNL     1       6.671   4.419  15.015  0.00  0.00    +0.000 NA
ATOM     22  C   UNL     1       6.893   4.585  13.753  0.00  0.00    +0.000 C 
BRANCH  22  23
ATOM     23  C   UNL     1       6.178   3.751  12.812  0.00  0.00    +0.000 A 
ATOM     24  C   UNL     1       4.838   3.801  12.473  0.00  0.00    +0.000 A 
ATOM     25  C   UNL     1       4.477   2.804  11.522  0.00  0.00    +0.000 A 
ATOM     26  C   UNL     1       5.557   2.028  11.161  0.00  0.00    +0.000 A 
ATOM     27  S   UNL     1       6.992   2.513  11.963  0.00  0.00    +0.000 S 
ENDBRANCH  22  23
ENDBRANCH  19  21
ENDBRANCH   1  18
TORSDOF 4
ENDMDL
MODEL 2
REMARK VINA RESULT:      -8.0      6.585     10.062
REMARK  Name = 
REMARK  4 active torsions:
REMARK  status: ('A' for Active; 'I' for Inactive)
REMARK    1  A    between atoms: C_2  and  C_11
REMARK    2  A    between atoms: N_3  and  N_4
REMARK    3  A    between atoms: C_5  and  C_6
REMARK    4  A    between atoms: C_13  and  C_14
REMARK                            x       y       z     vdW  Elec       q    Type
REMARK                         _______ _______ _______ _____ _____    ______ ____
ROOT
ATOM      1  C   UNL     1       3.016   5.092  19.299  0.00  0.00    +0.000 A 
ATOM      2  C   UNL     1       3.662   5.687  18.185  0.00  0.00    +0.000 A 
ATOM      3  C   UNL     1       4.425   4.705  17.592  0.00  0.00    +0.000 A 
ATOM      4  N   UNL     1       4.191   3.592  18.361  0.00  0.00    +0.000 N 
ATOM      5  N   UNL     1       3.363   3.795  19.413  0.00  0.00    +0.000 NA
ATOM      6  H   UNL     1       4.553   2.656  18.208  0.00  0.00    +0.000 HD
ENDROOT
BRANCH   3   7
ATOM      7  C   UNL     1       5.276   4.758  16.397  0.00  0.00    +0.000 A 
ATOM      8  C   UNL     1       6.464   5.503  16.426  0.00  0.00    +0.000 A 
ATOM      9  C   UNL     1       7.309   5.562  15.314  0.00  0.00    +0.000 A 
ATOM     10  C   UNL     1       6.990   4.874  14.139  0.00  0.00    +0.000 A 
ATOM     11  C   UNL     1       7.832   4.924  13.015  0.00  0.00    +0.000 A 
ATOM     12  C   UNL     1       7.504   4.233  11.848  0.00  0.00    +0.000 A 
ATOM     13  C   UNL     1       6.333   3.484  11.793  0.00  0.00    +0.000 A 
ATOM     14  C   UNL     1       5.488   3.423  12.904  0.00  0.00    +0.000 A 
ATOM     15  C   UNL     1       5.799   4.115  14.088  0.00  0.00    +0.000 A 
ATOM     16  C   UNL     1       4.958   4.065  15.221  0.00  0.00    +0.000 A 
ENDBRANCH   3   7
BRANCH   1  18
ATOM     17  O   UNL     1       1.296   5.174  20.900  0.00  0.00    +0.000 OA
ATOM     18  C   UNL     1       2.093   5.798  20.199  0.00  0.00    +0.000 C 
ATOM     19  N   UNL     1       2.193   7.183  20.181  0.00  0.00    +0.000 N 
ATOM     20  H   UNL     1       2.865   7.624  19.561  0.00  0.00    +0.000 HD
BRANCH  19  21
ATOM     21  N   UNL     1       1.347   7.896  20.985  0.00  0.00    +0.000 NA
ATOM     22  C   UNL     1       1.134   9.143  20.720  0.00  0.00    +0.000 C 
BRANCH  22  23
ATOM     23  C   UNL     1       0.227   9.883  21.570  0.00  0.00    +0.000 A 
ATOM     24  C   UNL     1      -0.245   9.535  22.822  0.00  0.00    +0.000 A 
ATOM     25  C   UNL     1      -1.146  10.502  23.354  0.00  0.00    +0.000 A 
ATOM     26  C   UNL     1      -1.328  11.559  22.491  0.00  0.00    +0.000 A 
ATOM     27  S   UNL     1      -0.408  11.383  21.056  0.00  0.00    +0.000 S 
ENDBRANCH  22  23
ENDBRANCH  19  21
ENDBRANCH   1  18
TORSDOF 4
ENDMDL
MODEL 3
REMARK VINA RESULT:      -7.9     10.114     13.280
REMARK  Name = 
REMARK  4 active torsions:
REMARK  status: ('A' for Active; 'I' for Inactive)
REMARK    1  A    between atoms: C_2  and  C_11
REMARK    2  A    between atoms: N_3  and  N_4
REMARK    3  A    between atoms: C_5  and  C_6
REMARK    4  A    between atoms: C_13  and  C_14
REMARK                            x       y       z     vdW  Elec       q    Type
REMARK                         _______ _______ _______ _____ _____    ______ ____
ROOT
ATOM      1  C   UNL     1       0.500  10.090  21.749  0.00  0.00    +0.000 A 
ATOM      2  C   UNL     1       0.492   9.239  20.614  0.00  0.00    +0.000 A 
ATOM      3  C   UNL     1       1.373   8.212  20.877  0.00  0.00    +0.000 A 
ATOM      4  N   UNL     1       1.844   8.491  22.136  0.00  0.00    +0.000 N 
ATOM      5  N   UNL     1       1.354   9.630  22.684  0.00  0.00    +0.000 NA
ATOM      6  H   UNL     1       2.487   7.932  22.686  0.00  0.00    +0.000 HD
ENDROOT
BRANCH   3   7
ATOM      7  C   UNL     1       1.738   7.045  20.065  0.00  0.00    +0.000 A 
ATOM      8  C   UNL     1       2.434   7.229  18.861  0.00  0.00    +0.000 A 
ATOM      9  C   UNL     1       2.813   6.141  18.071  0.00  0.00    +0.000 A 
ATOM     10  C   UNL     1       2.508   4.833  18.464  0.00  0.00    +0.000 A 
ATOM     11  C   UNL     1       2.887   3.731  17.679  0.00  0.00    +0.000 A 
ATOM     12  C   UNL     1       2.578   2.431  18.081  0.00  0.00    +0.000 A 
ATOM     13  C   UNL     1       1.890   2.220  19.271  0.00  0.00    +0.000 A 
ATOM     14  C   UNL     1       1.511   3.307  20.064  0.00  0.00    +0.000 A 
ATOM     15  C   UNL     1       1.810   4.624  19.674  0.00  0.00    +0.000 A 
ATOM     16  C   UNL     1       1.435   5.735  20.461  0.00  0.00    +0.000 A 
ENDBRANCH   3   7
BRANCH   1  18
ATOM     17  O   UNL     1      -0.269  12.193  21.032  0.00  0.00    +0.000 OA
ATOM     18  C   UNL     1      -0.319  11.303  21.882  0.00  0.00    +0.000 C 
ATOM     19  N   UNL     1      -1.118  11.357  23.017  0.00  0.00    +0.000 N 
ATOM     20  H   UNL     1      -1.089  10.588  23.680  0.00  0.00    +0.000 HD
BRANCH  19  21
ATOM     21  N   UNL     1      -1.889  12.470  23.204  0.00  0.00    +0.000 NA
ATOM     22  C   UNL     1      -3.162  12.328  23.374  0.00  0.00    +0.000 C 
BRANCH  22  23
ATOM     23  C   UNL     1      -3.966  13.512  23.585  0.00  0.00    +0.000 A 
ATOM     24  C   UNL     1      -3.560  14.746  24.058  0.00  0.00    +0.000 A 
ATOM     25  C   UNL     1      -4.636  15.674  24.157  0.00  0.00    +0.000 A 
ATOM     26  C   UNL     1      -5.829  15.118  23.752  0.00  0.00    +0.000 A 
ATOM     27  S   UNL     1      -5.640  13.491  23.248  0.00  0.00    +0.000 S 
ENDBRANCH  22  23
ENDBRANCH  19  21
ENDBRANCH   1  18
TORSDOF 4
ENDMDL
MODEL 4
REMARK VINA RESULT:      -7.7      7.720     11.016
REMARK  Name = 
REMARK  4 active torsions:
REMARK  status: ('A' for Active; 'I' for Inactive)
REMARK    1  A    between atoms: C_2  and  C_11
REMARK    2  A    between atoms: N_3  and  N_4
REMARK    3  A    between atoms: C_5  and  C_6
REMARK    4  A    between atoms: C_13  and  C_14
REMARK                            x       y       z     vdW  Elec       q    Type
REMARK                         _______ _______ _______ _____ _____    ______ ____
ROOT
ATOM      1  C   UNL     1       1.076  10.012  19.101  0.00  0.00    +0.000 A 
ATOM      2  C   UNL     1       1.780   9.286  18.106  0.00  0.00    +0.000 A 
ATOM      3  C   UNL     1       2.154   8.087  18.673  0.00  0.00    +0.000 A 
ATOM      4  N   UNL     1       1.654   8.152  19.950  0.00  0.00    +0.000 N 
ATOM      5  N   UNL     1       1.016   9.309  20.250  0.00  0.00    +0.000 NA
ATOM      6  H   UNL     1       1.698   7.430  20.661  0.00  0.00    +0.000 HD
ENDROOT
BRANCH   3   7
ATOM      7  C   UNL     1       2.880   6.951  18.094  0.00  0.00    +0.000 A 
ATOM      8  C   UNL     1       2.386   5.650  18.271  0.00  0.00    +0.000 A 
ATOM      9  C   UNL     1       3.040   4.546  17.718  0.00  0.00    +0.000 A 
ATOM     10  C   UNL     1       4.210   4.711  16.970  0.00  0.00    +0.000 A 
ATOM     11  C   UNL     1       4.875   3.608  16.407  0.00  0.00    +0.000 A 
ATOM     12  C   UNL     1       6.042   3.785  15.662  0.00  0.00    +0.000 A 
ATOM     13  C   UNL     1       6.553   5.064  15.469  0.00  0.00    +0.000 A 
ATOM     14  C   UNL     1       5.899   6.170  16.020  0.00  0.00    +0.000 A 
ATOM     15  C   UNL     1       4.726   6.012  16.776  0.00  0.00    +0.000 A 
ATOM     16  C   UNL     1       4.051   7.117  17.341  0.00  0.00    +0.000 A 
ENDBRANCH   3   7
BRANCH   1  18
ATOM     17  O   UNL     1      -0.705  11.547  19.120  0.00  0.00    +0.000 OA
ATOM     18  C   UNL     1       0.490  11.344  18.899  0.00  0.00    +0.000 C 
ATOM     19  N   UNL     1       1.372  12.317  18.446  0.00  0.00    +0.000 N 
ATOM     20  H   UNL     1       2.341  12.065  18.272  0.00  0.00    +0.000 HD
BRANCH  19  21
ATOM     21  N   UNL     1       0.880  13.573  18.223  0.00  0.00    +0.000 NA
ATOM     22  C   UNL     1       1.298  14.548  18.960  0.00  0.00    +0.000 C 
BRANCH  22  23
ATOM     23  C   UNL     1       0.781  15.875  18.705  0.00  0.00    +0.000 A 
ATOM     24  C   UNL     1      -0.531  16.307  18.772  0.00  0.00    +0.000 A 
ATOM     25  C   UNL     1      -0.671  17.683  18.432  0.00  0.00    +0.000 A 
ATOM     26  C   UNL     1       0.542  18.258  18.121  0.00  0.00    +0.000 A 
ATOM     27  S   UNL     1       1.834  17.140  18.250  0.00  0.00    +0.000 S 
ENDBRANCH  22  23
ENDBRANCH  19  21
ENDBRANCH   1  18
TORSDOF 4
ENDMDL
MODEL 5
REMARK VINA RESULT:      -7.6     10.046     12.776
REMARK  Name = 
REMARK  4 active torsions:
REMARK  status: ('A' for Active; 'I' for Inactive)
REMARK    1  A    between atoms: C_2  and  C_11
REMARK    2  A    between atoms: N_3  and  N_4
REMARK    3  A    between atoms: C_5  and  C_6
REMARK    4  A    between atoms: C_13  and  C_14
REMARK                            x       y       z     vdW  Elec       q    Type
REMARK                         _______ _______ _______ _____ _____    ______ ____
ROOT
ATOM      1  C   UNL     1       0.267  10.025  21.693  0.00  0.00    +0.000 A 
ATOM      2  C   UNL     1       0.453   9.176  20.571  0.00  0.00    +0.000 A 
ATOM      3  C   UNL     1       1.422   8.259  20.918  0.00  0.00    +0.000 A 
ATOM      4  N   UNL     1       1.750   8.594  22.209  0.00  0.00    +0.000 N 
ATOM      5  N   UNL     1       1.088   9.668  22.701  0.00  0.00    +0.000 NA
ATOM      6  H   UNL     1       2.406   8.114  22.816  0.00  0.00    +0.000 HD
ENDROOT
BRANCH   3   7
ATOM      7  C   UNL     1       1.986   7.141  20.153  0.00  0.00    +0.000 A 
ATOM      8  C   UNL     1       1.661   5.824  20.510  0.00  0.00    +0.000 A 
ATOM      9  C   UNL     1       2.165   4.735  19.793  0.00  0.00    +0.000 A 
ATOM     10  C   UNL     1       3.007   4.932  18.694  0.00  0.00    +0.000 A 
ATOM     11  C   UNL     1       3.517   3.845  17.965  0.00  0.00    +0.000 A 
ATOM     12  C   UNL     1       4.357   4.054  16.870  0.00  0.00    +0.000 A 
ATOM     13  C   UNL     1       4.693   5.350  16.492  0.00  0.00    +0.000 A 
ATOM     14  C   UNL     1       4.190   6.440  17.207  0.00  0.00    +0.000 A 
ATOM     15  C   UNL     1       3.346   6.251  18.315  0.00  0.00    +0.000 A 
ATOM     16  C   UNL     1       2.828   7.339  19.050  0.00  0.00    +0.000 A 
ENDBRANCH   3   7
BRANCH   1  18
ATOM     17  O   UNL     1      -1.024  11.731  20.717  0.00  0.00    +0.000 OA
ATOM     18  C   UNL     1      -0.695  11.134  21.744  0.00  0.00    +0.000 C 
ATOM     19  N   UNL     1      -1.176  11.443  23.010  0.00  0.00    +0.000 N 
ATOM     20  H   UNL     1      -0.843  10.914  23.810  0.00  0.00    +0.000 HD
BRANCH  19  21
ATOM     21  N   UNL     1      -2.062  12.478  23.122  0.00  0.00    +0.000 NA
ATOM     22  C   UNL     1      -3.261  12.234  23.538  0.00  0.00    +0.000 C 
BRANCH  22  23
ATOM     23  C   UNL     1      -4.185  13.340  23.666  0.00  0.00    +0.000 A 
ATOM     24  C   UNL     1      -5.566  13.311  23.604  0.00  0.00    +0.000 A 
ATOM     25  C   UNL     1      -6.147  14.602  23.750  0.00  0.00    +0.000 A 
ATOM     26  C   UNL     1      -5.189  15.577  23.924  0.00  0.00    +0.000 A 
ATOM     27  S   UNL     1      -3.603  14.926  23.919  0.00  0.00    +0.000 S 
ENDBRANCH  22  23
ENDBRANCH  19  21
ENDBRANCH   1  18
TORSDOF 4
ENDMDL
MODEL 6
REMARK VINA RESULT:      -7.6      8.825     12.282
REMARK  Name = 
REMARK  4 active torsions:
REMARK  status: ('A' for Active; 'I' for Inactive)
REMARK    1  A    between atoms: C_2  and  C_11
REMARK    2  A    between atoms: N_3  and  N_4
REMARK    3  A    between atoms: C_5  and  C_6
REMARK    4  A    between atoms: C_13  and  C_14
REMARK                            x       y       z     vdW  Elec       q    Type
REMARK                         _______ _______ _______ _____ _____    ______ ____
ROOT
ATOM      1  C   UNL     1       0.921  10.314  21.292  0.00  0.00    +0.000 A 
ATOM      2  C   UNL     1       1.015   9.437  20.180  0.00  0.00    +0.000 A 
ATOM      3  C   UNL     1       1.539   8.251  20.648  0.00  0.00    +0.000 A 
ATOM      4  N   UNL     1       1.716   8.472  21.991  0.00  0.00    +0.000 N 
ATOM      5  N   UNL     1       1.374   9.714  22.411  0.00  0.00    +0.000 NA
ATOM      6  H   UNL     1       2.049   7.806  22.681  0.00  0.00    +0.000 HD
ENDROOT
BRANCH   3   7
ATOM      7  C   UNL     1       1.826   6.998  19.940  0.00  0.00    +0.000 A 
ATOM      8  C   UNL     1       2.527   7.033  18.726  0.00  0.00    +0.000 A 
ATOM      9  C   UNL     1       2.834   5.859  18.033  0.00  0.00    +0.000 A 
ATOM     10  C   UNL     1       2.450   4.612  18.536  0.00  0.00    +0.000 A 
ATOM     11  C   UNL     1       2.755   3.425  17.849  0.00  0.00    +0.000 A 
ATOM     12  C   UNL     1       2.366   2.186  18.362  0.00  0.00    +0.000 A 
ATOM     13  C   UNL     1       1.671   2.122  19.565  0.00  0.00    +0.000 A 
ATOM     14  C   UNL     1       1.365   3.295  20.260  0.00  0.00    +0.000 A 
ATOM     15  C   UNL     1       1.744   4.552  19.759  0.00  0.00    +0.000 A 
ATOM     16  C   UNL     1       1.443   5.748  20.446  0.00  0.00    +0.000 A 
ENDBRANCH   3   7
BRANCH   1  18
ATOM     17  O   UNL     1      -0.164  12.191  22.201  0.00  0.00    +0.000 OA
ATOM     18  C   UNL     1       0.395  11.684  21.227  0.00  0.00    +0.000 C 
ATOM     19  N   UNL     1       0.574  12.329  20.010  0.00  0.00    +0.000 N 
ATOM     20  H   UNL     1       1.031  11.836  19.249  0.00  0.00    +0.000 HD
BRANCH  19  21
ATOM     21  N   UNL     1       0.089  13.602  19.884  0.00  0.00    +0.000 NA
ATOM     22  C   UNL     1       0.911  14.559  19.607  0.00  0.00    +0.000 C 
BRANCH  22  23
ATOM     23  C   UNL     1       0.385  15.899  19.462  0.00  0.00    +0.000 A 
ATOM     24  C   UNL     1      -0.437  16.391  18.464  0.00  0.00    +0.000 A 
ATOM     25  C   UNL     1      -0.737  17.772  18.635  0.00  0.00    +0.000 A 
ATOM     26  C   UNL     1      -0.137  18.290  19.762  0.00  0.00    +0.000 A 
ATOM     27  S   UNL     1       0.772  17.107  20.606  0.00  0.00    +0.000 S 
ENDBRANCH  22  23
ENDBRANCH  19  21
ENDBRANCH   1  18
TORSDOF 4
ENDMDL
MODEL 7
REMARK VINA RESULT:      -7.6      8.200     11.461
REMARK  Name = 
REMARK  4 active torsions:
REMARK  status: ('A' for Active; 'I' for Inactive)
REMARK    1  A    between atoms: C_2  and  C_11
REMARK    2  A    between atoms: N_3  and  N_4
REMARK    3  A    between atoms: C_5  and  C_6
REMARK    4  A    between atoms: C_13  and  C_14
REMARK                            x       y       z     vdW  Elec       q    Type
REMARK                         _______ _______ _______ _____ _____    ______ ____
ROOT
ATOM      1  C   UNL     1       1.259   8.565  20.347  0.00  0.00    +0.000 A 
ATOM      2  C   UNL     1       1.919   8.215  19.140  0.00  0.00    +0.000 A 
ATOM      3  C   UNL     1       2.474   6.968  19.334  0.00  0.00    +0.000 A 
ATOM      4  N   UNL     1       2.114   6.639  20.617  0.00  0.00    +0.000 N 
ATOM      5  N   UNL     1       1.399   7.590  21.266  0.00  0.00    +0.000 NA
ATOM      6  H   UNL     1       2.310   5.770  21.102  0.00  0.00    +0.000 HD
ENDROOT
BRANCH   3   7
ATOM      7  C   UNL     1       3.243   6.121  18.415  0.00  0.00    +0.000 A 
ATOM      8  C   UNL     1       2.745   4.860  18.054  0.00  0.00    +0.000 A 
ATOM      9  C   UNL     1       3.440   4.034  17.167  0.00  0.00    +0.000 A 
ATOM     10  C   UNL     1       4.657   4.446  16.613  0.00  0.00    +0.000 A 
ATOM     11  C   UNL     1       5.364   3.624  15.719  0.00  0.00    +0.000 A 
ATOM     12  C   UNL     1       6.577   4.046  15.173  0.00  0.00    +0.000 A 
ATOM     13  C   UNL     1       7.093   5.292  15.512  0.00  0.00    +0.000 A 
ATOM     14  C   UNL     1       6.398   6.120  16.397  0.00  0.00    +0.000 A 
ATOM     15  C   UNL     1       5.177   5.713  16.961  0.00  0.00    +0.000 A 
ATOM     16  C   UNL     1       4.460   6.535  17.857  0.00  0.00    +0.000 A 
ENDBRANCH   3   7
BRANCH   1  18
ATOM     17  O   UNL     1      -0.039  10.384  19.616  0.00  0.00    +0.000 OA
ATOM     18  C   UNL     1       0.522   9.819  20.556  0.00  0.00    +0.000 C 
ATOM     19  N   UNL     1       0.522  10.294  21.861  0.00  0.00    +0.000 N 
ATOM     20  H   UNL     1       1.023   9.778  22.577  0.00  0.00    +0.000 HD
BRANCH  19  21
ATOM     21  N   UNL     1      -0.134  11.467  22.114  0.00  0.00    +0.000 NA
ATOM     22  C   UNL     1      -1.149  11.456  22.913  0.00  0.00    +0.000 C 
BRANCH  22  23
ATOM     23  C   UNL     1      -1.827  12.705  23.184  0.00  0.00    +0.000 A 
ATOM     24  C   UNL     1      -3.160  12.905  23.492  0.00  0.00    +0.000 A 
ATOM     25  C   UNL     1      -3.479  14.281  23.674  0.00  0.00    +0.000 A 
ATOM     26  C   UNL     1      -2.376  15.088  23.503  0.00  0.00    +0.000 A 
ATOM     27  S   UNL     1      -0.969  14.181  23.135  0.00  0.00    +0.000 S 
ENDBRANCH  22  23
ENDBRANCH  19  21
ENDBRANCH   1  18
TORSDOF 4
ENDMDL
MODEL 8
REMARK VINA RESULT:      -7.5      3.335      3.959
REMARK  Name = 
REMARK  4 active torsions:
REMARK  status: ('A' for Active; 'I' for Inactive)
REMARK    1  A    between atoms: C_2  and  C_11
REMARK    2  A    between atoms: N_3  and  N_4
REMARK    3  A    between atoms: C_5  and  C_6
REMARK    4  A    between atoms: C_13  and  C_14
REMARK                            x       y       z     vdW  Elec       q    Type
REMARK                         _______ _______ _______ _____ _____    ______ ____
ROOT
ATOM      1  C   UNL     1       8.076   8.397  18.192  0.00  0.00    +0.000 A 
ATOM      2  C   UNL     1       8.204   9.634  17.510  0.00  0.00    +0.000 A 
ATOM      3  C   UNL     1       9.091  10.401  18.234  0.00  0.00    +0.000 A 
ATOM      4  N   UNL     1       9.449   9.594  19.285  0.00  0.00    +0.000 N 
ATOM      5  N   UNL     1       8.838   8.385  19.303  0.00  0.00    +0.000 NA
ATOM      6  H   UNL     1      10.122   9.803  20.014  0.00  0.00    +0.000 HD
ENDROOT
BRANCH   3   7
ATOM      7  C   UNL     1       9.604  11.752  17.978  0.00  0.00    +0.000 A 
ATOM      8  C   UNL     1      10.911  11.916  17.494  0.00  0.00    +0.000 A 
ATOM      9  C   UNL     1      11.428  13.185  17.221  0.00  0.00    +0.000 A 
ATOM     10  C   UNL     1      10.650  14.330  17.421  0.00  0.00    +0.000 A 
ATOM     11  C   UNL     1      11.158  15.611  17.148  0.00  0.00    +0.000 A 
ATOM     12  C   UNL     1      10.373  16.747  17.352  0.00  0.00    +0.000 A 
ATOM     13  C   UNL     1       9.073  16.613  17.828  0.00  0.00    +0.000 A 
ATOM     14  C   UNL     1       8.554  15.345  18.101  0.00  0.00    +0.000 A 
ATOM     15  C   UNL     1       9.330  14.189  17.905  0.00  0.00    +0.000 A 
ATOM     16  C   UNL     1       8.824  12.899  18.175  0.00  0.00    +0.000 A 
ENDBRANCH   3   7
BRANCH   1  18
ATOM     17  O   UNL     1       6.688   7.312  16.634  0.00  0.00    +0.000 OA
ATOM     18  C   UNL     1       7.230   7.283  17.741  0.00  0.00    +0.000 C 
ATOM     19  N   UNL     1       7.096   6.237  18.644  0.00  0.00    +0.000 N 
ATOM     20  H   UNL     1       7.562   6.297  19.544  0.00  0.00    +0.000 HD
BRANCH  19  21
ATOM     21  N   UNL     1       6.306   5.180  18.286  0.00  0.00    +0.000 NA
ATOM     22  C   UNL     1       5.276   4.894  19.012  0.00  0.00    +0.000 C 
BRANCH  22  23
ATOM     23  C   UNL     1       4.441   3.782  18.616  0.00  0.00    +0.000 A 
ATOM     24  C   UNL     1       3.735   3.621  17.437  0.00  0.00    +0.000 A 
ATOM     25  C   UNL     1       2.999   2.402  17.403  0.00  0.00    +0.000 A 
ATOM     26  C   UNL     1       3.171   1.669  18.557  0.00  0.00    +0.000 A 
ATOM     27  S   UNL     1       4.222   2.450  19.662  0.00  0.00    +0.000 S 
ENDBRANCH  22  23
ENDBRANCH  19  21
ENDBRANCH   1  18
TORSDOF 4
ENDMDL
MODEL 9
REMARK VINA RESULT:      -7.5      8.103     11.243
REMARK  Name = 
REMARK  4 active torsions:
REMARK  status: ('A' for Active; 'I' for Inactive)
REMARK    1  A    between atoms: C_2  and  C_11
REMARK    2  A    between atoms: N_3  and  N_4
REMARK    3  A    between atoms: C_5  and  C_6
REMARK    4  A    between atoms: C_13  and  C_14
REMARK                            x       y       z     vdW  Elec       q    Type
REMARK                         _______ _______ _______ _____ _____    ______ ____
ROOT
ATOM      1  C   UNL     1       0.874   9.640  20.104  0.00  0.00    +0.000 A 
ATOM      2  C   UNL     1       1.446   9.004  18.972  0.00  0.00    +0.000 A 
ATOM      3  C   UNL     1       2.056   7.853  19.423  0.00  0.00    +0.000 A 
ATOM      4  N   UNL     1       1.811   7.855  20.774  0.00  0.00    +0.000 N 
ATOM      5  N   UNL     1       1.120   8.930  21.223  0.00  0.00    +0.000 NA
ATOM      6  H   UNL     1       2.074   7.139  21.444  0.00  0.00    +0.000 HD
ENDROOT
BRANCH   3   7
ATOM      7  C   UNL     1       2.777   6.811  18.684  0.00  0.00    +0.000 A 
ATOM      8  C   UNL     1       2.542   5.461  18.985  0.00  0.00    +0.000 A 
ATOM      9  C   UNL     1       3.197   4.440  18.289  0.00  0.00    +0.000 A 
ATOM     10  C   UNL     1       4.105   4.741  17.269  0.00  0.00    +0.000 A 
ATOM     11  C   UNL     1       4.767   3.724  16.561  0.00  0.00    +0.000 A 
ATOM     12  C   UNL     1       5.671   4.035  15.545  0.00  0.00    +0.000 A 
ATOM     13  C   UNL     1       5.921   5.366  15.225  0.00  0.00    +0.000 A 
ATOM     14  C   UNL     1       5.266   6.387  15.918  0.00  0.00    +0.000 A 
ATOM     15  C   UNL     1       4.355   6.094  16.947  0.00  0.00    +0.000 A 
ATOM     16  C   UNL     1       3.684   7.112  17.660  0.00  0.00    +0.000 A 
ENDBRANCH   3   7
BRANCH   1  18
ATOM     17  O   UNL     1      -1.068  10.905  19.708  0.00  0.00    +0.000 OA
ATOM     18  C   UNL     1       0.114  10.897  20.055  0.00  0.00    +0.000 C 
ATOM     19  N   UNL     1       0.826  12.033  20.416  0.00  0.00    +0.000 N 
ATOM     20  H   UNL     1       1.804  11.944  20.675  0.00  0.00    +0.000 HD
BRANCH  19  21
ATOM     21  N   UNL     1       0.176  13.235  20.374  0.00  0.00    +0.000 NA
ATOM     22  C   UNL     1       0.344  14.001  19.347  0.00  0.00    +0.000 C 
BRANCH  22  23
ATOM     23  C   UNL     1      -0.359  15.265  19.307  0.00  0.00    +0.000 A 
ATOM     24  C   UNL     1      -0.229  16.286  18.384  0.00  0.00    +0.000 A 
ATOM     25  C   UNL     1      -1.070  17.397  18.675  0.00  0.00    +0.000 A 
ATOM     26  C   UNL     1      -1.819  17.186  19.812  0.00  0.00    +0.000 A 
ATOM     27  S   UNL     1      -1.510  15.651  20.509  0.00  0.00    +0.000 S 
ENDBRANCH  22  23
ENDBRANCH  19  21
ENDBRANCH   1  18
TORSDOF 4
ENDMDL
