MODEL 1
REMARK VINA RESULT:      -8.1      0.000      0.000
REMARK  Name = 
REMARK  4 active torsions:
REMARK  status: ('A' for Active; 'I' for Inactive)
REMARK    1  A    between atoms: C_1  and  C_2
REMARK    2  A    between atoms: C_8  and  C_9
REMARK    3  A    between atoms: C_17  and  C_18
REMARK    4  A    between atoms: C_21  and  C_22
REMARK                            x       y       z     vdW  Elec       q    Type
REMARK                         _______ _______ _______ _____ _____    ______ ____
ROOT
ATOM      1  C   UNL     1       4.491   0.972  18.320  0.00  0.00    +0.000 C 
ATOM      2  C   UNL     1       3.824   2.216  18.791  0.00  0.00    +0.000 A 
ATOM      3  N   UNL     1       2.837   2.135  19.694  0.00  0.00    +0.000 NA
ATOM      4  N   UNL     1       2.474   3.424  19.907  0.00  0.00    +0.000 N 
ATOM      5  C   UNL     1       1.469   3.801  20.820  0.00  0.00    +0.000 A 
ATOM      6  O   UNL     1       0.854   2.988  21.498  0.00  0.00    +0.000 OA
ATOM      7  C   UNL     1       1.216   5.267  20.882  0.00  0.00    +0.000 A 
ATOM      8  C   UNL     1       1.951   6.090  20.116  0.00  0.00    +0.000 A 
ATOM      9  N   UNL     1       2.949   5.637  19.276  0.00  0.00    +0.000 N 
ATOM     10  C   UNL     1       3.207   4.311  19.137  0.00  0.00    +0.000 A 
ATOM     11  C   UNL     1       4.088   3.559  18.386  0.00  0.00    +0.000 A 
ATOM     12  H   UNL     1       3.502   6.358  18.819  0.00  0.00    +0.000 HD
ENDROOT
BRANCH   8  13
ATOM     13  C   UNL     1       1.693   7.542  20.126  0.00  0.00    +0.000 A 
ATOM     14  C   UNL     1       1.215   8.121  21.317  0.00  0.00    +0.000 A 
ATOM     15  C   UNL     1       0.948   9.490  21.418  0.00  0.00    +0.000 A 
ATOM     16  C   UNL     1       1.188  10.247  20.274  0.00  0.00    +0.000 A 
ATOM     17  N   UNL     1       1.048  11.577  19.989  0.00  0.00    +0.000 N 
ATOM     18  N   UNL     1       1.421  11.863  18.734  0.00  0.00    +0.000 NA
ATOM     19  N   UNL     1       1.805  10.727  18.166  0.00  0.00    +0.000 NA
ATOM     20  C   UNL     1       1.669   9.717  19.085  0.00  0.00    +0.000 A 
ATOM     21  C   UNL     1       1.938   8.336  18.973  0.00  0.00    +0.000 A 
ATOM     22  C   UNL     1       2.467   7.740  17.699  0.00  0.00    +0.000 C 
ATOM     23  H   UNL     1       0.713  12.327  20.581  0.00  0.00    +0.000 HD
ENDBRANCH   8  13
BRANCH  11  24
ATOM     24  C   UNL     1       5.083   4.078  17.463  0.00  0.00    +0.000 A 
ATOM     25  C   UNL     1       4.793   4.346  16.127  0.00  0.00    +0.000 A 
ATOM     26  C   UNL     1       5.768   4.943  15.331  0.00  0.00    +0.000 A 
ATOM     27  C   UNL     1       7.016   5.215  15.874  0.00  0.00    +0.000 A 
ATOM     28  C   UNL     1       7.240   4.869  17.195  0.00  0.00    +0.000 A 
ATOM     29  N   UNL     1       6.304   4.314  17.996  0.00  0.00    +0.000 NA
ENDBRANCH  11  24
TORSDOF 2
ENDMDL
MODEL 2
REMARK VINA RESULT:      -8.0      0.669      1.591
REMARK  Name = 
REMARK  4 active torsions:
REMARK  status: ('A' for Active; 'I' for Inactive)
REMARK    1  A    between atoms: C_1  and  C_2
REMARK    2  A    between atoms: C_8  and  C_9
REMARK    3  A    between atoms: C_17  and  C_18
REMARK    4  A    between atoms: C_21  and  C_22
REMARK                            x       y       z     vdW  Elec       q    Type
REMARK                         _______ _______ _______ _____ _____    ______ ____
ROOT
ATOM      1  C   UNL     1       4.548   1.102  18.646  0.00  0.00    +0.000 C 
ATOM      2  C   UNL     1       3.909   2.419  18.916  0.00  0.00    +0.000 A 
ATOM      3  N   UNL     1       2.956   2.511  19.854  0.00  0.00    +0.000 NA
ATOM      4  N   UNL     1       2.611   3.822  19.850  0.00  0.00    +0.000 N 
ATOM      5  C   UNL     1       1.644   4.367  20.719  0.00  0.00    +0.000 A 
ATOM      6  O   UNL     1       1.050   3.693  21.551  0.00  0.00    +0.000 OA
ATOM      7  C   UNL     1       1.404   5.824  20.532  0.00  0.00    +0.000 A 
ATOM      8  C   UNL     1       2.116   6.491  19.608  0.00  0.00    +0.000 A 
ATOM      9  N   UNL     1       3.078   5.884  18.826  0.00  0.00    +0.000 N 
ATOM     10  C   UNL     1       3.321   4.550  18.912  0.00  0.00    +0.000 A 
ATOM     11  C   UNL     1       4.167   3.666  18.272  0.00  0.00    +0.000 A 
ATOM     12  H   UNL     1       3.619   6.506  18.230  0.00  0.00    +0.000 HD
ENDROOT
BRANCH   8  13
ATOM     13  C   UNL     1       1.869   7.925  19.373  0.00  0.00    +0.000 A 
ATOM     14  C   UNL     1       2.185   8.452  18.106  0.00  0.00    +0.000 A 
ATOM     15  C   UNL     1       1.978   9.799  17.794  0.00  0.00    +0.000 A 
ATOM     16  C   UNL     1       1.436  10.587  18.806  0.00  0.00    +0.000 A 
ATOM     17  N   UNL     1       1.103  11.911  18.880  0.00  0.00    +0.000 N 
ATOM     18  N   UNL     1       0.589  12.232  20.076  0.00  0.00    +0.000 NA
ATOM     19  N   UNL     1       0.582  11.130  20.814  0.00  0.00    +0.000 NA
ATOM     20  C   UNL     1       1.100  10.104  20.063  0.00  0.00    +0.000 A 
ATOM     21  C   UNL     1       1.308   8.747  20.388  0.00  0.00    +0.000 A 
ATOM     22  C   UNL     1       0.946   8.198  21.739  0.00  0.00    +0.000 C 
ATOM     23  H   UNL     1       1.195  12.636  18.179  0.00  0.00    +0.000 HD
ENDBRANCH   8  13
BRANCH  11  24
ATOM     24  C   UNL     1       5.130   4.002  17.238  0.00  0.00    +0.000 A 
ATOM     25  C   UNL     1       4.799   4.010  15.884  0.00  0.00    +0.000 A 
ATOM     26  C   UNL     1       5.745   4.446  14.960  0.00  0.00    +0.000 A 
ATOM     27  C   UNL     1       7.006   4.821  15.404  0.00  0.00    +0.000 A 
ATOM     28  C   UNL     1       7.272   4.734  16.758  0.00  0.00    +0.000 A 
ATOM     29  N   UNL     1       6.365   4.339  17.679  0.00  0.00    +0.000 NA
ENDBRANCH  11  24
TORSDOF 2
ENDMDL
MODEL 3
REMARK VINA RESULT:      -8.0      3.731      6.619
REMARK  Name = 
REMARK  4 active torsions:
REMARK  status: ('A' for Active; 'I' for Inactive)
REMARK    1  A    between atoms: C_1  and  C_2
REMARK    2  A    between atoms: C_8  and  C_9
REMARK    3  A    between atoms: C_17  and  C_18
REMARK    4  A    between atoms: C_21  and  C_22
REMARK                            x       y       z     vdW  Elec       q    Type
REMARK                         _______ _______ _______ _____ _____    ______ ____
ROOT
ATOM      1  C   UNL     1       8.321   5.457  12.068  0.00  0.00    +0.000 C 
ATOM      2  C   UNL     1       7.559   5.231  13.326  0.00  0.00    +0.000 A 
ATOM      3  N   UNL     1       7.914   5.885  14.440  0.00  0.00    +0.000 NA
ATOM      4  N   UNL     1       7.022   5.467  15.371  0.00  0.00    +0.000 N 
ATOM      5  C   UNL     1       7.018   5.936  16.700  0.00  0.00    +0.000 A 
ATOM      6  O   UNL     1       7.819   6.767  17.110  0.00  0.00    +0.000 OA
ATOM      7  C   UNL     1       5.966   5.329  17.561  0.00  0.00    +0.000 A 
ATOM      8  C   UNL     1       5.115   4.439  17.024  0.00  0.00    +0.000 A 
ATOM      9  N   UNL     1       5.164   4.066  15.695  0.00  0.00    +0.000 N 
ATOM     10  C   UNL     1       6.123   4.546  14.861  0.00  0.00    +0.000 A 
ATOM     11  C   UNL     1       6.451   4.356  13.534  0.00  0.00    +0.000 A 
ATOM     12  H   UNL     1       4.411   3.459  15.380  0.00  0.00    +0.000 HD
ENDROOT
BRANCH   8  13
ATOM     13  C   UNL     1       4.091   3.791  17.864  0.00  0.00    +0.000 A 
ATOM     14  C   UNL     1       4.059   2.384  17.901  0.00  0.00    +0.000 A 
ATOM     15  C   UNL     1       3.125   1.687  18.674  0.00  0.00    +0.000 A 
ATOM     16  C   UNL     1       2.234   2.465  19.409  0.00  0.00    +0.000 A 
ATOM     17  N   UNL     1       1.205   2.157  20.254  0.00  0.00    +0.000 N 
ATOM     18  N   UNL     1       0.621   3.255  20.754  0.00  0.00    +0.000 NA
ATOM     19  N   UNL     1       1.248   4.306  20.241  0.00  0.00    +0.000 NA
ATOM     20  C   UNL     1       2.240   3.852  19.408  0.00  0.00    +0.000 A 
ATOM     21  C   UNL     1       3.176   4.564  18.628  0.00  0.00    +0.000 A 
ATOM     22  C   UNL     1       3.207   6.067  18.617  0.00  0.00    +0.000 C 
ATOM     23  H   UNL     1       0.851   1.249  20.530  0.00  0.00    +0.000 HD
ENDBRANCH   8  13
BRANCH  11  24
ATOM     24  C   UNL     1       5.745   3.501  12.595  0.00  0.00    +0.000 A 
ATOM     25  C   UNL     1       4.486   3.825  12.092  0.00  0.00    +0.000 A 
ATOM     26  C   UNL     1       3.920   3.011  11.114  0.00  0.00    +0.000 A 
ATOM     27  C   UNL     1       4.602   1.877  10.695  0.00  0.00    +0.000 A 
ATOM     28  C   UNL     1       5.822   1.597  11.283  0.00  0.00    +0.000 A 
ATOM     29  N   UNL     1       6.406   2.383  12.214  0.00  0.00    +0.000 NA
ENDBRANCH  11  24
TORSDOF 2
ENDMDL
MODEL 4
REMARK VINA RESULT:      -8.0      1.379      1.591
REMARK  Name = 
REMARK  4 active torsions:
REMARK  status: ('A' for Active; 'I' for Inactive)
REMARK    1  A    between atoms: C_1  and  C_2
REMARK    2  A    between atoms: C_8  and  C_9
REMARK    3  A    between atoms: C_17  and  C_18
REMARK    4  A    between atoms: C_21  and  C_22
REMARK                            x       y       z     vdW  Elec       q    Type
REMARK                         _______ _______ _______ _____ _____    ______ ____
ROOT
ATOM      1  C   UNL     1       5.032   2.191  18.731  0.00  0.00    +0.000 C 
ATOM      2  C   UNL     1       4.158   3.325  19.136  0.00  0.00    +0.000 A 
ATOM      3  N   UNL     1       2.906   3.080  19.547  0.00  0.00    +0.000 NA
ATOM      4  N   UNL     1       2.408   4.305  19.846  0.00  0.00    +0.000 N 
ATOM      5  C   UNL     1       1.107   4.506  20.349  0.00  0.00    +0.000 A 
ATOM      6  O   UNL     1       0.331   3.583  20.563  0.00  0.00    +0.000 OA
ATOM      7  C   UNL     1       0.757   5.933  20.589  0.00  0.00    +0.000 A 
ATOM      8  C   UNL     1       1.676   6.882  20.346  0.00  0.00    +0.000 A 
ATOM      9  N   UNL     1       2.948   6.591  19.892  0.00  0.00    +0.000 N 
ATOM     10  C   UNL     1       3.323   5.316  19.611  0.00  0.00    +0.000 A 
ATOM     11  C   UNL     1       4.471   4.718  19.133  0.00  0.00    +0.000 A 
ATOM     12  H   UNL     1       3.587   7.380  19.836  0.00  0.00    +0.000 HD
ENDROOT
BRANCH   8  13
ATOM     13  C   UNL     1       1.342   8.305  20.535  0.00  0.00    +0.000 A 
ATOM     14  C   UNL     1       1.047   8.748  21.838  0.00  0.00    +0.000 A 
ATOM     15  C   UNL     1       0.725  10.082  22.110  0.00  0.00    +0.000 A 
ATOM     16  C   UNL     1       0.720  10.946  21.018  0.00  0.00    +0.000 A 
ATOM     17  N   UNL     1       0.457  12.281  20.886  0.00  0.00    +0.000 N 
ATOM     18  N   UNL     1       0.590  12.696  19.618  0.00  0.00    +0.000 NA
ATOM     19  N   UNL     1       0.933  11.641  18.890  0.00  0.00    +0.000 NA
ATOM     20  C   UNL     1       1.016  10.552  19.721  0.00  0.00    +0.000 A 
ATOM     21  C   UNL     1       1.339   9.207  19.437  0.00  0.00    +0.000 A 
ATOM     22  C   UNL     1       1.670   8.757  18.042  0.00  0.00    +0.000 C 
ATOM     23  H   UNL     1       0.189  12.955  21.593  0.00  0.00    +0.000 HD
ENDBRANCH   8  13
BRANCH  11  24
ATOM     24  C   UNL     1       5.710   5.396  18.791  0.00  0.00    +0.000 A 
ATOM     25  C   UNL     1       5.840   6.178  17.645  0.00  0.00    +0.000 A 
ATOM     26  C   UNL     1       7.024   6.883  17.440  0.00  0.00    +0.000 A 
ATOM     27  C   UNL     1       8.058   6.757  18.358  0.00  0.00    +0.000 A 
ATOM     28  C   UNL     1       7.868   5.918  19.441  0.00  0.00    +0.000 A 
ATOM     29  N   UNL     1       6.721   5.243  19.678  0.00  0.00    +0.000 NA
ENDBRANCH  11  24
TORSDOF 2
ENDMDL
MODEL 5
REMARK VINA RESULT:      -7.8      4.539      9.782
REMARK  Name = 
REMARK  4 active torsions:
REMARK  status: ('A' for Active; 'I' for Inactive)
REMARK    1  A    between atoms: C_1  and  C_2
REMARK    2  A    between atoms: C_8  and  C_9
REMARK    3  A    between atoms: C_17  and  C_18
REMARK    4  A    between atoms: C_21  and  C_22
REMARK                            x       y       z     vdW  Elec       q    Type
REMARK                         _______ _______ _______ _____ _____    ______ ____
ROOT
ATOM      1  C   UNL     1      -3.881  15.197  21.126  0.00  0.00    +0.000 C 
ATOM      2  C   UNL     1      -2.772  14.228  20.911  0.00  0.00    +0.000 A 
ATOM      3  N   UNL     1      -1.553  14.503  21.396  0.00  0.00    +0.000 NA
ATOM      4  N   UNL     1      -0.805  13.428  21.043  0.00  0.00    +0.000 N 
ATOM      5  C   UNL     1       0.556  13.291  21.383  0.00  0.00    +0.000 A 
ATOM      6  O   UNL     1       1.162  14.134  22.033  0.00  0.00    +0.000 OA
ATOM      7  C   UNL     1       1.192  12.044  20.877  0.00  0.00    +0.000 A 
ATOM      8  C   UNL     1       0.446  11.164  20.187  0.00  0.00    +0.000 A 
ATOM      9  N   UNL     1      -0.897  11.359  19.935  0.00  0.00    +0.000 N 
ATOM     10  C   UNL     1      -1.533  12.493  20.329  0.00  0.00    +0.000 A 
ATOM     11  C   UNL     1      -2.817  12.986  20.210  0.00  0.00    +0.000 A 
ATOM     12  H   UNL     1      -1.379  10.582  19.488  0.00  0.00    +0.000 HD
ENDROOT
BRANCH   8  13
ATOM     13  C   UNL     1       1.060   9.941  19.638  0.00  0.00    +0.000 A 
ATOM     14  C   UNL     1       1.489   9.960  18.297  0.00  0.00    +0.000 A 
ATOM     15  C   UNL     1       2.086   8.847  17.697  0.00  0.00    +0.000 A 
ATOM     16  C   UNL     1       2.237   7.723  18.504  0.00  0.00    +0.000 A 
ATOM     17  N   UNL     1       2.757   6.478  18.281  0.00  0.00    +0.000 N 
ATOM     18  N   UNL     1       2.704   5.708  19.377  0.00  0.00    +0.000 NA
ATOM     19  N   UNL     1       2.141   6.428  20.339  0.00  0.00    +0.000 NA
ATOM     20  C   UNL     1       1.840   7.667  19.832  0.00  0.00    +0.000 A 
ATOM     21  C   UNL     1       1.233   8.784  20.445  0.00  0.00    +0.000 A 
ATOM     22  C   UNL     1       0.800   8.751  21.884  0.00  0.00    +0.000 C 
ATOM     23  H   UNL     1       3.153   6.091  17.433  0.00  0.00    +0.000 HD
ENDBRANCH   8  13
BRANCH  11  24
ATOM     24  C   UNL     1      -3.934  12.314  19.570  0.00  0.00    +0.000 A 
ATOM     25  C   UNL     1      -5.213  12.302  20.123  0.00  0.00    +0.000 A 
ATOM     26  C   UNL     1      -6.257  11.730  19.399  0.00  0.00    +0.000 A 
ATOM     27  C   UNL     1      -5.991  11.149  18.167  0.00  0.00    +0.000 A 
ATOM     28  C   UNL     1      -4.684  11.156  17.712  0.00  0.00    +0.000 A 
ATOM     29  N   UNL     1      -3.658  11.727  18.382  0.00  0.00    +0.000 NA
ENDBRANCH  11  24
TORSDOF 2
ENDMDL
MODEL 6
REMARK VINA RESULT:      -7.8      2.087      2.741
REMARK  Name = 
REMARK  4 active torsions:
REMARK  status: ('A' for Active; 'I' for Inactive)
REMARK    1  A    between atoms: C_1  and  C_2
REMARK    2  A    between atoms: C_8  and  C_9
REMARK    3  A    between atoms: C_17  and  C_18
REMARK    4  A    between atoms: C_21  and  C_22
REMARK                            x       y       z     vdW  Elec       q    Type
REMARK                         _______ _______ _______ _____ _____    ______ ____
ROOT
ATOM      1  C   UNL     1       6.369   3.749  16.051  0.00  0.00    +0.000 C 
ATOM      2  C   UNL     1       5.282   4.463  16.776  0.00  0.00    +0.000 A 
ATOM      3  N   UNL     1       4.039   3.962  16.761  0.00  0.00    +0.000 NA
ATOM      4  N   UNL     1       3.321   4.832  17.514  0.00  0.00    +0.000 N 
ATOM      5  C   UNL     1       1.948   4.665  17.784  0.00  0.00    +0.000 A 
ATOM      6  O   UNL     1       1.303   3.713  17.364  0.00  0.00    +0.000 OA
ATOM      7  C   UNL     1       1.351   5.748  18.613  0.00  0.00    +0.000 A 
ATOM      8  C   UNL     1       2.138   6.747  19.049  0.00  0.00    +0.000 A 
ATOM      9  N   UNL     1       3.489   6.809  18.770  0.00  0.00    +0.000 N 
ATOM     10  C   UNL     1       4.093   5.880  17.985  0.00  0.00    +0.000 A 
ATOM     11  C   UNL     1       5.374   5.682  17.512  0.00  0.00    +0.000 A 
ATOM     12  H   UNL     1       4.000   7.558  19.232  0.00  0.00    +0.000 HD
ENDROOT
BRANCH   8  13
ATOM     13  C   UNL     1       1.565   7.854  19.836  0.00  0.00    +0.000 A 
ATOM     14  C   UNL     1       1.270   7.618  21.192  0.00  0.00    +0.000 A 
ATOM     15  C   UNL     1       0.730   8.611  22.015  0.00  0.00    +0.000 A 
ATOM     16  C   UNL     1       0.507   9.849  21.415  0.00  0.00    +0.000 A 
ATOM     17  N   UNL     1       0.001  11.032  21.879  0.00  0.00    +0.000 N 
ATOM     18  N   UNL     1      -0.015  11.976  20.928  0.00  0.00    +0.000 NA
ATOM     19  N   UNL     1       0.469  11.432  19.819  0.00  0.00    +0.000 NA
ATOM     20  C   UNL     1       0.794  10.125  20.087  0.00  0.00    +0.000 A 
ATOM     21  C   UNL     1       1.336   9.128  19.249  0.00  0.00    +0.000 A 
ATOM     22  C   UNL     1       1.663   9.405  17.808  0.00  0.00    +0.000 C 
ATOM     23  H   UNL     1      -0.343  11.264  22.802  0.00  0.00    +0.000 HD
ENDBRANCH   8  13
BRANCH  11  24
ATOM     24  C   UNL     1       6.528   6.518  17.795  0.00  0.00    +0.000 A 
ATOM     25  C   UNL     1       6.746   7.731  17.144  0.00  0.00    +0.000 A 
ATOM     26  C   UNL     1       7.816   8.529  17.544  0.00  0.00    +0.000 A 
ATOM     27  C   UNL     1       8.662   8.078  18.549  0.00  0.00    +0.000 A 
ATOM     28  C   UNL     1       8.406   6.838  19.107  0.00  0.00    +0.000 A 
ATOM     29  N   UNL     1       7.361   6.056  18.756  0.00  0.00    +0.000 NA
ENDBRANCH  11  24
TORSDOF 2
ENDMDL
MODEL 7
REMARK VINA RESULT:      -7.7      7.477     10.006
REMARK  Name = 
REMARK  4 active torsions:
REMARK  status: ('A' for Active; 'I' for Inactive)
REMARK    1  A    between atoms: C_1  and  C_2
REMARK    2  A    between atoms: C_8  and  C_9
REMARK    3  A    between atoms: C_17  and  C_18
REMARK    4  A    between atoms: C_21  and  C_22
REMARK                            x       y       z     vdW  Elec       q    Type
REMARK                         _______ _______ _______ _____ _____    ______ ____
ROOT
ATOM      1  C   UNL     1       3.825  14.953  20.690  0.00  0.00    +0.000 C 
ATOM      2  C   UNL     1       2.560  14.206  20.453  0.00  0.00    +0.000 A 
ATOM      3  N   UNL     1       2.382  13.009  21.029  0.00  0.00    +0.000 NA
ATOM      4  N   UNL     1       1.146  12.625  20.624  0.00  0.00    +0.000 N 
ATOM      5  C   UNL     1       0.544  11.417  21.027  0.00  0.00    +0.000 A 
ATOM      6  O   UNL     1       1.093  10.625  21.784  0.00  0.00    +0.000 OA
ATOM      7  C   UNL     1      -0.808  11.182  20.449  0.00  0.00    +0.000 A 
ATOM      8  C   UNL     1      -1.344  12.114  19.641  0.00  0.00    +0.000 A 
ATOM      9  N   UNL     1      -0.698  13.294  19.332  0.00  0.00    +0.000 N 
ATOM     10  C   UNL     1       0.554  13.556  19.789  0.00  0.00    +0.000 A 
ATOM     11  C   UNL     1       1.452  14.594  19.642  0.00  0.00    +0.000 A 
ATOM     12  H   UNL     1      -1.240  13.964  18.790  0.00  0.00    +0.000 HD
ENDROOT
BRANCH   8  13
ATOM     13  C   UNL     1      -2.662  11.888  19.021  0.00  0.00    +0.000 A 
ATOM     14  C   UNL     1      -2.705  11.216  17.785  0.00  0.00    +0.000 A 
ATOM     15  C   UNL     1      -3.912  10.955  17.128  0.00  0.00    +0.000 A 
ATOM     16  C   UNL     1      -5.067  11.393  17.771  0.00  0.00    +0.000 A 
ATOM     17  N   UNL     1      -6.394  11.328  17.450  0.00  0.00    +0.000 N 
ATOM     18  N   UNL     1      -7.167  11.883  18.395  0.00  0.00    +0.000 NA
ATOM     19  N   UNL     1      -6.363  12.331  19.350  0.00  0.00    +0.000 NA
ATOM     20  C   UNL     1      -5.068  12.048  18.993  0.00  0.00    +0.000 A 
ATOM     21  C   UNL     1      -3.855  12.319  19.662  0.00  0.00    +0.000 A 
ATOM     22  C   UNL     1      -3.830  13.021  20.991  0.00  0.00    +0.000 C 
ATOM     23  H   UNL     1      -6.837  10.935  16.628  0.00  0.00    +0.000 HD
ENDBRANCH   8  13
BRANCH  11  24
ATOM     24  C   UNL     1       1.232  15.813  18.881  0.00  0.00    +0.000 A 
ATOM     25  C   UNL     1       2.236  16.406  18.118  0.00  0.00    +0.000 A 
ATOM     26  C   UNL     1       1.922  17.512  17.331  0.00  0.00    +0.000 A 
ATOM     27  C   UNL     1       0.630  18.020  17.359  0.00  0.00    +0.000 A 
ATOM     28  C   UNL     1      -0.294  17.405  18.184  0.00  0.00    +0.000 A 
ATOM     29  N   UNL     1      -0.023  16.316  18.937  0.00  0.00    +0.000 NA
ENDBRANCH  11  24
TORSDOF 2
ENDMDL
MODEL 8
REMARK VINA RESULT:      -7.7      3.844      8.301
REMARK  Name = 
REMARK  4 active torsions:
REMARK  status: ('A' for Active; 'I' for Inactive)
REMARK    1  A    between atoms: C_1  and  C_2
REMARK    2  A    between atoms: C_8  and  C_9
REMARK    3  A    between atoms: C_17  and  C_18
REMARK    4  A    between atoms: C_21  and  C_22
REMARK                            x       y       z     vdW  Elec       q    Type
REMARK                         _______ _______ _______ _____ _____    ______ ____
ROOT
ATOM      1  C   UNL     1      -3.851  13.332  19.970  0.00  0.00    +0.000 C 
ATOM      2  C   UNL     1      -2.742  12.349  20.102  0.00  0.00    +0.000 A 
ATOM      3  N   UNL     1      -2.018  12.317  21.230  0.00  0.00    +0.000 NA
ATOM      4  N   UNL     1      -1.125  11.318  21.024  0.00  0.00    +0.000 N 
ATOM      5  C   UNL     1      -0.173  10.925  21.987  0.00  0.00    +0.000 A 
ATOM      6  O   UNL     1      -0.091  11.453  23.088  0.00  0.00    +0.000 OA
ATOM      7  C   UNL     1       0.724   9.821  21.546  0.00  0.00    +0.000 A 
ATOM      8  C   UNL     1       0.550   9.285  20.327  0.00  0.00    +0.000 A 
ATOM      9  N   UNL     1      -0.439   9.705  19.460  0.00  0.00    +0.000 N 
ATOM     10  C   UNL     1      -1.267  10.735  19.777  0.00  0.00    +0.000 A 
ATOM     11  C   UNL     1      -2.301  11.390  19.141  0.00  0.00    +0.000 A 
ATOM     12  H   UNL     1      -0.536   9.162  18.605  0.00  0.00    +0.000 HD
ENDROOT
BRANCH   8  13
ATOM     13  C   UNL     1       1.451   8.220  19.849  0.00  0.00    +0.000 A 
ATOM     14  C   UNL     1       1.533   7.035  20.603  0.00  0.00    +0.000 A 
ATOM     15  C   UNL     1       2.357   5.971  20.222  0.00  0.00    +0.000 A 
ATOM     16  C   UNL     1       3.086   6.152  19.049  0.00  0.00    +0.000 A 
ATOM     17  N   UNL     1       3.977   5.364  18.375  0.00  0.00    +0.000 N 
ATOM     18  N   UNL     1       4.428   5.957  17.261  0.00  0.00    +0.000 NA
ATOM     19  N   UNL     1       3.851   7.149  17.185  0.00  0.00    +0.000 NA
ATOM     20  C   UNL     1       3.025   7.298  18.271  0.00  0.00    +0.000 A 
ATOM     21  C   UNL     1       2.198   8.378  18.650  0.00  0.00    +0.000 A 
ATOM     22  C   UNL     1       2.109   9.628  17.821  0.00  0.00    +0.000 C 
ATOM     23  H   UNL     1       4.318   4.439  18.606  0.00  0.00    +0.000 HD
ENDBRANCH   8  13
BRANCH  11  24
ATOM     24  C   UNL     1      -2.826  11.080  17.822  0.00  0.00    +0.000 A 
ATOM     25  C   UNL     1      -4.038  11.594  17.363  0.00  0.00    +0.000 A 
ATOM     26  C   UNL     1      -4.424  11.339  16.048  0.00  0.00    +0.000 A 
ATOM     27  C   UNL     1      -3.615  10.547  15.244  0.00  0.00    +0.000 A 
ATOM     28  C   UNL     1      -2.455  10.032  15.793  0.00  0.00    +0.000 A 
ATOM     29  N   UNL     1      -2.044  10.285  17.056  0.00  0.00    +0.000 NA
ENDBRANCH  11  24
TORSDOF 2
ENDMDL
MODEL 9
REMARK VINA RESULT:      -7.7      3.184      8.011
REMARK  Name = 
REMARK  4 active torsions:
REMARK  status: ('A' for Active; 'I' for Inactive)
REMARK    1  A    between atoms: C_1  and  C_2
REMARK    2  A    between atoms: C_8  and  C_9
REMARK    3  A    between atoms: C_17  and  C_18
REMARK    4  A    between atoms: C_21  and  C_22
REMARK                            x       y       z     vdW  Elec       q    Type
REMARK                         _______ _______ _______ _____ _____    ______ ____
ROOT
ATOM      1  C   UNL     1      -2.603  12.471  21.043  0.00  0.00    +0.000 C 
ATOM      2  C   UNL     1      -1.560  11.434  20.819  0.00  0.00    +0.000 A 
ATOM      3  N   UNL     1      -0.733  11.101  21.820  0.00  0.00    +0.000 NA
ATOM      4  N   UNL     1       0.062  10.140  21.290  0.00  0.00    +0.000 N 
ATOM      5  C   UNL     1       1.072   9.484  22.022  0.00  0.00    +0.000 A 
ATOM      6  O   UNL     1       1.299   9.731  23.200  0.00  0.00    +0.000 OA
ATOM      7  C   UNL     1       1.841   8.477  21.240  0.00  0.00    +0.000 A 
ATOM      8  C   UNL     1       1.511   8.256  19.956  0.00  0.00    +0.000 A 
ATOM      9  N   UNL     1       0.475   8.917  19.327  0.00  0.00    +0.000 N 
ATOM     10  C   UNL     1      -0.242   9.878  19.965  0.00  0.00    +0.000 A 
ATOM     11  C   UNL     1      -1.285  10.713  19.618  0.00  0.00    +0.000 A 
ATOM     12  H   UNL     1       0.256   8.598  18.386  0.00  0.00    +0.000 HD
ENDROOT
BRANCH   8  13
ATOM     13  C   UNL     1       2.283   7.296  19.147  0.00  0.00    +0.000 A 
ATOM     14  C   UNL     1       3.030   7.794  18.063  0.00  0.00    +0.000 A 
ATOM     15  C   UNL     1       3.795   6.956  17.245  0.00  0.00    +0.000 A 
ATOM     16  C   UNL     1       3.779   5.602  17.570  0.00  0.00    +0.000 A 
ATOM     17  N   UNL     1       4.379   4.504  17.020  0.00  0.00    +0.000 N 
ATOM     18  N   UNL     1       4.082   3.381  17.689  0.00  0.00    +0.000 NA
ATOM     19  N   UNL     1       3.274   3.717  18.686  0.00  0.00    +0.000 NA
ATOM     20  C   UNL     1       3.066   5.073  18.636  0.00  0.00    +0.000 A 
ATOM     21  C   UNL     1       2.289   5.911  19.464  0.00  0.00    +0.000 A 
ATOM     22  C   UNL     1       1.514   5.362  20.630  0.00  0.00    +0.000 C 
ATOM     23  H   UNL     1       4.987   4.442  16.212  0.00  0.00    +0.000 HD
ENDBRANCH   8  13
BRANCH  11  24
ATOM     24  C   UNL     1      -1.956  10.752  18.331  0.00  0.00    +0.000 A 
ATOM     25  C   UNL     1      -1.497  10.033  17.228  0.00  0.00    +0.000 A 
ATOM     26  C   UNL     1      -2.254  10.035  16.058  0.00  0.00    +0.000 A 
ATOM     27  C   UNL     1      -3.421  10.786  16.005  0.00  0.00    +0.000 A 
ATOM     28  C   UNL     1      -3.778  11.514  17.125  0.00  0.00    +0.000 A 
ATOM     29  N   UNL     1      -3.077  11.509  18.281  0.00  0.00    +0.000 NA
ENDBRANCH  11  24
TORSDOF 2
ENDMDL
