MODEL 1
REMARK VINA RESULT:      -6.4      0.000      0.000
REMARK  Name = 
REMARK  9 active torsions:
REMARK  status: ('A' for Active; 'I' for Inactive)
REMARK    1  A    between atoms: C_1  and  O_2
REMARK    2  A    between atoms: O_2  and  C_3
REMARK    3  A    between atoms: C_6  and  C_7
REMARK    4  A    between atoms: C_7  and  N_8
REMARK    5  A    between atoms: N_8  and  C_9
REMARK    6  A    between atoms: C_13  and  S_14
REMARK    7  A    between atoms: S_14  and  N_15
REMARK    8  A    between atoms: C_19  and  O_20
REMARK    9  A    between atoms: O_20  and  C_21
REMARK                            x       y       z     vdW  Elec       q    Type
REMARK                         _______ _______ _______ _____ _____    ______ ____
ROOT
ATOM      1  N   UNL     1       2.453   5.824  18.917  0.00  0.00    +0.000 N 
ATOM      2  C   UNL     1       1.783   4.514  18.968  0.00  0.00    +0.000 C 
ATOM      3  C   UNL     1       3.767   5.737  18.550  0.00  0.00    +0.000 A 
ATOM      4  N   UNL     1       4.796   6.019  19.324  0.00  0.00    +0.000 NA
ATOM      5  C   UNL     1       5.979   5.640  18.713  0.00  0.00    +0.000 A 
ATOM      6  C   UNL     1       5.848   5.108  17.453  0.00  0.00    +0.000 A 
ATOM      7  S   UNL     1       4.211   5.130  16.986  0.00  0.00    +0.000 S 
ENDROOT
BRANCH   6   8
ATOM      8  S   UNL     1       7.000   4.449  16.301  0.00  0.00    +0.000 S 
ATOM      9  O   UNL     1       8.159   4.118  17.097  0.00  0.00    +0.000 OA
ATOM     10  O   UNL     1       6.272   3.477  15.525  0.00  0.00    +0.000 OA
BRANCH   8  11
ATOM     11  N   UNL     1       7.452   5.693  15.273  0.00  0.00    +0.000 NA
ATOM     12  H   UNL     1       7.633   6.563  15.767  0.00  0.00    +0.000 HD
ATOM     13  H   UNL     1       6.849   5.761  14.459  0.00  0.00    +0.000 HD
ENDBRANCH   8  11
ENDBRANCH   6   8
BRANCH   1  14
ATOM     14  C   UNL     1       2.105   6.700  20.049  0.00  0.00    +0.000 C 
BRANCH  14  18
ATOM     15  C   UNL     1       1.095  10.776  18.949  0.00  0.00    +0.000 A 
ATOM     16  C   UNL     1       1.749   9.928  18.059  0.00  0.00    +0.000 A 
ATOM     17  C   UNL     1       2.008   8.602  18.407  0.00  0.00    +0.000 A 
ATOM     18  C   UNL     1       1.645   8.099  19.667  0.00  0.00    +0.000 A 
ATOM     19  C   UNL     1       0.980   8.957  20.568  0.00  0.00    +0.000 A 
ATOM     20  C   UNL     1       0.701  10.286  20.195  0.00  0.00    +0.000 A 
BRANCH  15  22
ATOM     21  C   UNL     1      -0.153  12.796  19.047  0.00  0.00    +0.000 C 
ATOM     22  O   UNL     1       0.934  12.060  18.503  0.00  0.00    +0.000 OA
ENDBRANCH  15  22
BRANCH  19  23
ATOM     23  O   UNL     1       0.656   8.431  21.795  0.00  0.00    +0.000 OA
ATOM     24  C   UNL     1       0.460   9.357  22.860  0.00  0.00    +0.000 C 
ENDBRANCH  19  23
ENDBRANCH  14  18
ENDBRANCH   1  14
TORSDOF 6
ENDMDL
MODEL 2
REMARK VINA RESULT:      -6.3      2.566      3.353
REMARK  Name = 
REMARK  9 active torsions:
REMARK  status: ('A' for Active; 'I' for Inactive)
REMARK    1  A    between atoms: C_1  and  O_2
REMARK    2  A    between atoms: O_2  and  C_3
REMARK    3  A    between atoms: C_6  and  C_7
REMARK    4  A    between atoms: C_7  and  N_8
REMARK    5  A    between atoms: N_8  and  C_9
REMARK    6  A    between atoms: C_13  and  S_14
REMARK    7  A    between atoms: S_14  and  N_15
REMARK    8  A    between atoms: C_19  and  O_20
REMARK    9  A    between atoms: O_20  and  C_21
REMARK                            x       y       z     vdW  Elec       q    Type
REMARK                         _______ _______ _______ _____ _____    ______ ____
ROOT
ATOM      1  N   UNL     1       1.607   8.195  19.003  0.00  0.00    +0.000 N 
ATOM      2  C   UNL     1       1.729   8.117  20.469  0.00  0.00    +0.000 C 
ATOM      3  C   UNL     1       2.495   7.386  18.350  0.00  0.00    +0.000 A 
ATOM      4  N   UNL     1       3.492   7.801  17.594  0.00  0.00    +0.000 NA
ATOM      5  C   UNL     1       4.309   6.738  17.247  0.00  0.00    +0.000 A 
ATOM      6  C   UNL     1       3.905   5.508  17.705  0.00  0.00    +0.000 A 
ATOM      7  S   UNL     1       2.434   5.662  18.549  0.00  0.00    +0.000 S 
ENDROOT
BRANCH   6   8
ATOM      8  S   UNL     1       4.592   3.895  17.585  0.00  0.00    +0.000 S 
ATOM      9  O   UNL     1       3.474   3.008  17.805  0.00  0.00    +0.000 OA
ATOM     10  O   UNL     1       5.380   3.889  16.379  0.00  0.00    +0.000 OA
BRANCH   8  11
ATOM     11  N   UNL     1       5.636   3.695  18.881  0.00  0.00    +0.000 NA
ATOM     12  H   UNL     1       6.176   4.533  19.082  0.00  0.00    +0.000 HD
ATOM     13  H   UNL     1       6.163   2.830  18.823  0.00  0.00    +0.000 HD
ENDBRANCH   8  11
ENDBRANCH   6   8
BRANCH   1  14
ATOM     14  C   UNL     1       1.426   9.570  18.507  0.00  0.00    +0.000 C 
BRANCH  14  18
ATOM     15  C   UNL     1      -2.603  11.167  18.288  0.00  0.00    +0.000 A 
ATOM     16  C   UNL     1      -2.168  10.182  17.406  0.00  0.00    +0.000 A 
ATOM     17  C   UNL     1      -0.891   9.635  17.532  0.00  0.00    +0.000 A 
ATOM     18  C   UNL     1      -0.006  10.082  18.527  0.00  0.00    +0.000 A 
ATOM     19  C   UNL     1      -0.448  11.077  19.423  0.00  0.00    +0.000 A 
ATOM     20  C   UNL     1      -1.749  11.604  19.302  0.00  0.00    +0.000 A 
BRANCH  15  22
ATOM     21  C   UNL     1      -4.368  11.454  16.722  0.00  0.00    +0.000 C 
ATOM     22  O   UNL     1      -3.861  11.647  18.035  0.00  0.00    +0.000 OA
ENDBRANCH  15  22
BRANCH  19  23
ATOM     23  O   UNL     1       0.452  11.498  20.372  0.00  0.00    +0.000 OA
ATOM     24  C   UNL     1      -0.083  11.923  21.623  0.00  0.00    +0.000 C 
ENDBRANCH  19  23
ENDBRANCH  14  18
ENDBRANCH   1  14
TORSDOF 6
ENDMDL
MODEL 3
REMARK VINA RESULT:      -6.2      2.608      3.414
REMARK  Name = 
REMARK  9 active torsions:
REMARK  status: ('A' for Active; 'I' for Inactive)
REMARK    1  A    between atoms: C_1  and  O_2
REMARK    2  A    between atoms: O_2  and  C_3
REMARK    3  A    between atoms: C_6  and  C_7
REMARK    4  A    between atoms: C_7  and  N_8
REMARK    5  A    between atoms: N_8  and  C_9
REMARK    6  A    between atoms: C_13  and  S_14
REMARK    7  A    between atoms: S_14  and  N_15
REMARK    8  A    between atoms: C_19  and  O_20
REMARK    9  A    between atoms: O_20  and  C_21
REMARK                            x       y       z     vdW  Elec       q    Type
REMARK                         _______ _______ _______ _____ _____    ______ ____
ROOT
ATOM      1  N   UNL     1       1.597   8.251  18.872  0.00  0.00    +0.000 N 
ATOM      2  C   UNL     1       1.650   8.317  20.342  0.00  0.00    +0.000 C 
ATOM      3  C   UNL     1       2.536   7.411  18.341  0.00  0.00    +0.000 A 
ATOM      4  N   UNL     1       3.557   7.783  17.595  0.00  0.00    +0.000 NA
ATOM      5  C   UNL     1       4.417   6.719  17.389  0.00  0.00    +0.000 A 
ATOM      6  C   UNL     1       4.025   5.525  17.945  0.00  0.00    +0.000 A 
ATOM      7  S   UNL     1       2.512   5.714  18.703  0.00  0.00    +0.000 S 
ENDROOT
BRANCH   6   8
ATOM      8  S   UNL     1       4.760   3.931  18.013  0.00  0.00    +0.000 S 
ATOM      9  O   UNL     1       5.691   4.007  19.115  0.00  0.00    +0.000 OA
ATOM     10  O   UNL     1       3.670   2.989  17.964  0.00  0.00    +0.000 OA
BRANCH   8  11
ATOM     11  N   UNL     1       5.670   3.736  16.619  0.00  0.00    +0.000 NA
ATOM     12  H   UNL     1       6.658   3.596  16.813  0.00  0.00    +0.000 HD
ATOM     13  H   UNL     1       5.450   4.432  15.913  0.00  0.00    +0.000 HD
ENDBRANCH   8  11
ENDBRANCH   6   8
BRANCH   1  14
ATOM     14  C   UNL     1       1.402   9.566  18.238  0.00  0.00    +0.000 C 
BRANCH  14  18
ATOM     15  C   UNL     1      -2.570  11.312  18.288  0.00  0.00    +0.000 A 
ATOM     16  C   UNL     1      -2.274  10.214  17.484  0.00  0.00    +0.000 A 
ATOM     17  C   UNL     1      -1.009   9.627  17.529  0.00  0.00    +0.000 A 
ATOM     18  C   UNL     1      -0.000  10.142  18.358  0.00  0.00    +0.000 A 
ATOM     19  C   UNL     1      -0.301  11.252  19.176  0.00  0.00    +0.000 A 
ATOM     20  C   UNL     1      -1.589  11.820  19.140  0.00  0.00    +0.000 A 
BRANCH  15  22
ATOM     21  C   UNL     1      -4.482  11.532  16.892  0.00  0.00    +0.000 C 
ATOM     22  O   UNL     1      -3.832  11.817  18.124  0.00  0.00    +0.000 OA
ENDBRANCH  15  22
BRANCH  19  23
ATOM     23  O   UNL     1       0.717  11.734  19.961  0.00  0.00    +0.000 OA
ATOM     24  C   UNL     1       1.087  13.098  19.770  0.00  0.00    +0.000 C 
ENDBRANCH  19  23
ENDBRANCH  14  18
ENDBRANCH   1  14
TORSDOF 6
ENDMDL
MODEL 4
REMARK VINA RESULT:      -6.1      0.942      1.106
REMARK  Name = 
REMARK  9 active torsions:
REMARK  status: ('A' for Active; 'I' for Inactive)
REMARK    1  A    between atoms: C_1  and  O_2
REMARK    2  A    between atoms: O_2  and  C_3
REMARK    3  A    between atoms: C_6  and  C_7
REMARK    4  A    between atoms: C_7  and  N_8
REMARK    5  A    between atoms: N_8  and  C_9
REMARK    6  A    between atoms: C_13  and  S_14
REMARK    7  A    between atoms: S_14  and  N_15
REMARK    8  A    between atoms: C_19  and  O_20
REMARK    9  A    between atoms: O_20  and  C_21
REMARK                            x       y       z     vdW  Elec       q    Type
REMARK                         _______ _______ _______ _____ _____    ______ ____
ROOT
ATOM      1  N   UNL     1       2.330   5.820  19.074  0.00  0.00    +0.000 N 
ATOM      2  C   UNL     1       1.727   4.478  19.153  0.00  0.00    +0.000 C 
ATOM      3  C   UNL     1       3.638   5.794  18.679  0.00  0.00    +0.000 A 
ATOM      4  N   UNL     1       4.668   6.135  19.428  0.00  0.00    +0.000 NA
ATOM      5  C   UNL     1       5.855   5.808  18.795  0.00  0.00    +0.000 A 
ATOM      6  C   UNL     1       5.725   5.257  17.543  0.00  0.00    +0.000 A 
ATOM      7  S   UNL     1       4.079   5.191  17.112  0.00  0.00    +0.000 S 
ENDROOT
BRANCH   6   8
ATOM      8  S   UNL     1       6.883   4.642  16.374  0.00  0.00    +0.000 S 
ATOM      9  O   UNL     1       6.213   3.522  15.755  0.00  0.00    +0.000 OA
ATOM     10  O   UNL     1       7.349   5.789  15.637  0.00  0.00    +0.000 OA
BRANCH   8  11
ATOM     11  N   UNL     1       8.182   4.020  17.232  0.00  0.00    +0.000 NA
ATOM     12  H   UNL     1       8.196   3.003  17.238  0.00  0.00    +0.000 HD
ATOM     13  H   UNL     1       8.303   4.472  18.133  0.00  0.00    +0.000 HD
ENDBRANCH   8  11
ENDBRANCH   6   8
BRANCH   1  14
ATOM     14  C   UNL     1       1.962   6.690  20.204  0.00  0.00    +0.000 C 
BRANCH  14  18
ATOM     15  C   UNL     1       1.142  10.800  19.075  0.00  0.00    +0.000 A 
ATOM     16  C   UNL     1       1.612   9.875  18.146  0.00  0.00    +0.000 A 
ATOM     17  C   UNL     1       1.810   8.544  18.512  0.00  0.00    +0.000 A 
ATOM     18  C   UNL     1       1.568   8.110  19.825  0.00  0.00    +0.000 A 
ATOM     19  C   UNL     1       1.088   9.045  20.766  0.00  0.00    +0.000 A 
ATOM     20  C   UNL     1       0.869  10.381  20.378  0.00  0.00    +0.000 A 
BRANCH  15  22
ATOM     21  C   UNL     1       2.236  12.769  18.314  0.00  0.00    +0.000 C 
ATOM     22  O   UNL     1       1.027  12.079  18.601  0.00  0.00    +0.000 OA
ENDBRANCH  15  22
BRANCH  19  23
ATOM     23  O   UNL     1       0.879   8.584  22.043  0.00  0.00    +0.000 OA
ATOM     24  C   UNL     1      -0.039   9.318  22.849  0.00  0.00    +0.000 C 
ENDBRANCH  19  23
ENDBRANCH  14  18
ENDBRANCH   1  14
TORSDOF 6
ENDMDL
MODEL 5
REMARK VINA RESULT:      -6.0      3.044      7.093
REMARK  Name = 
REMARK  9 active torsions:
REMARK  status: ('A' for Active; 'I' for Inactive)
REMARK    1  A    between atoms: C_1  and  O_2
REMARK    2  A    between atoms: O_2  and  C_3
REMARK    3  A    between atoms: C_6  and  C_7
REMARK    4  A    between atoms: C_7  and  N_8
REMARK    5  A    between atoms: N_8  and  C_9
REMARK    6  A    between atoms: C_13  and  S_14
REMARK    7  A    between atoms: S_14  and  N_15
REMARK    8  A    between atoms: C_19  and  O_20
REMARK    9  A    between atoms: O_20  and  C_21
REMARK                            x       y       z     vdW  Elec       q    Type
REMARK                         _______ _______ _______ _____ _____    ______ ____
ROOT
ATOM      1  N   UNL     1       2.772   4.495  18.722  0.00  0.00    +0.000 N 
ATOM      2  C   UNL     1       1.539   3.699  18.597  0.00  0.00    +0.000 C 
ATOM      3  C   UNL     1       2.534   5.800  19.053  0.00  0.00    +0.000 A 
ATOM      4  N   UNL     1       2.769   6.839  18.276  0.00  0.00    +0.000 NA
ATOM      5  C   UNL     1       2.236   7.988  18.833  0.00  0.00    +0.000 A 
ATOM      6  C   UNL     1       1.632   7.827  20.057  0.00  0.00    +0.000 A 
ATOM      7  S   UNL     1       1.778   6.208  20.562  0.00  0.00    +0.000 S 
ENDROOT
BRANCH   6   8
ATOM      8  S   UNL     1       0.785   8.927  21.134  0.00  0.00    +0.000 S 
ATOM      9  O   UNL     1       0.772  10.187  20.428  0.00  0.00    +0.000 OA
ATOM     10  O   UNL     1      -0.413   8.238  21.542  0.00  0.00    +0.000 OA
BRANCH   8  11
ATOM     11  N   UNL     1       1.744   9.139  22.492  0.00  0.00    +0.000 NA
ATOM     12  H   UNL     1       2.021  10.108  22.628  0.00  0.00    +0.000 HD
ATOM     13  H   UNL     1       2.489   8.451  22.552  0.00  0.00    +0.000 HD
ENDBRANCH   8  11
ENDBRANCH   6   8
BRANCH   1  14
ATOM     14  C   UNL     1       3.755   4.215  17.662  0.00  0.00    +0.000 C 
BRANCH  14  18
ATOM     15  C   UNL     1       7.427   6.442  18.288  0.00  0.00    +0.000 A 
ATOM     16  C   UNL     1       6.833   5.723  19.321  0.00  0.00    +0.000 A 
ATOM     17  C   UNL     1       5.688   4.962  19.086  0.00  0.00    +0.000 A 
ATOM     18  C   UNL     1       5.092   4.924  17.815  0.00  0.00    +0.000 A 
ATOM     19  C   UNL     1       5.696   5.649  16.767  0.00  0.00    +0.000 A 
ATOM     20  C   UNL     1       6.866   6.394  17.011  0.00  0.00    +0.000 A 
BRANCH  15  22
ATOM     21  C   UNL     1       8.489   8.567  18.365  0.00  0.00    +0.000 C 
ATOM     22  O   UNL     1       8.522   7.177  18.657  0.00  0.00    +0.000 OA
ENDBRANCH  15  22
BRANCH  19  23
ATOM     23  O   UNL     1       5.073   5.599  15.543  0.00  0.00    +0.000 OA
ATOM     24  C   UNL     1       5.589   4.666  14.596  0.00  0.00    +0.000 C 
ENDBRANCH  19  23
ENDBRANCH  14  18
ENDBRANCH   1  14
TORSDOF 6
ENDMDL
MODEL 6
REMARK VINA RESULT:      -5.8      3.050      3.894
REMARK  Name = 
REMARK  9 active torsions:
REMARK  status: ('A' for Active; 'I' for Inactive)
REMARK    1  A    between atoms: C_1  and  O_2
REMARK    2  A    between atoms: O_2  and  C_3
REMARK    3  A    between atoms: C_6  and  C_7
REMARK    4  A    between atoms: C_7  and  N_8
REMARK    5  A    between atoms: N_8  and  C_9
REMARK    6  A    between atoms: C_13  and  S_14
REMARK    7  A    between atoms: S_14  and  N_15
REMARK    8  A    between atoms: C_19  and  O_20
REMARK    9  A    between atoms: O_20  and  C_21
REMARK                            x       y       z     vdW  Elec       q    Type
REMARK                         _______ _______ _______ _____ _____    ______ ____
ROOT
ATOM      1  N   UNL     1       1.340   8.220  20.156  0.00  0.00    +0.000 N 
ATOM      2  C   UNL     1       1.577   8.440  21.593  0.00  0.00    +0.000 C 
ATOM      3  C   UNL     1       2.015   7.139  19.663  0.00  0.00    +0.000 A 
ATOM      4  N   UNL     1       2.996   7.187  18.784  0.00  0.00    +0.000 NA
ATOM      5  C   UNL     1       3.586   5.943  18.649  0.00  0.00    +0.000 A 
ATOM      6  C   UNL     1       3.022   4.937  19.396  0.00  0.00    +0.000 A 
ATOM      7  S   UNL     1       1.680   5.541  20.254  0.00  0.00    +0.000 S 
ENDROOT
BRANCH   6   8
ATOM      8  S   UNL     1       3.412   3.238  19.615  0.00  0.00    +0.000 S 
ATOM      9  O   UNL     1       3.081   2.965  20.994  0.00  0.00    +0.000 OA
ATOM     10  O   UNL     1       2.805   2.546  18.505  0.00  0.00    +0.000 OA
BRANCH   8  11
ATOM     11  N   UNL     1       5.074   3.081  19.471  0.00  0.00    +0.000 NA
ATOM     12  H   UNL     1       5.516   2.783  20.338  0.00  0.00    +0.000 HD
ATOM     13  H   UNL     1       5.500   3.877  19.007  0.00  0.00    +0.000 HD
ENDBRANCH   8  11
ENDBRANCH   6   8
BRANCH   1  14
ATOM     14  C   UNL     1       1.350   9.464  19.368  0.00  0.00    +0.000 C 
BRANCH  14  18
ATOM     15  C   UNL     1      -2.428  11.173  18.089  0.00  0.00    +0.000 A 
ATOM     16  C   UNL     1      -1.774  10.211  17.324  0.00  0.00    +0.000 A 
ATOM     17  C   UNL     1      -0.594   9.627  17.782  0.00  0.00    +0.000 A 
ATOM     18  C   UNL     1      -0.021  10.013  19.005  0.00  0.00    +0.000 A 
ATOM     19  C   UNL     1      -0.685  10.984  19.782  0.00  0.00    +0.000 A 
ATOM     20  C   UNL     1      -1.890  11.548  19.321  0.00  0.00    +0.000 A 
BRANCH  15  22
ATOM     21  C   UNL     1      -3.989  11.097  16.298  0.00  0.00    +0.000 C 
ATOM     22  O   UNL     1      -3.555  11.694  17.512  0.00  0.00    +0.000 OA
ENDBRANCH  15  22
BRANCH  19  23
ATOM     23  O   UNL     1      -0.085  11.345  20.964  0.00  0.00    +0.000 OA
ATOM     24  C   UNL     1       0.366  12.693  21.072  0.00  0.00    +0.000 C 
ENDBRANCH  19  23
ENDBRANCH  14  18
ENDBRANCH   1  14
TORSDOF 6
ENDMDL
MODEL 7
REMARK VINA RESULT:      -5.8      2.564      3.888
REMARK  Name = 
REMARK  9 active torsions:
REMARK  status: ('A' for Active; 'I' for Inactive)
REMARK    1  A    between atoms: C_1  and  O_2
REMARK    2  A    between atoms: O_2  and  C_3
REMARK    3  A    between atoms: C_6  and  C_7
REMARK    4  A    between atoms: C_7  and  N_8
REMARK    5  A    between atoms: N_8  and  C_9
REMARK    6  A    between atoms: C_13  and  S_14
REMARK    7  A    between atoms: S_14  and  N_15
REMARK    8  A    between atoms: C_19  and  O_20
REMARK    9  A    between atoms: O_20  and  C_21
REMARK                            x       y       z     vdW  Elec       q    Type
REMARK                         _______ _______ _______ _____ _____    ______ ____
ROOT
ATOM      1  N   UNL     1       3.052   7.408  18.251  0.00  0.00    +0.000 N 
ATOM      2  C   UNL     1       4.158   7.641  17.307  0.00  0.00    +0.000 C 
ATOM      3  C   UNL     1       2.728   6.086  18.377  0.00  0.00    +0.000 A 
ATOM      4  N   UNL     1       1.593   5.537  17.991  0.00  0.00    +0.000 NA
ATOM      5  C   UNL     1       1.667   4.158  18.083  0.00  0.00    +0.000 A 
ATOM      6  C   UNL     1       2.847   3.661  18.582  0.00  0.00    +0.000 A 
ATOM      7  S   UNL     1       3.881   4.948  19.003  0.00  0.00    +0.000 S 
ENDROOT
BRANCH   6   8
ATOM      8  S   UNL     1       3.448   2.032  18.849  0.00  0.00    +0.000 S 
ATOM      9  O   UNL     1       2.438   1.402  19.665  0.00  0.00    +0.000 OA
ATOM     10  O   UNL     1       3.839   1.537  17.553  0.00  0.00    +0.000 OA
BRANCH   8  11
ATOM     11  N   UNL     1       4.830   2.154  19.790  0.00  0.00    +0.000 NA
ATOM     12  H   UNL     1       4.927   1.382  20.445  0.00  0.00    +0.000 HD
ATOM     13  H   UNL     1       4.954   3.084  20.178  0.00  0.00    +0.000 HD
ENDBRANCH   8  11
ENDBRANCH   6   8
BRANCH   1  14
ATOM     14  C   UNL     1       1.955   8.381  18.113  0.00  0.00    +0.000 C 
BRANCH  14  18
ATOM     15  C   UNL     1       0.470  10.138  21.794  0.00  0.00    +0.000 A 
ATOM     16  C   UNL     1       0.865   8.804  21.737  0.00  0.00    +0.000 A 
ATOM     17  C   UNL     1       1.399   8.274  20.563  0.00  0.00    +0.000 A 
ATOM     18  C   UNL     1       1.525   9.059  19.406  0.00  0.00    +0.000 A 
ATOM     19  C   UNL     1       1.130  10.411  19.463  0.00  0.00    +0.000 A 
ATOM     20  C   UNL     1       0.615  10.942  20.662  0.00  0.00    +0.000 A 
BRANCH  15  22
ATOM     21  C   UNL     1      -1.164  11.433  22.936  0.00  0.00    +0.000 C 
ATOM     22  O   UNL     1      -0.071  10.525  22.990  0.00  0.00    +0.000 OA
ENDBRANCH  15  22
BRANCH  19  23
ATOM     23  O   UNL     1       1.256  11.141  18.306  0.00  0.00    +0.000 OA
ATOM     24  C   UNL     1       2.257  12.155  18.290  0.00  0.00    +0.000 C 
ENDBRANCH  19  23
ENDBRANCH  14  18
ENDBRANCH   1  14
TORSDOF 6
ENDMDL
MODEL 8
REMARK VINA RESULT:      -5.7      3.003      4.003
REMARK  Name = 
REMARK  9 active torsions:
REMARK  status: ('A' for Active; 'I' for Inactive)
REMARK    1  A    between atoms: C_1  and  O_2
REMARK    2  A    between atoms: O_2  and  C_3
REMARK    3  A    between atoms: C_6  and  C_7
REMARK    4  A    between atoms: C_7  and  N_8
REMARK    5  A    between atoms: N_8  and  C_9
REMARK    6  A    between atoms: C_13  and  S_14
REMARK    7  A    between atoms: S_14  and  N_15
REMARK    8  A    between atoms: C_19  and  O_20
REMARK    9  A    between atoms: O_20  and  C_21
REMARK                            x       y       z     vdW  Elec       q    Type
REMARK                         _______ _______ _______ _____ _____    ______ ____
ROOT
ATOM      1  N   UNL     1       1.408   8.126  20.152  0.00  0.00    +0.000 N 
ATOM      2  C   UNL     1       1.594   8.410  21.585  0.00  0.00    +0.000 C 
ATOM      3  C   UNL     1       2.089   7.015  19.736  0.00  0.00    +0.000 A 
ATOM      4  N   UNL     1       3.103   7.013  18.895  0.00  0.00    +0.000 NA
ATOM      5  C   UNL     1       3.682   5.757  18.841  0.00  0.00    +0.000 A 
ATOM      6  C   UNL     1       3.078   4.793  19.611  0.00  0.00    +0.000 A 
ATOM      7  S   UNL     1       1.712   5.451  20.388  0.00  0.00    +0.000 S 
ENDROOT
BRANCH   6   8
ATOM      8  S   UNL     1       3.438   3.102  19.924  0.00  0.00    +0.000 S 
ATOM      9  O   UNL     1       2.532   2.374  19.066  0.00  0.00    +0.000 OA
ATOM     10  O   UNL     1       4.872   2.981  19.842  0.00  0.00    +0.000 OA
BRANCH   8  11
ATOM     11  N   UNL     1       2.984   2.774  21.503  0.00  0.00    +0.000 NA
ATOM     12  H   UNL     1       3.727   2.962  22.171  0.00  0.00    +0.000 HD
ATOM     13  H   UNL     1       2.522   1.875  21.595  0.00  0.00    +0.000 HD
ENDBRANCH   8  11
ENDBRANCH   6   8
BRANCH   1  14
ATOM     14  C   UNL     1       1.465   9.332  19.308  0.00  0.00    +0.000 C 
BRANCH  14  18
ATOM     15  C   UNL     1      -2.253  11.188  18.058  0.00  0.00    +0.000 A 
ATOM     16  C   UNL     1      -1.708  10.117  17.355  0.00  0.00    +0.000 A 
ATOM     17  C   UNL     1      -0.546   9.492  17.808  0.00  0.00    +0.000 A 
ATOM     18  C   UNL     1       0.116   9.943  18.961  0.00  0.00    +0.000 A 
ATOM     19  C   UNL     1      -0.438  11.025  19.676  0.00  0.00    +0.000 A 
ATOM     20  C   UNL     1      -1.626  11.631  19.222  0.00  0.00    +0.000 A 
BRANCH  15  22
ATOM     21  C   UNL     1      -3.853  11.124  16.300  0.00  0.00    +0.000 C 
ATOM     22  O   UNL     1      -3.372  11.736  17.489  0.00  0.00    +0.000 OA
ENDBRANCH  15  22
BRANCH  19  23
ATOM     23  O   UNL     1       0.247  11.445  20.790  0.00  0.00    +0.000 OA
ATOM     24  C   UNL     1      -0.516  11.654  21.976  0.00  0.00    +0.000 C 
ENDBRANCH  19  23
ENDBRANCH  14  18
ENDBRANCH   1  14
TORSDOF 6
ENDMDL
MODEL 9
REMARK VINA RESULT:      -5.7      4.262      8.442
REMARK  Name = 
REMARK  9 active torsions:
REMARK  status: ('A' for Active; 'I' for Inactive)
REMARK    1  A    between atoms: C_1  and  O_2
REMARK    2  A    between atoms: O_2  and  C_3
REMARK    3  A    between atoms: C_6  and  C_7
REMARK    4  A    between atoms: C_7  and  N_8
REMARK    5  A    between atoms: N_8  and  C_9
REMARK    6  A    between atoms: C_13  and  S_14
REMARK    7  A    between atoms: S_14  and  N_15
REMARK    8  A    between atoms: C_19  and  O_20
REMARK    9  A    between atoms: O_20  and  C_21
REMARK                            x       y       z     vdW  Elec       q    Type
REMARK                         _______ _______ _______ _____ _____    ______ ____
ROOT
ATOM      1  N   UNL     1       1.306   8.766  19.210  0.00  0.00    +0.000 N 
ATOM      2  C   UNL     1       1.859   9.281  17.946  0.00  0.00    +0.000 C 
ATOM      3  C   UNL     1       0.577   9.699  19.893  0.00  0.00    +0.000 A 
ATOM      4  N   UNL     1       0.907  10.223  21.057  0.00  0.00    +0.000 NA
ATOM      5  C   UNL     1       0.060  11.271  21.372  0.00  0.00    +0.000 A 
ATOM      6  C   UNL     1      -0.941  11.516  20.464  0.00  0.00    +0.000 A 
ATOM      7  S   UNL     1      -0.867  10.374  19.203  0.00  0.00    +0.000 S 
ENDROOT
BRANCH   6   8
ATOM      8  S   UNL     1      -2.213  12.725  20.373  0.00  0.00    +0.000 S 
ATOM      9  O   UNL     1      -3.022  12.490  21.545  0.00  0.00    +0.000 OA
ATOM     10  O   UNL     1      -1.550  13.978  20.110  0.00  0.00    +0.000 OA
BRANCH   8  11
ATOM     11  N   UNL     1      -3.163  12.358  19.042  0.00  0.00    +0.000 NA
ATOM     12  H   UNL     1      -2.665  12.472  18.162  0.00  0.00    +0.000 HD
ATOM     13  H   UNL     1      -4.081  12.787  19.091  0.00  0.00    +0.000 HD
ENDBRANCH   8  11
ENDBRANCH   6   8
BRANCH   1  14
ATOM     14  C   UNL     1       2.259   7.938  19.968  0.00  0.00    +0.000 C 
BRANCH  14  18
ATOM     15  C   UNL     1       2.314   3.649  19.308  0.00  0.00    +0.000 A 
ATOM     16  C   UNL     1       1.503   4.219  20.285  0.00  0.00    +0.000 A 
ATOM     17  C   UNL     1       1.451   5.604  20.440  0.00  0.00    +0.000 A 
ATOM     18  C   UNL     1       2.232   6.453  19.639  0.00  0.00    +0.000 A 
ATOM     19  C   UNL     1       3.051   5.876  18.646  0.00  0.00    +0.000 A 
ATOM     20  C   UNL     1       3.076   4.478  18.483  0.00  0.00    +0.000 A 
BRANCH  15  22
ATOM     21  C   UNL     1       3.293   1.646  18.482  0.00  0.00    +0.000 C 
ATOM     22  O   UNL     1       2.305   2.280  19.282  0.00  0.00    +0.000 OA
ENDBRANCH  15  22
BRANCH  19  23
ATOM     23  O   UNL     1       3.810   6.740  17.894  0.00  0.00    +0.000 OA
ATOM     24  C   UNL     1       4.721   6.155  16.967  0.00  0.00    +0.000 C 
ENDBRANCH  19  23
ENDBRANCH  14  18
ENDBRANCH   1  14
TORSDOF 6
ENDMDL
