MODEL 1
REMARK VINA RESULT:      -8.5      0.000      0.000
REMARK  Name = 
REMARK  6 active torsions:
REMARK  status: ('A' for Active; 'I' for Inactive)
REMARK    1  A    between atoms: C_1  and  O_2
REMARK    2  A    between atoms: O_2  and  C_3
REMARK    3  A    between atoms: C_6  and  N_7
REMARK    4  A    between atoms: N_7  and  C_8
REMARK    5  A    between atoms: N_11  and  C_12
REMARK    6  A    between atoms: N_16  and  C_17
REMARK                            x       y       z     vdW  Elec       q    Type
REMARK                         _______ _______ _______ _____ _____    ______ ____
ROOT
ATOM      1  C   UNL     1       3.105   3.166  18.425  0.00  0.00    +0.000 C 
ATOM      2  C   UNL     1       2.774   4.234  17.371  0.00  0.00    +0.000 C 
ATOM      3  C   UNL     1       2.730   5.692  17.873  0.00  0.00    +0.000 C 
ATOM      4  N   UNL     1       2.012   5.922  19.147  0.00  0.00    +0.000 NA
ATOM      5  C   UNL     1       2.406   4.896  20.143  0.00  0.00    +0.000 C 
ATOM      6  C   UNL     1       2.277   3.450  19.669  0.00  0.00    +0.000 C 
ENDROOT
BRANCH   4   7
ATOM      7  C   UNL     1       2.302   7.303  19.691  0.00  0.00    +0.000 C 
ATOM      8  C   UNL     1       1.682   7.553  21.054  0.00  0.00    +0.000 C 
ATOM      9  C   UNL     1       0.985   8.862  20.952  0.00  0.00    +0.000 C 
ATOM     10  O   UNL     1       0.310   9.268  21.891  0.00  0.00    +0.000 OA
ATOM     11  N   UNL     1       1.176   9.413  19.708  0.00  0.00    +0.000 N 
ATOM     12  C   UNL     1       1.795   8.500  18.862  0.00  0.00    +0.000 C 
ATOM     13  O   UNL     1       2.017   8.631  17.664  0.00  0.00    +0.000 OA
BRANCH  11  14
ATOM     14  C   UNL     1       0.701  10.733  19.356  0.00  0.00    +0.000 A 
ATOM     15  C   UNL     1      -0.558  10.913  18.738  0.00  0.00    +0.000 A 
ATOM     16  C   UNL     1      -1.023  12.166  18.324  0.00  0.00    +0.000 A 
ATOM     17  C   UNL     1      -0.252  13.288  18.541  0.00  0.00    +0.000 A 
ATOM     18  F   UNL     1      -0.696  14.478  18.119  0.00  0.00    +0.000 F 
ATOM     19  C   UNL     1       0.971  13.165  19.194  0.00  0.00    +0.000 A 
ATOM     20 CL   UNL     1       1.924  14.566  19.508  0.00  0.00    +0.000 Cl
ATOM     21  C   UNL     1       1.439  11.901  19.610  0.00  0.00    +0.000 A 
ENDBRANCH  11  14
ENDBRANCH   4   7
BRANCH   1  22
ATOM     22  N   UNL     1       4.546   3.123  18.734  0.00  0.00    +0.000 N 
ATOM     23  H   UNL     1       4.753   2.810  19.679  0.00  0.00    +0.000 HD
BRANCH  22  27
ATOM     24  C   UNL     1       7.107   6.152  17.194  0.00  0.00    +0.000 A 
ATOM     25  C   UNL     1       6.773   6.143  18.551  0.00  0.00    +0.000 A 
ATOM     26  C   UNL     1       5.959   5.132  19.099  0.00  0.00    +0.000 A 
ATOM     27  C   UNL     1       5.464   4.094  18.308  0.00  0.00    +0.000 A 
ATOM     28  C   UNL     1       5.811   4.125  16.945  0.00  0.00    +0.000 A 
ATOM     29  C   UNL     1       6.629   5.124  16.390  0.00  0.00    +0.000 A 
BRANCH  24  31
ATOM     30  C   UNL     1       7.893   8.364  17.625  0.00  0.00    +0.000 C 
ATOM     31  O   UNL     1       7.858   7.219  16.780  0.00  0.00    +0.000 OA
ENDBRANCH  24  31
ENDBRANCH  22  27
ENDBRANCH   1  22
TORSDOF 5
ENDMDL
MODEL 2
REMARK VINA RESULT:      -8.4      1.109      1.651
REMARK  Name = 
REMARK  6 active torsions:
REMARK  status: ('A' for Active; 'I' for Inactive)
REMARK    1  A    between atoms: C_1  and  O_2
REMARK    2  A    between atoms: O_2  and  C_3
REMARK    3  A    between atoms: C_6  and  N_7
REMARK    4  A    between atoms: N_7  and  C_8
REMARK    5  A    between atoms: N_11  and  C_12
REMARK    6  A    between atoms: N_16  and  C_17
REMARK                            x       y       z     vdW  Elec       q    Type
REMARK                         _______ _______ _______ _____ _____    ______ ____
ROOT
ATOM      1  C   UNL     1       3.285   2.827  18.376  0.00  0.00    +0.000 C 
ATOM      2  C   UNL     1       2.609   3.818  17.416  0.00  0.00    +0.000 C 
ATOM      3  C   UNL     1       2.528   5.281  17.898  0.00  0.00    +0.000 C 
ATOM      4  N   UNL     1       2.104   5.483  19.302  0.00  0.00    +0.000 NA
ATOM      5  C   UNL     1       2.823   4.538  20.190  0.00  0.00    +0.000 C 
ATOM      6  C   UNL     1       2.741   3.070  19.776  0.00  0.00    +0.000 C 
ENDROOT
BRANCH   4   7
ATOM      7  C   UNL     1       2.364   6.905  19.747  0.00  0.00    +0.000 C 
ATOM      8  C   UNL     1       1.745   7.234  21.093  0.00  0.00    +0.000 C 
ATOM      9  C   UNL     1       1.017   8.517  20.905  0.00  0.00    +0.000 C 
ATOM     10  O   UNL     1       0.337   8.972  21.818  0.00  0.00    +0.000 OA
ATOM     11  N   UNL     1       1.191   8.986  19.625  0.00  0.00    +0.000 N 
ATOM     12  C   UNL     1       1.826   8.030  18.841  0.00  0.00    +0.000 C 
ATOM     13  O   UNL     1       2.040   8.083  17.635  0.00  0.00    +0.000 OA
BRANCH  11  14
ATOM     14  C   UNL     1       0.684  10.267  19.186  0.00  0.00    +0.000 A 
ATOM     15  C   UNL     1       1.520  11.407  19.152  0.00  0.00    +0.000 A 
ATOM     16  C   UNL     1       1.051  12.677  18.796  0.00  0.00    +0.000 A 
ATOM     17  C   UNL     1      -0.270  12.841  18.433  0.00  0.00    +0.000 A 
ATOM     18  F   UNL     1      -0.713  14.063  18.118  0.00  0.00    +0.000 F 
ATOM     19  C   UNL     1      -1.115  11.736  18.401  0.00  0.00    +0.000 A 
ATOM     20 CL   UNL     1      -2.757  11.923  17.911  0.00  0.00    +0.000 Cl
ATOM     21  C   UNL     1      -0.642  10.458  18.762  0.00  0.00    +0.000 A 
ENDBRANCH  11  14
ENDBRANCH   4   7
BRANCH   1  22
ATOM     22  N   UNL     1       4.754   2.938  18.341  0.00  0.00    +0.000 N 
ATOM     23  H   UNL     1       5.216   2.512  19.140  0.00  0.00    +0.000 HD
BRANCH  22  27
ATOM     24  C   UNL     1       7.081   6.331  17.254  0.00  0.00    +0.000 A 
ATOM     25  C   UNL     1       6.612   5.460  16.266  0.00  0.00    +0.000 A 
ATOM     26  C   UNL     1       5.808   4.349  16.590  0.00  0.00    +0.000 A 
ATOM     27  C   UNL     1       5.438   4.084  17.909  0.00  0.00    +0.000 A 
ATOM     28  C   UNL     1       5.923   4.973  18.887  0.00  0.00    +0.000 A 
ATOM     29  C   UNL     1       6.720   6.088  18.573  0.00  0.00    +0.000 A 
BRANCH  24  31
ATOM     30  C   UNL     1       8.045   8.478  17.652  0.00  0.00    +0.000 C 
ATOM     31  O   UNL     1       7.897   7.337  16.812  0.00  0.00    +0.000 OA
ENDBRANCH  24  31
ENDBRANCH  22  27
ENDBRANCH   1  22
TORSDOF 5
ENDMDL
MODEL 3
REMARK VINA RESULT:      -8.2      0.972      1.589
REMARK  Name = 
REMARK  6 active torsions:
REMARK  status: ('A' for Active; 'I' for Inactive)
REMARK    1  A    between atoms: C_1  and  O_2
REMARK    2  A    between atoms: O_2  and  C_3
REMARK    3  A    between atoms: C_6  and  N_7
REMARK    4  A    between atoms: N_7  and  C_8
REMARK    5  A    between atoms: N_11  and  C_12
REMARK    6  A    between atoms: N_16  and  C_17
REMARK                            x       y       z     vdW  Elec       q    Type
REMARK                         _______ _______ _______ _____ _____    ______ ____
ROOT
ATOM      1  C   UNL     1       2.999   3.253  18.472  0.00  0.00    +0.000 C 
ATOM      2  C   UNL     1       2.359   4.290  17.536  0.00  0.00    +0.000 C 
ATOM      3  C   UNL     1       2.326   5.742  18.052  0.00  0.00    +0.000 C 
ATOM      4  N   UNL     1       1.905   5.925  19.460  0.00  0.00    +0.000 NA
ATOM      5  C   UNL     1       2.590   4.934  20.326  0.00  0.00    +0.000 C 
ATOM      6  C   UNL     1       2.459   3.481  19.877  0.00  0.00    +0.000 C 
ENDROOT
BRANCH   4   7
ATOM      7  C   UNL     1       2.212   7.325  19.940  0.00  0.00    +0.000 C 
ATOM      8  C   UNL     1       1.574   7.654  21.277  0.00  0.00    +0.000 C 
ATOM      9  C   UNL     1       0.904   8.970  21.098  0.00  0.00    +0.000 C 
ATOM     10  O   UNL     1       0.220   9.434  22.003  0.00  0.00    +0.000 OA
ATOM     11  N   UNL     1       1.128   9.455  19.832  0.00  0.00    +0.000 N 
ATOM     12  C   UNL     1       1.743   8.490  19.044  0.00  0.00    +0.000 C 
ATOM     13  O   UNL     1       1.989   8.557  17.845  0.00  0.00    +0.000 OA
BRANCH  11  14
ATOM     14  C   UNL     1       0.685  10.764  19.407  0.00  0.00    +0.000 A 
ATOM     15  C   UNL     1      -0.591  10.948  18.827  0.00  0.00    +0.000 A 
ATOM     16  C   UNL     1      -1.030  12.186  18.344  0.00  0.00    +0.000 A 
ATOM     17  C   UNL     1      -0.212  13.291  18.452  0.00  0.00    +0.000 A 
ATOM     18  F   UNL     1      -0.631  14.465  17.964  0.00  0.00    +0.000 F 
ATOM     19  C   UNL     1       1.032  13.167  19.064  0.00  0.00    +0.000 A 
ATOM     20 CL   UNL     1       2.045  14.550  19.240  0.00  0.00    +0.000 Cl
ATOM     21  C   UNL     1       1.473  11.919  19.549  0.00  0.00    +0.000 A 
ENDBRANCH  11  14
ENDBRANCH   4   7
BRANCH   1  22
ATOM     22  N   UNL     1       4.471   3.315  18.443  0.00  0.00    +0.000 N 
ATOM     23  H   UNL     1       4.891   3.497  19.350  0.00  0.00    +0.000 HD
BRANCH  22  27
ATOM     24  C   UNL     1       6.981   5.092  15.501  0.00  0.00    +0.000 A 
ATOM     25  C   UNL     1       6.067   4.101  15.133  0.00  0.00    +0.000 A 
ATOM     26  C   UNL     1       5.195   3.520  16.076  0.00  0.00    +0.000 A 
ATOM     27  C   UNL     1       5.204   3.922  17.413  0.00  0.00    +0.000 A 
ATOM     28  C   UNL     1       6.134   4.920  17.761  0.00  0.00    +0.000 A 
ATOM     29  C   UNL     1       7.002   5.510  16.826  0.00  0.00    +0.000 A 
BRANCH  24  31
ATOM     30  C   UNL     1       7.584   5.016  13.193  0.00  0.00    +0.000 C 
ATOM     31  O   UNL     1       7.806   5.532  14.502  0.00  0.00    +0.000 OA
ENDBRANCH  24  31
ENDBRANCH  22  27
ENDBRANCH   1  22
TORSDOF 5
ENDMDL
MODEL 4
REMARK VINA RESULT:      -7.9      1.743      2.133
REMARK  Name = 
REMARK  6 active torsions:
REMARK  status: ('A' for Active; 'I' for Inactive)
REMARK    1  A    between atoms: C_1  and  O_2
REMARK    2  A    between atoms: O_2  and  C_3
REMARK    3  A    between atoms: C_6  and  N_7
REMARK    4  A    between atoms: N_7  and  C_8
REMARK    5  A    between atoms: N_11  and  C_12
REMARK    6  A    between atoms: N_16  and  C_17
REMARK                            x       y       z     vdW  Elec       q    Type
REMARK                         _______ _______ _______ _____ _____    ______ ____
ROOT
ATOM      1  C   UNL     1       2.430   3.892  18.973  0.00  0.00    +0.000 C 
ATOM      2  C   UNL     1       2.105   4.951  17.908  0.00  0.00    +0.000 C 
ATOM      3  C   UNL     1       2.146   6.419  18.377  0.00  0.00    +0.000 C 
ATOM      4  N   UNL     1       1.492   6.709  19.673  0.00  0.00    +0.000 NA
ATOM      5  C   UNL     1       1.880   5.688  20.677  0.00  0.00    +0.000 C 
ATOM      6  C   UNL     1       1.667   4.240  20.242  0.00  0.00    +0.000 C 
ENDROOT
BRANCH   4   7
ATOM      7  C   UNL     1       1.865   8.087  20.172  0.00  0.00    +0.000 C 
ATOM      8  C   UNL     1       1.616   8.275  21.658  0.00  0.00    +0.000 C 
ATOM      9  C   UNL     1       0.871   9.555  21.788  0.00  0.00    +0.000 C 
ATOM     10  O   UNL     1       0.451   9.906  22.885  0.00  0.00    +0.000 OA
ATOM     11  N   UNL     1       0.710  10.146  20.559  0.00  0.00    +0.000 N 
ATOM     12  C   UNL     1       1.117   9.282  19.549  0.00  0.00    +0.000 C 
ATOM     13  O   UNL     1       1.014   9.454  18.339  0.00  0.00    +0.000 OA
BRANCH  11  14
ATOM     14  C   UNL     1       0.114  11.452  20.391  0.00  0.00    +0.000 A 
ATOM     15  C   UNL     1       0.918  12.602  20.211  0.00  0.00    +0.000 A 
ATOM     16  C   UNL     1       0.381  13.890  20.110  0.00  0.00    +0.000 A 
ATOM     17  C   UNL     1      -0.986  14.068  20.159  0.00  0.00    +0.000 A 
ATOM     18  F   UNL     1      -1.487  15.306  20.087  0.00  0.00    +0.000 F 
ATOM     19  C   UNL     1      -1.818  12.959  20.282  0.00  0.00    +0.000 A 
ATOM     20 CL   UNL     1      -3.529  13.166  20.304  0.00  0.00    +0.000 Cl
ATOM     21  C   UNL     1      -1.276  11.661  20.385  0.00  0.00    +0.000 A 
ENDBRANCH  11  14
ENDBRANCH   4   7
BRANCH   1  22
ATOM     22  N   UNL     1       3.879   3.789  19.225  0.00  0.00    +0.000 N 
ATOM     23  H   UNL     1       4.154   4.084  20.158  0.00  0.00    +0.000 HD
BRANCH  22  27
ATOM     24  C   UNL     1       6.600   4.855  16.132  0.00  0.00    +0.000 A 
ATOM     25  C   UNL     1       6.702   5.455  17.390  0.00  0.00    +0.000 A 
ATOM     26  C   UNL     1       5.841   5.097  18.446  0.00  0.00    +0.000 A 
ATOM     27  C   UNL     1       4.860   4.118  18.279  0.00  0.00    +0.000 A 
ATOM     28  C   UNL     1       4.773   3.528  17.004  0.00  0.00    +0.000 A 
ATOM     29  C   UNL     1       5.632   3.874  15.946  0.00  0.00    +0.000 A 
BRANCH  24  31
ATOM     30  C   UNL     1       7.237   4.925  13.833  0.00  0.00    +0.000 C 
ATOM     31  O   UNL     1       7.458   5.332  15.180  0.00  0.00    +0.000 OA
ENDBRANCH  24  31
ENDBRANCH  22  27
ENDBRANCH   1  22
TORSDOF 5
ENDMDL
MODEL 5
REMARK VINA RESULT:      -7.8      2.331      2.822
REMARK  Name = 
REMARK  6 active torsions:
REMARK  status: ('A' for Active; 'I' for Inactive)
REMARK    1  A    between atoms: C_1  and  O_2
REMARK    2  A    between atoms: O_2  and  C_3
REMARK    3  A    between atoms: C_6  and  N_7
REMARK    4  A    between atoms: N_7  and  C_8
REMARK    5  A    between atoms: N_11  and  C_12
REMARK    6  A    between atoms: N_16  and  C_17
REMARK                            x       y       z     vdW  Elec       q    Type
REMARK                         _______ _______ _______ _____ _____    ______ ____
ROOT
ATOM      1  C   UNL     1       2.712   5.067  18.788  0.00  0.00    +0.000 C 
ATOM      2  C   UNL     1       2.300   6.237  17.880  0.00  0.00    +0.000 C 
ATOM      3  C   UNL     1       2.156   7.610  18.566  0.00  0.00    +0.000 C 
ATOM      4  N   UNL     1       1.433   7.622  19.857  0.00  0.00    +0.000 NA
ATOM      5  C   UNL     1       1.905   6.506  20.713  0.00  0.00    +0.000 C 
ATOM      6  C   UNL     1       1.874   5.128  20.056  0.00  0.00    +0.000 C 
ENDROOT
BRANCH   4   7
ATOM      7  C   UNL     1       1.629   8.938  20.576  0.00  0.00    +0.000 C 
ATOM      8  C   UNL     1       1.321   8.863  22.060  0.00  0.00    +0.000 C 
ATOM      9  C   UNL     1       0.428  10.015  22.352  0.00  0.00    +0.000 C 
ATOM     10  O   UNL     1      -0.058  10.141  23.470  0.00  0.00    +0.000 OA
ATOM     11  N   UNL     1       0.230  10.769  21.221  0.00  0.00    +0.000 N 
ATOM     12  C   UNL     1       0.761  10.125  20.110  0.00  0.00    +0.000 C 
ATOM     13  O   UNL     1       0.669  10.470  18.937  0.00  0.00    +0.000 OA
BRANCH  11  14
ATOM     14  C   UNL     1      -0.511  12.010  21.228  0.00  0.00    +0.000 A 
ATOM     15  C   UNL     1       0.099  13.220  21.629  0.00  0.00    +0.000 A 
ATOM     16  C   UNL     1      -0.602  14.429  21.712  0.00  0.00    +0.000 A 
ATOM     17  C   UNL     1      -1.936  14.470  21.367  0.00  0.00    +0.000 A 
ATOM     18  F   UNL     1      -2.603  15.625  21.474  0.00  0.00    +0.000 F 
ATOM     19  C   UNL     1      -2.565  13.313  20.916  0.00  0.00    +0.000 A 
ATOM     20 CL   UNL     1      -4.221  13.363  20.444  0.00  0.00    +0.000 Cl
ATOM     21  C   UNL     1      -1.857  12.096  20.834  0.00  0.00    +0.000 A 
ENDBRANCH  11  14
ENDBRANCH   4   7
BRANCH   1  22
ATOM     22  N   UNL     1       4.154   5.086  19.092  0.00  0.00    +0.000 N 
ATOM     23  H   UNL     1       4.399   5.684  19.876  0.00  0.00    +0.000 HD
BRANCH  22  27
ATOM     24  C   UNL     1       6.947   5.110  15.881  0.00  0.00    +0.000 A 
ATOM     25  C   UNL     1       7.023   6.083  16.881  0.00  0.00    +0.000 A 
ATOM     26  C   UNL     1       6.138   6.081  17.977  0.00  0.00    +0.000 A 
ATOM     27  C   UNL     1       5.157   5.096  18.111  0.00  0.00    +0.000 A 
ATOM     28  C   UNL     1       5.097   4.127  17.093  0.00  0.00    +0.000 A 
ATOM     29  C   UNL     1       5.981   4.118  15.999  0.00  0.00    +0.000 A 
BRANCH  24  31
ATOM     30  C   UNL     1       7.344   5.005  13.530  0.00  0.00    +0.000 C 
ATOM     31  O   UNL     1       7.828   5.259  14.845  0.00  0.00    +0.000 OA
ENDBRANCH  24  31
ENDBRANCH  22  27
ENDBRANCH   1  22
TORSDOF 5
ENDMDL
MODEL 6
REMARK VINA RESULT:      -7.8      1.561      2.052
REMARK  Name = 
REMARK  6 active torsions:
REMARK  status: ('A' for Active; 'I' for Inactive)
REMARK    1  A    between atoms: C_1  and  O_2
REMARK    2  A    between atoms: O_2  and  C_3
REMARK    3  A    between atoms: C_6  and  N_7
REMARK    4  A    between atoms: N_7  and  C_8
REMARK    5  A    between atoms: N_11  and  C_12
REMARK    6  A    between atoms: N_16  and  C_17
REMARK                            x       y       z     vdW  Elec       q    Type
REMARK                         _______ _______ _______ _____ _____    ______ ____
ROOT
ATOM      1  C   UNL     1       2.240   3.598  19.069  0.00  0.00    +0.000 C 
ATOM      2  C   UNL     1       1.859   4.591  17.959  0.00  0.00    +0.000 C 
ATOM      3  C   UNL     1       2.000   6.086  18.309  0.00  0.00    +0.000 C 
ATOM      4  N   UNL     1       1.479   6.499  19.632  0.00  0.00    +0.000 NA
ATOM      5  C   UNL     1       1.919   5.536  20.672  0.00  0.00    +0.000 C 
ATOM      6  C   UNL     1       1.611   4.071  20.371  0.00  0.00    +0.000 C 
ENDROOT
BRANCH   4   7
ATOM      7  C   UNL     1       1.950   7.890  19.989  0.00  0.00    +0.000 C 
ATOM      8  C   UNL     1       1.724   8.244  21.448  0.00  0.00    +0.000 C 
ATOM      9  C   UNL     1       1.070   9.579  21.448  0.00  0.00    +0.000 C 
ATOM     10  O   UNL     1       0.683  10.068  22.503  0.00  0.00    +0.000 OA
ATOM     11  N   UNL     1       0.942  10.053  20.165  0.00  0.00    +0.000 N 
ATOM     12  C   UNL     1       1.282   9.066  19.248  0.00  0.00    +0.000 C 
ATOM     13  O   UNL     1       1.182   9.121  18.027  0.00  0.00    +0.000 OA
BRANCH  11  14
ATOM     14  C   UNL     1       0.436  11.374  19.865  0.00  0.00    +0.000 A 
ATOM     15  C   UNL     1       1.226  12.315  19.166  0.00  0.00    +0.000 A 
ATOM     16  C   UNL     1       0.797  13.623  18.915  0.00  0.00    +0.000 A 
ATOM     17  C   UNL     1      -0.454  14.025  19.333  0.00  0.00    +0.000 A 
ATOM     18  F   UNL     1      -0.845  15.285  19.110  0.00  0.00    +0.000 F 
ATOM     19  C   UNL     1      -1.287  13.115  19.978  0.00  0.00    +0.000 A 
ATOM     20 CL   UNL     1      -2.868  13.594  20.468  0.00  0.00    +0.000 Cl
ATOM     21  C   UNL     1      -0.852  11.798  20.232  0.00  0.00    +0.000 A 
ENDBRANCH  11  14
ENDBRANCH   4   7
BRANCH   1  22
ATOM     22  N   UNL     1       3.700   3.448  19.198  0.00  0.00    +0.000 N 
ATOM     23  H   UNL     1       4.048   3.621  20.138  0.00  0.00    +0.000 HD
BRANCH  22  27
ATOM     24  C   UNL     1       6.731   4.633  16.456  0.00  0.00    +0.000 A 
ATOM     25  C   UNL     1       5.631   3.897  16.007  0.00  0.00    +0.000 A 
ATOM     26  C   UNL     1       4.592   3.522  16.882  0.00  0.00    +0.000 A 
ATOM     27  C   UNL     1       4.617   3.883  18.230  0.00  0.00    +0.000 A 
ATOM     28  C   UNL     1       5.734   4.622  18.661  0.00  0.00    +0.000 A 
ATOM     29  C   UNL     1       6.772   5.007  17.794  0.00  0.00    +0.000 A 
BRANCH  24  31
ATOM     30  C   UNL     1       7.281   4.964  14.157  0.00  0.00    +0.000 C 
ATOM     31  O   UNL     1       7.695   4.883  15.518  0.00  0.00    +0.000 OA
ENDBRANCH  24  31
ENDBRANCH  22  27
ENDBRANCH   1  22
TORSDOF 5
ENDMDL
MODEL 7
REMARK VINA RESULT:      -7.8      1.998      2.937
REMARK  Name = 
REMARK  6 active torsions:
REMARK  status: ('A' for Active; 'I' for Inactive)
REMARK    1  A    between atoms: C_1  and  O_2
REMARK    2  A    between atoms: O_2  and  C_3
REMARK    3  A    between atoms: C_6  and  N_7
REMARK    4  A    between atoms: N_7  and  C_8
REMARK    5  A    between atoms: N_11  and  C_12
REMARK    6  A    between atoms: N_16  and  C_17
REMARK                            x       y       z     vdW  Elec       q    Type
REMARK                         _______ _______ _______ _____ _____    ______ ____
ROOT
ATOM      1  C   UNL     1       4.769   3.965  19.259  0.00  0.00    +0.000 C 
ATOM      2  C   UNL     1       3.455   3.803  20.039  0.00  0.00    +0.000 C 
ATOM      3  C   UNL     1       2.372   4.869  19.776  0.00  0.00    +0.000 C 
ATOM      4  N   UNL     1       2.835   6.275  19.746  0.00  0.00    +0.000 NA
ATOM      5  C   UNL     1       4.075   6.383  18.939  0.00  0.00    +0.000 C 
ATOM      6  C   UNL     1       5.194   5.424  19.338  0.00  0.00    +0.000 C 
ENDROOT
BRANCH   4   7
ATOM      7  C   UNL     1       1.770   7.184  19.175  0.00  0.00    +0.000 C 
ATOM      8  C   UNL     1       2.245   7.987  17.978  0.00  0.00    +0.000 C 
ATOM      9  C   UNL     1       1.847   9.394  18.246  0.00  0.00    +0.000 C 
ATOM     10  O   UNL     1       2.196  10.283  17.477  0.00  0.00    +0.000 OA
ATOM     11  N   UNL     1       1.155   9.481  19.429  0.00  0.00    +0.000 N 
ATOM     12  C   UNL     1       1.205   8.271  20.110  0.00  0.00    +0.000 C 
ATOM     13  O   UNL     1       0.781   8.036  21.237  0.00  0.00    +0.000 OA
BRANCH  11  14
ATOM     14  C   UNL     1       0.553  10.711  19.894  0.00  0.00    +0.000 A 
ATOM     15  C   UNL     1       1.324  11.694  20.557  0.00  0.00    +0.000 A 
ATOM     16  C   UNL     1       0.766  12.867  21.078  0.00  0.00    +0.000 A 
ATOM     17  C   UNL     1      -0.583  13.107  20.928  0.00  0.00    +0.000 A 
ATOM     18  F   UNL     1      -1.111  14.219  21.453  0.00  0.00    +0.000 F 
ATOM     19  C   UNL     1      -1.371  12.192  20.237  0.00  0.00    +0.000 A 
ATOM     20 CL   UNL     1      -3.051  12.502  20.008  0.00  0.00    +0.000 Cl
ATOM     21  C   UNL     1      -0.807  11.010  19.713  0.00  0.00    +0.000 A 
ENDBRANCH  11  14
ENDBRANCH   4   7
BRANCH   1  22
ATOM     22  N   UNL     1       4.640   3.515  17.861  0.00  0.00    +0.000 N 
ATOM     23  H   UNL     1       4.386   2.535  17.769  0.00  0.00    +0.000 HD
BRANCH  22  27
ATOM     24  C   UNL     1       7.032   4.975  14.659  0.00  0.00    +0.000 A 
ATOM     25  C   UNL     1       7.589   4.817  15.931  0.00  0.00    +0.000 A 
ATOM     26  C   UNL     1       6.834   4.301  17.003  0.00  0.00    +0.000 A 
ATOM     27  C   UNL     1       5.504   3.915  16.831  0.00  0.00    +0.000 A 
ATOM     28  C   UNL     1       4.963   4.085  15.543  0.00  0.00    +0.000 A 
ATOM     29  C   UNL     1       5.710   4.592  14.466  0.00  0.00    +0.000 A 
BRANCH  24  31
ATOM     30  C   UNL     1       7.656   5.162  12.363  0.00  0.00    +0.000 C 
ATOM     31  O   UNL     1       7.855   5.539  13.722  0.00  0.00    +0.000 OA
ENDBRANCH  24  31
ENDBRANCH  22  27
ENDBRANCH   1  22
TORSDOF 5
ENDMDL
MODEL 8
REMARK VINA RESULT:      -7.8      4.084      8.652
REMARK  Name = 
REMARK  6 active torsions:
REMARK  status: ('A' for Active; 'I' for Inactive)
REMARK    1  A    between atoms: C_1  and  O_2
REMARK    2  A    between atoms: O_2  and  C_3
REMARK    3  A    between atoms: C_6  and  N_7
REMARK    4  A    between atoms: N_7  and  C_8
REMARK    5  A    between atoms: N_11  and  C_12
REMARK    6  A    between atoms: N_16  and  C_17
REMARK                            x       y       z     vdW  Elec       q    Type
REMARK                         _______ _______ _______ _____ _____    ______ ____
ROOT
ATOM      1  C   UNL     1      -1.730  12.364  19.240  0.00  0.00    +0.000 C 
ATOM      2  C   UNL     1      -1.061  12.200  20.614  0.00  0.00    +0.000 C 
ATOM      3  C   UNL     1       0.198  11.310  20.653  0.00  0.00    +0.000 C 
ATOM      4  N   UNL     1       0.115  10.030  19.915  0.00  0.00    +0.000 NA
ATOM      5  C   UNL     1      -0.490  10.253  18.579  0.00  0.00    +0.000 C 
ATOM      6  C   UNL     1      -1.826  10.993  18.589  0.00  0.00    +0.000 C 
ENDROOT
BRANCH   4   7
ATOM      7  C   UNL     1       1.483   9.404  19.760  0.00  0.00    +0.000 C 
ATOM      8  C   UNL     1       2.013   9.464  18.339  0.00  0.00    +0.000 C 
ATOM      9  C   UNL     1       2.482   8.090  18.018  0.00  0.00    +0.000 C 
ATOM     10  O   UNL     1       2.873   7.828  16.887  0.00  0.00    +0.000 OA
ATOM     11  N   UNL     1       2.330   7.264  19.106  0.00  0.00    +0.000 N 
ATOM     12  C   UNL     1       1.610   7.907  20.106  0.00  0.00    +0.000 C 
ATOM     13  O   UNL     1       1.211   7.425  21.160  0.00  0.00    +0.000 OA
BRANCH  11  14
ATOM     14  C   UNL     1       2.797   5.896  19.120  0.00  0.00    +0.000 A 
ATOM     15  C   UNL     1       4.169   5.598  19.287  0.00  0.00    +0.000 A 
ATOM     16  C   UNL     1       4.669   4.291  19.241  0.00  0.00    +0.000 A 
ATOM     17  C   UNL     1       3.803   3.234  19.054  0.00  0.00    +0.000 A 
ATOM     18  F   UNL     1       4.294   1.991  18.987  0.00  0.00    +0.000 F 
ATOM     19  C   UNL     1       2.438   3.478  18.938  0.00  0.00    +0.000 A 
ATOM     20 CL   UNL     1       1.343   2.161  18.744  0.00  0.00    +0.000 Cl
ATOM     21  C   UNL     1       1.936   4.795  18.983  0.00  0.00    +0.000 A 
ENDBRANCH  11  14
ENDBRANCH   4   7
BRANCH   1  22
ATOM     22  N   UNL     1      -1.006  13.320  18.383  0.00  0.00    +0.000 N 
ATOM     23  H   UNL     1      -1.013  13.072  17.397  0.00  0.00    +0.000 HD
BRANCH  22  27
ATOM     24  C   UNL     1       2.753  15.161  19.148  0.00  0.00    +0.000 A 
ATOM     25  C   UNL     1       1.577  15.752  19.618  0.00  0.00    +0.000 A 
ATOM     26  C   UNL     1       0.320  15.148  19.415  0.00  0.00    +0.000 A 
ATOM     27  C   UNL     1       0.204  13.929  18.745  0.00  0.00    +0.000 A 
ATOM     28  C   UNL     1       1.400  13.353  18.279  0.00  0.00    +0.000 A 
ATOM     29  C   UNL     1       2.659  13.944  18.484  0.00  0.00    +0.000 A 
BRANCH  24  31
ATOM     30  C   UNL     1       4.052  16.504  20.633  0.00  0.00    +0.000 C 
ATOM     31  O   UNL     1       3.899  15.877  19.363  0.00  0.00    +0.000 OA
ENDBRANCH  24  31
ENDBRANCH  22  27
ENDBRANCH   1  22
TORSDOF 5
ENDMDL
MODEL 9
REMARK VINA RESULT:      -7.7      3.224      4.565
REMARK  Name = 
REMARK  6 active torsions:
REMARK  status: ('A' for Active; 'I' for Inactive)
REMARK    1  A    between atoms: C_1  and  O_2
REMARK    2  A    between atoms: O_2  and  C_3
REMARK    3  A    between atoms: C_6  and  N_7
REMARK    4  A    between atoms: N_7  and  C_8
REMARK    5  A    between atoms: N_11  and  C_12
REMARK    6  A    between atoms: N_16  and  C_17
REMARK                            x       y       z     vdW  Elec       q    Type
REMARK                         _______ _______ _______ _____ _____    ______ ____
ROOT
ATOM      1  C   UNL     1       6.841   5.089  16.972  0.00  0.00    +0.000 C 
ATOM      2  C   UNL     1       5.695   4.087  17.187  0.00  0.00    +0.000 C 
ATOM      3  C   UNL     1       4.298   4.695  17.424  0.00  0.00    +0.000 C 
ATOM      4  N   UNL     1       4.233   5.830  18.372  0.00  0.00    +0.000 NA
ATOM      5  C   UNL     1       5.328   6.791  18.088  0.00  0.00    +0.000 C 
ATOM      6  C   UNL     1       6.726   6.179  18.026  0.00  0.00    +0.000 C 
ENDROOT
BRANCH   4   7
ATOM      7  C   UNL     1       2.898   6.534  18.284  0.00  0.00    +0.000 C 
ATOM      8  C   UNL     1       2.950   7.820  17.479  0.00  0.00    +0.000 C 
ATOM      9  C   UNL     1       2.277   8.851  18.313  0.00  0.00    +0.000 C 
ATOM     10  O   UNL     1       2.262  10.020  17.943  0.00  0.00    +0.000 OA
ATOM     11  N   UNL     1       1.801   8.294  19.476  0.00  0.00    +0.000 N 
ATOM     12  C   UNL     1       2.259   6.989  19.611  0.00  0.00    +0.000 C 
ATOM     13  O   UNL     1       2.108   6.246  20.574  0.00  0.00    +0.000 OA
BRANCH  11  14
ATOM     14  C   UNL     1       1.011   9.037  20.432  0.00  0.00    +0.000 A 
ATOM     15  C   UNL     1       1.104   8.768  21.818  0.00  0.00    +0.000 A 
ATOM     16  C   UNL     1       0.309   9.419  22.768  0.00  0.00    +0.000 A 
ATOM     17  C   UNL     1      -0.589  10.385  22.363  0.00  0.00    +0.000 A 
ATOM     18  F   UNL     1      -1.362  10.983  23.276  0.00  0.00    +0.000 F 
ATOM     19  C   UNL     1      -0.676  10.718  21.014  0.00  0.00    +0.000 A 
ATOM     20 CL   UNL     1      -1.765  11.951  20.502  0.00  0.00    +0.000 Cl
ATOM     21  C   UNL     1       0.125  10.060  20.058  0.00  0.00    +0.000 A 
ENDBRANCH  11  14
ENDBRANCH   4   7
BRANCH   1  22
ATOM     22  N   UNL     1       6.834   5.651  15.610  0.00  0.00    +0.000 N 
ATOM     23  H   UNL     1       6.506   6.613  15.566  0.00  0.00    +0.000 HD
BRANCH  22  27
ATOM     24  C   UNL     1       5.945   3.269  12.197  0.00  0.00    +0.000 A 
ATOM     25  C   UNL     1       4.978   3.458  13.189  0.00  0.00    +0.000 A 
ATOM     26  C   UNL     1       5.228   4.272  14.312  0.00  0.00    +0.000 A 
ATOM     27  C   UNL     1       6.449   4.930  14.470  0.00  0.00    +0.000 A 
ATOM     28  C   UNL     1       7.408   4.725  13.461  0.00  0.00    +0.000 A 
ATOM     29  C   UNL     1       7.165   3.921  12.334  0.00  0.00    +0.000 A 
BRANCH  24  31
ATOM     30  C   UNL     1       6.251   1.149  11.146  0.00  0.00    +0.000 C 
ATOM     31  O   UNL     1       5.595   2.413  11.190  0.00  0.00    +0.000 OA
ENDBRANCH  24  31
ENDBRANCH  22  27
ENDBRANCH   1  22
TORSDOF 5
ENDMDL
