MODEL 1
REMARK VINA RESULT:      -7.6      0.000      0.000
REMARK  Name = 
REMARK  8 active torsions:
REMARK  status: ('A' for Active; 'I' for Inactive)
REMARK    1  A    between atoms: C_2  and  C_13
REMARK    2  A    between atoms: N_3  and  C_4
REMARK    3  A    between atoms: C_9  and  C_10
REMARK    4  A    between atoms: C_10  and  C_11
REMARK    5  A    between atoms: C_11  and  O_12
REMARK    6  A    between atoms: C_17  and  C_18
REMARK    7  A    between atoms: C_18  and  N_19
REMARK    8  A    between atoms: C_22  and  O_23
REMARK                            x       y       z     vdW  Elec       q    Type
REMARK                         _______ _______ _______ _____ _____    ______ ____
ROOT
ATOM      1  O   UNL     1       2.608   8.300  17.297  0.00  0.00    +0.000 OA
ATOM      2  C   UNL     1       2.278   7.888  18.401  0.00  0.00    +0.000 C 
ATOM      3  N   UNL     1       2.611   6.656  18.952  0.00  0.00    +0.000 N 
ATOM      4  H   UNL     1       2.028   6.276  19.698  0.00  0.00    +0.000 HD
ENDROOT
BRANCH   3   5
ATOM      5  C   UNL     1       3.458   5.745  18.277  0.00  0.00    +0.000 A 
ATOM      6  C   UNL     1       4.811   6.068  18.108  0.00  0.00    +0.000 A 
ATOM      7  C   UNL     1       5.663   5.244  17.379  0.00  0.00    +0.000 A 
ATOM      8  C   UNL     1       5.167   4.082  16.805  0.00  0.00    +0.000 A 
ATOM      9  C   UNL     1       3.830   3.725  17.000  0.00  0.00    +0.000 A 
ATOM     10  C   UNL     1       2.956   4.538  17.751  0.00  0.00    +0.000 A 
BRANCH  10  11
ATOM     11  C   UNL     1       1.496   4.136  17.829  0.00  0.00    +0.000 C 
BRANCH  11  12
ATOM     12  C   UNL     1       1.195   3.038  18.848  0.00  0.00    +0.000 C 
BRANCH  12  13
ATOM     13  O   UNL     1       0.568   3.580  20.009  0.00  0.00    +0.000 OA
ATOM     14  H   UNL     1       0.125   4.398  19.719  0.00  0.00    +0.000 HD
ENDBRANCH  12  13
ENDBRANCH  11  12
ENDBRANCH  10  11
ENDBRANCH   3   5
BRANCH   2  15
ATOM     15  C   UNL     1       1.354   8.728  19.199  0.00  0.00    +0.000 A 
ATOM     16  C   UNL     1       1.364   8.701  20.590  0.00  0.00    +0.000 A 
ATOM     17  C   UNL     1       0.509   9.558  21.298  0.00  0.00    +0.000 A 
ATOM     18  C   UNL     1      -0.374  10.397  20.603  0.00  0.00    +0.000 A 
ATOM     19  C   UNL     1      -0.398  10.421  19.199  0.00  0.00    +0.000 A 
ATOM     20  C   UNL     1       0.504   9.598  18.506  0.00  0.00    +0.000 A 
BRANCH  19  21
ATOM     21  C   UNL     1      -1.456  11.186  18.423  0.00  0.00    +0.000 C 
BRANCH  21  22
ATOM     22  N   UNL     1      -2.571  10.376  17.914  0.00  0.00    +0.000 NA
ATOM     23  C   UNL     1      -3.854  11.098  17.946  0.00  0.00    +0.000 C 
ATOM     24  C   UNL     1      -4.348  11.281  16.516  0.00  0.00    +0.000 C 
ATOM     25  C   UNL     1      -3.173  10.911  15.633  0.00  0.00    +0.000 C 
ATOM     26  C   UNL     1      -2.343   9.983  16.511  0.00  0.00    +0.000 C 
BRANCH  25  27
ATOM     27  O   UNL     1      -3.602  10.257  14.446  0.00  0.00    +0.000 OA
ATOM     28  H   UNL     1      -3.455   9.303  14.561  0.00  0.00    +0.000 HD
ENDBRANCH  25  27
ENDBRANCH  21  22
ENDBRANCH  19  21
ENDBRANCH   2  15
TORSDOF 8
ENDMDL
MODEL 2
REMARK VINA RESULT:      -7.4      1.320      1.402
REMARK  Name = 
REMARK  8 active torsions:
REMARK  status: ('A' for Active; 'I' for Inactive)
REMARK    1  A    between atoms: C_2  and  C_13
REMARK    2  A    between atoms: N_3  and  C_4
REMARK    3  A    between atoms: C_9  and  C_10
REMARK    4  A    between atoms: C_10  and  C_11
REMARK    5  A    between atoms: C_11  and  O_12
REMARK    6  A    between atoms: C_17  and  C_18
REMARK    7  A    between atoms: C_18  and  N_19
REMARK    8  A    between atoms: C_22  and  O_23
REMARK                            x       y       z     vdW  Elec       q    Type
REMARK                         _______ _______ _______ _____ _____    ______ ____
ROOT
ATOM      1  O   UNL     1       2.482   7.976  18.388  0.00  0.00    +0.000 OA
ATOM      2  C   UNL     1       2.090   7.764  19.527  0.00  0.00    +0.000 C 
ATOM      3  N   UNL     1       2.334   6.624  20.282  0.00  0.00    +0.000 N 
ATOM      4  H   UNL     1       1.705   6.398  21.053  0.00  0.00    +0.000 HD
ENDROOT
BRANCH   3   5
ATOM      5  C   UNL     1       3.153   5.575  19.800  0.00  0.00    +0.000 A 
ATOM      6  C   UNL     1       4.439   5.874  19.330  0.00  0.00    +0.000 A 
ATOM      7  C   UNL     1       5.248   4.891  18.769  0.00  0.00    +0.000 A 
ATOM      8  C   UNL     1       4.775   3.589  18.670  0.00  0.00    +0.000 A 
ATOM      9  C   UNL     1       3.512   3.267  19.172  0.00  0.00    +0.000 A 
ATOM     10  C   UNL     1       2.686   4.246  19.760  0.00  0.00    +0.000 A 
BRANCH  10  11
ATOM     11  C   UNL     1       1.288   3.839  20.188  0.00  0.00    +0.000 C 
BRANCH  11  12
ATOM     12  C   UNL     1       1.245   2.777  21.285  0.00  0.00    +0.000 C 
BRANCH  12  13
ATOM     13  O   UNL     1       2.141   3.105  22.345  0.00  0.00    +0.000 OA
ATOM     14  H   UNL     1       1.922   2.501  23.078  0.00  0.00    +0.000 HD
ENDBRANCH  12  13
ENDBRANCH  11  12
ENDBRANCH  10  11
ENDBRANCH   3   5
BRANCH   2  15
ATOM     15  C   UNL     1       1.186   8.768  20.138  0.00  0.00    +0.000 A 
ATOM     16  C   UNL     1       1.095   8.919  21.519  0.00  0.00    +0.000 A 
ATOM     17  C   UNL     1       0.267   9.922  22.044  0.00  0.00    +0.000 A 
ATOM     18  C   UNL     1      -0.491  10.727  21.182  0.00  0.00    +0.000 A 
ATOM     19  C   UNL     1      -0.413  10.572  19.789  0.00  0.00    +0.000 A 
ATOM     20  C   UNL     1       0.462   9.602  19.278  0.00  0.00    +0.000 A 
BRANCH  19  21
ATOM     21  C   UNL     1      -1.346  11.307  18.842  0.00  0.00    +0.000 C 
BRANCH  21  22
ATOM     22  N   UNL     1      -2.406  10.487  18.240  0.00  0.00    +0.000 NA
ATOM     23  C   UNL     1      -3.689  11.202  18.146  0.00  0.00    +0.000 C 
ATOM     24  C   UNL     1      -4.048  11.369  16.674  0.00  0.00    +0.000 C 
ATOM     25  C   UNL     1      -2.795  10.997  15.908  0.00  0.00    +0.000 C 
ATOM     26  C   UNL     1      -2.046  10.081  16.867  0.00  0.00    +0.000 C 
BRANCH  25  27
ATOM     27  O   UNL     1      -3.109  10.330  14.693  0.00  0.00    +0.000 OA
ATOM     28  H   UNL     1      -2.571   9.522  14.648  0.00  0.00    +0.000 HD
ENDBRANCH  25  27
ENDBRANCH  21  22
ENDBRANCH  19  21
ENDBRANCH   2  15
TORSDOF 8
ENDMDL
MODEL 3
REMARK VINA RESULT:      -7.4      2.395      8.262
REMARK  Name = 
REMARK  8 active torsions:
REMARK  status: ('A' for Active; 'I' for Inactive)
REMARK    1  A    between atoms: C_2  and  C_13
REMARK    2  A    between atoms: N_3  and  C_4
REMARK    3  A    between atoms: C_9  and  C_10
REMARK    4  A    between atoms: C_10  and  C_11
REMARK    5  A    between atoms: C_11  and  O_12
REMARK    6  A    between atoms: C_17  and  C_18
REMARK    7  A    between atoms: C_18  and  N_19
REMARK    8  A    between atoms: C_22  and  O_23
REMARK                            x       y       z     vdW  Elec       q    Type
REMARK                         _______ _______ _______ _____ _____    ______ ____
ROOT
ATOM      1  O   UNL     1       2.237   9.715  17.593  0.00  0.00    +0.000 OA
ATOM      2  C   UNL     1       1.745   9.331  18.646  0.00  0.00    +0.000 C 
ATOM      3  N   UNL     1       0.991  10.094  19.528  0.00  0.00    +0.000 N 
ATOM      4  H   UNL     1       0.922   9.798  20.502  0.00  0.00    +0.000 HD
ENDROOT
BRANCH   3   5
ATOM      5  C   UNL     1       0.652  11.439  19.245  0.00  0.00    +0.000 A 
ATOM      6  C   UNL     1       1.490  12.465  19.704  0.00  0.00    +0.000 A 
ATOM      7  C   UNL     1       1.155  13.803  19.525  0.00  0.00    +0.000 A 
ATOM      8  C   UNL     1      -0.031  14.132  18.881  0.00  0.00    +0.000 A 
ATOM      9  C   UNL     1      -0.855  13.121  18.381  0.00  0.00    +0.000 A 
ATOM     10  C   UNL     1      -0.523  11.760  18.538  0.00  0.00    +0.000 A 
BRANCH  10  11
ATOM     11  C   UNL     1      -1.520  10.721  18.059  0.00  0.00    +0.000 C 
BRANCH  11  12
ATOM     12  C   UNL     1      -2.704  11.291  17.280  0.00  0.00    +0.000 C 
BRANCH  12  13
ATOM     13  O   UNL     1      -2.424  11.325  15.883  0.00  0.00    +0.000 OA
ATOM     14  H   UNL     1      -1.614  10.797  15.757  0.00  0.00    +0.000 HD
ENDBRANCH  12  13
ENDBRANCH  11  12
ENDBRANCH  10  11
ENDBRANCH   3   5
BRANCH   2  15
ATOM     15  C   UNL     1       2.057   7.949  19.084  0.00  0.00    +0.000 A 
ATOM     16  C   UNL     1       1.559   7.435  20.277  0.00  0.00    +0.000 A 
ATOM     17  C   UNL     1       1.837   6.103  20.617  0.00  0.00    +0.000 A 
ATOM     18  C   UNL     1       2.645   5.320  19.780  0.00  0.00    +0.000 A 
ATOM     19  C   UNL     1       3.160   5.837  18.581  0.00  0.00    +0.000 A 
ATOM     20  C   UNL     1       2.826   7.153  18.227  0.00  0.00    +0.000 A 
BRANCH  19  21
ATOM     21  C   UNL     1       4.173   5.075  17.744  0.00  0.00    +0.000 C 
BRANCH  21  22
ATOM     22  N   UNL     1       5.486   5.721  17.603  0.00  0.00    +0.000 NA
ATOM     23  C   UNL     1       6.578   4.913  18.172  0.00  0.00    +0.000 C 
ATOM     24  C   UNL     1       7.520   4.503  17.046  0.00  0.00    +0.000 C 
ATOM     25  C   UNL     1       6.787   4.842  15.764  0.00  0.00    +0.000 C 
ATOM     26  C   UNL     1       5.818   5.940  16.182  0.00  0.00    +0.000 C 
BRANCH  25  27
ATOM     27  O   UNL     1       7.684   5.297  14.759  0.00  0.00    +0.000 OA
ATOM     28  H   UNL     1       7.480   6.229  14.576  0.00  0.00    +0.000 HD
ENDBRANCH  25  27
ENDBRANCH  21  22
ENDBRANCH  19  21
ENDBRANCH   2  15
TORSDOF 8
ENDMDL
MODEL 4
REMARK VINA RESULT:      -7.2      3.103      8.142
REMARK  Name = 
REMARK  8 active torsions:
REMARK  status: ('A' for Active; 'I' for Inactive)
REMARK    1  A    between atoms: C_2  and  C_13
REMARK    2  A    between atoms: N_3  and  C_4
REMARK    3  A    between atoms: C_9  and  C_10
REMARK    4  A    between atoms: C_10  and  C_11
REMARK    5  A    between atoms: C_11  and  O_12
REMARK    6  A    between atoms: C_17  and  C_18
REMARK    7  A    between atoms: C_18  and  N_19
REMARK    8  A    between atoms: C_22  and  O_23
REMARK                            x       y       z     vdW  Elec       q    Type
REMARK                         _______ _______ _______ _____ _____    ______ ____
ROOT
ATOM      1  O   UNL     1       0.372   5.927  20.677  0.00  0.00    +0.000 OA
ATOM      2  C   UNL     1       1.568   6.184  20.656  0.00  0.00    +0.000 C 
ATOM      3  N   UNL     1       2.142   7.443  20.779  0.00  0.00    +0.000 N 
ATOM      4  H   UNL     1       3.084   7.594  20.416  0.00  0.00    +0.000 HD
ENDROOT
BRANCH   3   5
ATOM      5  C   UNL     1       1.357   8.597  21.015  0.00  0.00    +0.000 A 
ATOM      6  C   UNL     1       1.049   8.955  22.335  0.00  0.00    +0.000 A 
ATOM      7  C   UNL     1       0.212  10.030  22.614  0.00  0.00    +0.000 A 
ATOM      8  C   UNL     1      -0.332  10.764  21.568  0.00  0.00    +0.000 A 
ATOM      9  C   UNL     1      -0.000  10.446  20.249  0.00  0.00    +0.000 A 
ATOM     10  C   UNL     1       0.861   9.371  19.948  0.00  0.00    +0.000 A 
BRANCH  10  11
ATOM     11  C   UNL     1       1.089   9.024  18.488  0.00  0.00    +0.000 C 
BRANCH  11  12
ATOM     12  C   UNL     1       2.367   9.609  17.891  0.00  0.00    +0.000 C 
BRANCH  12  13
ATOM     13  O   UNL     1       2.153  10.945  17.439  0.00  0.00    +0.000 OA
ATOM     14  H   UNL     1       1.527  11.345  18.070  0.00  0.00    +0.000 HD
ENDBRANCH  12  13
ENDBRANCH  11  12
ENDBRANCH  10  11
ENDBRANCH   3   5
BRANCH   2  15
ATOM     15  C   UNL     1       2.503   5.068  20.375  0.00  0.00    +0.000 A 
ATOM     16  C   UNL     1       2.269   3.784  20.859  0.00  0.00    +0.000 A 
ATOM     17  C   UNL     1       3.155   2.752  20.516  0.00  0.00    +0.000 A 
ATOM     18  C   UNL     1       4.284   3.029  19.732  0.00  0.00    +0.000 A 
ATOM     19  C   UNL     1       4.532   4.325  19.251  0.00  0.00    +0.000 A 
ATOM     20  C   UNL     1       3.606   5.334  19.555  0.00  0.00    +0.000 A 
BRANCH  19  21
ATOM     21  C   UNL     1       5.828   4.689  18.548  0.00  0.00    +0.000 C 
BRANCH  21  22
ATOM     22  N   UNL     1       6.043   4.040  17.247  0.00  0.00    +0.000 NA
ATOM     23  C   UNL     1       4.981   4.354  16.277  0.00  0.00    +0.000 C 
ATOM     24  C   UNL     1       5.594   5.134  15.119  0.00  0.00    +0.000 C 
ATOM     25  C   UNL     1       6.981   5.524  15.584  0.00  0.00    +0.000 C 
ATOM     26  C   UNL     1       7.314   4.477  16.640  0.00  0.00    +0.000 C 
BRANCH  25  27
ATOM     27  O   UNL     1       7.915   5.495  14.513  0.00  0.00    +0.000 OA
ATOM     28  H   UNL     1       7.425   5.636  13.686  0.00  0.00    +0.000 HD
ENDBRANCH  25  27
ENDBRANCH  21  22
ENDBRANCH  19  21
ENDBRANCH   2  15
TORSDOF 8
ENDMDL
MODEL 5
REMARK VINA RESULT:      -7.1      1.915      7.880
REMARK  Name = 
REMARK  8 active torsions:
REMARK  status: ('A' for Active; 'I' for Inactive)
REMARK    1  A    between atoms: C_2  and  C_13
REMARK    2  A    between atoms: N_3  and  C_4
REMARK    3  A    between atoms: C_9  and  C_10
REMARK    4  A    between atoms: C_10  and  C_11
REMARK    5  A    between atoms: C_11  and  O_12
REMARK    6  A    between atoms: C_17  and  C_18
REMARK    7  A    between atoms: C_18  and  N_19
REMARK    8  A    between atoms: C_22  and  O_23
REMARK                            x       y       z     vdW  Elec       q    Type
REMARK                         _______ _______ _______ _____ _____    ______ ____
ROOT
ATOM      1  O   UNL     1       2.094  10.149  17.460  0.00  0.00    +0.000 OA
ATOM      2  C   UNL     1       1.755   9.253  18.221  0.00  0.00    +0.000 C 
ATOM      3  N   UNL     1       0.717   9.306  19.144  0.00  0.00    +0.000 N 
ATOM      4  H   UNL     1       0.732   8.668  19.940  0.00  0.00    +0.000 HD
ENDROOT
BRANCH   3   5
ATOM      5  C   UNL     1      -0.125  10.438  19.250  0.00  0.00    +0.000 A 
ATOM      6  C   UNL     1       0.080  11.346  20.298  0.00  0.00    +0.000 A 
ATOM      7  C   UNL     1      -0.774  12.426  20.493  0.00  0.00    +0.000 A 
ATOM      8  C   UNL     1      -1.852  12.611  19.638  0.00  0.00    +0.000 A 
ATOM      9  C   UNL     1      -2.045  11.739  18.563  0.00  0.00    +0.000 A 
ATOM     10  C   UNL     1      -1.179  10.649  18.339  0.00  0.00    +0.000 A 
BRANCH  10  11
ATOM     11  C   UNL     1      -1.516   9.688  17.214  0.00  0.00    +0.000 C 
BRANCH  11  12
ATOM     12  C   UNL     1      -2.851   9.961  16.525  0.00  0.00    +0.000 C 
BRANCH  12  13
ATOM     13  O   UNL     1      -2.649  10.529  15.233  0.00  0.00    +0.000 OA
ATOM     14  H   UNL     1      -3.087  11.399  15.249  0.00  0.00    +0.000 HD
ENDBRANCH  12  13
ENDBRANCH  11  12
ENDBRANCH  10  11
ENDBRANCH   3   5
BRANCH   2  15
ATOM     15  C   UNL     1       2.581   8.023  18.241  0.00  0.00    +0.000 A 
ATOM     16  C   UNL     1       3.586   7.806  17.303  0.00  0.00    +0.000 A 
ATOM     17  C   UNL     1       4.377   6.651  17.402  0.00  0.00    +0.000 A 
ATOM     18  C   UNL     1       4.120   5.711  18.409  0.00  0.00    +0.000 A 
ATOM     19  C   UNL     1       3.100   5.917  19.351  0.00  0.00    +0.000 A 
ATOM     20  C   UNL     1       2.355   7.104  19.273  0.00  0.00    +0.000 A 
BRANCH  19  21
ATOM     21  C   UNL     1       2.688   4.843  20.342  0.00  0.00    +0.000 C 
BRANCH  21  22
ATOM     22  N   UNL     1       2.027   3.667  19.757  0.00  0.00    +0.000 NA
ATOM     23  C   UNL     1       1.745   3.834  18.322  0.00  0.00    +0.000 C 
ATOM     24  C   UNL     1       2.555   2.805  17.542  0.00  0.00    +0.000 C 
ATOM     25  C   UNL     1       3.544   2.232  18.536  0.00  0.00    +0.000 C 
ATOM     26  C   UNL     1       2.874   2.466  19.885  0.00  0.00    +0.000 C 
BRANCH  25  27
ATOM     27  O   UNL     1       3.771   0.848  18.303  0.00  0.00    +0.000 OA
ATOM     28  H   UNL     1       4.176   0.756  17.425  0.00  0.00    +0.000 HD
ENDBRANCH  25  27
ENDBRANCH  21  22
ENDBRANCH  19  21
ENDBRANCH   2  15
TORSDOF 8
ENDMDL
MODEL 6
REMARK VINA RESULT:      -7.1      3.047      4.868
REMARK  Name = 
REMARK  8 active torsions:
REMARK  status: ('A' for Active; 'I' for Inactive)
REMARK    1  A    between atoms: C_2  and  C_13
REMARK    2  A    between atoms: N_3  and  C_4
REMARK    3  A    between atoms: C_9  and  C_10
REMARK    4  A    between atoms: C_10  and  C_11
REMARK    5  A    between atoms: C_11  and  O_12
REMARK    6  A    between atoms: C_17  and  C_18
REMARK    7  A    between atoms: C_18  and  N_19
REMARK    8  A    between atoms: C_22  and  O_23
REMARK                            x       y       z     vdW  Elec       q    Type
REMARK                         _______ _______ _______ _____ _____    ______ ____
ROOT
ATOM      1  O   UNL     1       4.171   3.189  17.672  0.00  0.00    +0.000 OA
ATOM      2  C   UNL     1       3.824   4.362  17.691  0.00  0.00    +0.000 C 
ATOM      3  N   UNL     1       4.318   5.379  16.883  0.00  0.00    +0.000 N 
ATOM      4  H   UNL     1       4.224   6.346  17.194  0.00  0.00    +0.000 HD
ENDROOT
BRANCH   3   5
ATOM      5  C   UNL     1       5.272   5.125  15.869  0.00  0.00    +0.000 A 
ATOM      6  C   UNL     1       4.872   4.449  14.709  0.00  0.00    +0.000 A 
ATOM      7  C   UNL     1       5.791   4.103  13.723  0.00  0.00    +0.000 A 
ATOM      8  C   UNL     1       7.130   4.430  13.890  0.00  0.00    +0.000 A 
ATOM      9  C   UNL     1       7.537   5.141  15.021  0.00  0.00    +0.000 A 
ATOM     10  C   UNL     1       6.617   5.516  16.022  0.00  0.00    +0.000 A 
BRANCH  10  11
ATOM     11  C   UNL     1       7.153   6.195  17.268  0.00  0.00    +0.000 C 
BRANCH  11  12
ATOM     12  C   UNL     1       7.737   5.241  18.308  0.00  0.00    +0.000 C 
BRANCH  12  13
ATOM     13  O   UNL     1       6.872   4.127  18.519  0.00  0.00    +0.000 OA
ATOM     14  H   UNL     1       6.031   4.352  18.080  0.00  0.00    +0.000 HD
ENDBRANCH  12  13
ENDBRANCH  11  12
ENDBRANCH  10  11
ENDBRANCH   3   5
BRANCH   2  15
ATOM     15  C   UNL     1       2.856   4.773  18.735  0.00  0.00    +0.000 A 
ATOM     16  C   UNL     1       1.986   3.858  19.320  0.00  0.00    +0.000 A 
ATOM     17  C   UNL     1       1.129   4.288  20.344  0.00  0.00    +0.000 A 
ATOM     18  C   UNL     1       1.125   5.634  20.736  0.00  0.00    +0.000 A 
ATOM     19  C   UNL     1       1.992   6.564  20.142  0.00  0.00    +0.000 A 
ATOM     20  C   UNL     1       2.882   6.107  19.158  0.00  0.00    +0.000 A 
BRANCH  19  21
ATOM     21  C   UNL     1       1.891   8.054  20.422  0.00  0.00    +0.000 C 
BRANCH  21  22
ATOM     22  N   UNL     1       0.740   8.732  19.810  0.00  0.00    +0.000 NA
ATOM     23  C   UNL     1       0.034   9.611  20.756  0.00  0.00    +0.000 C 
ATOM     24  C   UNL     1       0.158  11.051  20.271  0.00  0.00    +0.000 C 
ATOM     25  C   UNL     1       1.208  11.020  19.180  0.00  0.00    +0.000 C 
ATOM     26  C   UNL     1       1.165   9.581  18.680  0.00  0.00    +0.000 C 
BRANCH  25  27
ATOM     27  O   UNL     1       0.901  11.939  18.139  0.00  0.00    +0.000 OA
ATOM     28  H   UNL     1       1.567  12.647  18.161  0.00  0.00    +0.000 HD
ENDBRANCH  25  27
ENDBRANCH  21  22
ENDBRANCH  19  21
ENDBRANCH   2  15
TORSDOF 8
ENDMDL
MODEL 7
REMARK VINA RESULT:      -7.1      2.825      8.359
REMARK  Name = 
REMARK  8 active torsions:
REMARK  status: ('A' for Active; 'I' for Inactive)
REMARK    1  A    between atoms: C_2  and  C_13
REMARK    2  A    between atoms: N_3  and  C_4
REMARK    3  A    between atoms: C_9  and  C_10
REMARK    4  A    between atoms: C_10  and  C_11
REMARK    5  A    between atoms: C_11  and  O_12
REMARK    6  A    between atoms: C_17  and  C_18
REMARK    7  A    between atoms: C_18  and  N_19
REMARK    8  A    between atoms: C_22  and  O_23
REMARK                            x       y       z     vdW  Elec       q    Type
REMARK                         _______ _______ _______ _____ _____    ______ ____
ROOT
ATOM      1  O   UNL     1       2.224  10.121  17.948  0.00  0.00    +0.000 OA
ATOM      2  C   UNL     1       1.735   9.125  18.462  0.00  0.00    +0.000 C 
ATOM      3  N   UNL     1       0.537   9.065  19.164  0.00  0.00    +0.000 N 
ATOM      4  H   UNL     1       0.390   8.302  19.825  0.00  0.00    +0.000 HD
ENDROOT
BRANCH   3   5
ATOM      5  C   UNL     1      -0.301  10.197  19.300  0.00  0.00    +0.000 A 
ATOM      6  C   UNL     1      -0.976  10.687  18.174  0.00  0.00    +0.000 A 
ATOM      7  C   UNL     1      -1.743  11.845  18.240  0.00  0.00    +0.000 A 
ATOM      8  C   UNL     1      -1.843  12.533  19.442  0.00  0.00    +0.000 A 
ATOM      9  C   UNL     1      -1.211  12.034  20.584  0.00  0.00    +0.000 A 
ATOM     10  C   UNL     1      -0.444  10.852  20.540  0.00  0.00    +0.000 A 
BRANCH  10  11
ATOM     11  C   UNL     1       0.296  10.432  21.796  0.00  0.00    +0.000 C 
BRANCH  11  12
ATOM     12  C   UNL     1      -0.606  10.120  22.988  0.00  0.00    +0.000 C 
BRANCH  12  13
ATOM     13  O   UNL     1       0.157   9.630  24.089  0.00  0.00    +0.000 OA
ATOM     14  H   UNL     1      -0.332   9.889  24.891  0.00  0.00    +0.000 HD
ENDBRANCH  12  13
ENDBRANCH  11  12
ENDBRANCH  10  11
ENDBRANCH   3   5
BRANCH   2  15
ATOM     15  C   UNL     1       2.531   7.875  18.428  0.00  0.00    +0.000 A 
ATOM     16  C   UNL     1       2.510   6.970  19.485  0.00  0.00    +0.000 A 
ATOM     17  C   UNL     1       3.238   5.776  19.378  0.00  0.00    +0.000 A 
ATOM     18  C   UNL     1       4.010   5.526  18.234  0.00  0.00    +0.000 A 
ATOM     19  C   UNL     1       4.045   6.441  17.169  0.00  0.00    +0.000 A 
ATOM     20  C   UNL     1       3.268   7.604  17.268  0.00  0.00    +0.000 A 
BRANCH  19  21
ATOM     21  C   UNL     1       5.001   6.280  16.000  0.00  0.00    +0.000 C 
BRANCH  21  22
ATOM     22  N   UNL     1       6.423   6.472  16.320  0.00  0.00    +0.000 NA
ATOM     23  C   UNL     1       6.630   7.010  17.674  0.00  0.00    +0.000 C 
ATOM     24  C   UNL     1       7.379   5.972  18.503  0.00  0.00    +0.000 C 
ATOM     25  C   UNL     1       7.340   4.698  17.685  0.00  0.00    +0.000 C 
ATOM     26  C   UNL     1       7.157   5.194  16.256  0.00  0.00    +0.000 C 
BRANCH  25  27
ATOM     27  O   UNL     1       8.543   3.954  17.826  0.00  0.00    +0.000 OA
ATOM     28  H   UNL     1       8.710   3.833  18.776  0.00  0.00    +0.000 HD
ENDBRANCH  25  27
ENDBRANCH  21  22
ENDBRANCH  19  21
ENDBRANCH   2  15
TORSDOF 8
ENDMDL
MODEL 8
REMARK VINA RESULT:      -7.1      2.540      4.169
REMARK  Name = 
REMARK  8 active torsions:
REMARK  status: ('A' for Active; 'I' for Inactive)
REMARK    1  A    between atoms: C_2  and  C_13
REMARK    2  A    between atoms: N_3  and  C_4
REMARK    3  A    between atoms: C_9  and  C_10
REMARK    4  A    between atoms: C_10  and  C_11
REMARK    5  A    between atoms: C_11  and  O_12
REMARK    6  A    between atoms: C_17  and  C_18
REMARK    7  A    between atoms: C_18  and  N_19
REMARK    8  A    between atoms: C_22  and  O_23
REMARK                            x       y       z     vdW  Elec       q    Type
REMARK                         _______ _______ _______ _____ _____    ______ ____
ROOT
ATOM      1  O   UNL     1       4.174   4.161  18.321  0.00  0.00    +0.000 OA
ATOM      2  C   UNL     1       3.871   5.314  18.044  0.00  0.00    +0.000 C 
ATOM      3  N   UNL     1       4.378   6.066  16.991  0.00  0.00    +0.000 N 
ATOM      4  H   UNL     1       4.330   7.085  17.045  0.00  0.00    +0.000 HD
ENDROOT
BRANCH   3   5
ATOM      5  C   UNL     1       5.292   5.520  16.059  0.00  0.00    +0.000 A 
ATOM      6  C   UNL     1       4.801   4.764  14.985  0.00  0.00    +0.000 A 
ATOM      7  C   UNL     1       5.663   4.136  14.092  0.00  0.00    +0.000 A 
ATOM      8  C   UNL     1       7.036   4.257  14.266  0.00  0.00    +0.000 A 
ATOM      9  C   UNL     1       7.540   5.041  15.306  0.00  0.00    +0.000 A 
ATOM     10  C   UNL     1       6.681   5.699  16.210  0.00  0.00    +0.000 A 
BRANCH  10  11
ATOM     11  C   UNL     1       7.305   6.446  17.374  0.00  0.00    +0.000 C 
BRANCH  11  12
ATOM     12  C   UNL     1       7.610   5.579  18.593  0.00  0.00    +0.000 C 
BRANCH  12  13
ATOM     13  O   UNL     1       7.166   4.239  18.389  0.00  0.00    +0.000 OA
ATOM     14  H   UNL     1       7.106   4.120  17.423  0.00  0.00    +0.000 HD
ENDBRANCH  12  13
ENDBRANCH  11  12
ENDBRANCH  10  11
ENDBRANCH   3   5
BRANCH   2  15
ATOM     15  C   UNL     1       2.951   6.021  18.965  0.00  0.00    +0.000 A 
ATOM     16  C   UNL     1       2.446   5.403  20.105  0.00  0.00    +0.000 A 
ATOM     17  C   UNL     1       1.624   6.136  20.974  0.00  0.00    +0.000 A 
ATOM     18  C   UNL     1       1.285   7.461  20.667  0.00  0.00    +0.000 A 
ATOM     19  C   UNL     1       1.782   8.087  19.512  0.00  0.00    +0.000 A 
ATOM     20  C   UNL     1       2.648   7.359  18.683  0.00  0.00    +0.000 A 
BRANCH  19  21
ATOM     21  C   UNL     1       1.297   9.456  19.066  0.00  0.00    +0.000 C 
BRANCH  21  22
ATOM     22  N   UNL     1       0.066   9.929  19.713  0.00  0.00    +0.000 NA
ATOM     23  C   UNL     1       0.302  11.070  20.612  0.00  0.00    +0.000 C 
ATOM     24  C   UNL     1      -0.437  12.285  20.064  0.00  0.00    +0.000 C 
ATOM     25  C   UNL     1      -0.865  11.899  18.664  0.00  0.00    +0.000 C 
ATOM     26  C   UNL     1      -0.920  10.377  18.711  0.00  0.00    +0.000 C 
BRANCH  25  27
ATOM     27  O   UNL     1      -2.133  12.454  18.337  0.00  0.00    +0.000 OA
ATOM     28  H   UNL     1      -2.193  12.512  17.369  0.00  0.00    +0.000 HD
ENDBRANCH  25  27
ENDBRANCH  21  22
ENDBRANCH  19  21
ENDBRANCH   2  15
TORSDOF 8
ENDMDL
MODEL 9
REMARK VINA RESULT:      -7.1      1.296      1.480
REMARK  Name = 
REMARK  8 active torsions:
REMARK  status: ('A' for Active; 'I' for Inactive)
REMARK    1  A    between atoms: C_2  and  C_13
REMARK    2  A    between atoms: N_3  and  C_4
REMARK    3  A    between atoms: C_9  and  C_10
REMARK    4  A    between atoms: C_10  and  C_11
REMARK    5  A    between atoms: C_11  and  O_12
REMARK    6  A    between atoms: C_17  and  C_18
REMARK    7  A    between atoms: C_18  and  N_19
REMARK    8  A    between atoms: C_22  and  O_23
REMARK                            x       y       z     vdW  Elec       q    Type
REMARK                         _______ _______ _______ _____ _____    ______ ____
ROOT
ATOM      1  O   UNL     1       2.551   8.468  17.313  0.00  0.00    +0.000 OA
ATOM      2  C   UNL     1       2.482   7.883  18.385  0.00  0.00    +0.000 C 
ATOM      3  N   UNL     1       3.055   6.654  18.690  0.00  0.00    +0.000 N 
ATOM      4  H   UNL     1       2.670   6.108  19.461  0.00  0.00    +0.000 HD
ENDROOT
BRANCH   3   5
ATOM      5  C   UNL     1       3.865   5.961  17.760  0.00  0.00    +0.000 A 
ATOM      6  C   UNL     1       4.872   6.658  17.078  0.00  0.00    +0.000 A 
ATOM      7  C   UNL     1       5.637   6.041  16.094  0.00  0.00    +0.000 A 
ATOM      8  C   UNL     1       5.400   4.710  15.776  0.00  0.00    +0.000 A 
ATOM      9  C   UNL     1       4.428   3.990  16.475  0.00  0.00    +0.000 A 
ATOM     10  C   UNL     1       3.656   4.594  17.488  0.00  0.00    +0.000 A 
BRANCH  10  11
ATOM     11  C   UNL     1       2.550   3.776  18.129  0.00  0.00    +0.000 C 
BRANCH  11  12
ATOM     12  C   UNL     1       2.560   2.295  17.754  0.00  0.00    +0.000 C 
BRANCH  12  13
ATOM     13  O   UNL     1       1.568   1.579  18.487  0.00  0.00    +0.000 OA
ATOM     14  H   UNL     1       1.062   2.249  18.982  0.00  0.00    +0.000 HD
ENDBRANCH  12  13
ENDBRANCH  11  12
ENDBRANCH  10  11
ENDBRANCH   3   5
BRANCH   2  15
ATOM     15  C   UNL     1       1.629   8.482  19.439  0.00  0.00    +0.000 A 
ATOM     16  C   UNL     1       1.720   8.075  20.767  0.00  0.00    +0.000 A 
ATOM     17  C   UNL     1       0.930   8.714  21.734  0.00  0.00    +0.000 A 
ATOM     18  C   UNL     1       0.028   9.717  21.351  0.00  0.00    +0.000 A 
ATOM     19  C   UNL     1      -0.078  10.123  20.011  0.00  0.00    +0.000 A 
ATOM     20  C   UNL     1       0.760   9.514  19.065  0.00  0.00    +0.000 A 
BRANCH  19  21
ATOM     21  C   UNL     1      -1.160  11.080  19.542  0.00  0.00    +0.000 C 
BRANCH  21  22
ATOM     22  N   UNL     1      -1.573  10.923  18.140  0.00  0.00    +0.000 NA
ATOM     23  C   UNL     1      -2.362   9.700  17.916  0.00  0.00    +0.000 C 
ATOM     24  C   UNL     1      -3.766  10.098  17.479  0.00  0.00    +0.000 C 
ATOM     25  C   UNL     1      -3.864  11.587  17.742  0.00  0.00    +0.000 C 
ATOM     26  C   UNL     1      -2.415  12.055  17.706  0.00  0.00    +0.000 C 
BRANCH  25  27
ATOM     27  O   UNL     1      -4.644  12.239  16.748  0.00  0.00    +0.000 OA
ATOM     28  H   UNL     1      -4.092  12.926  16.338  0.00  0.00    +0.000 HD
ENDBRANCH  25  27
ENDBRANCH  21  22
ENDBRANCH  19  21
ENDBRANCH   2  15
TORSDOF 8
ENDMDL
