MODEL 1
REMARK VINA RESULT:      -7.2      0.000      0.000
REMARK  Name = 
REMARK  2 active torsions:
REMARK  status: ('A' for Active; 'I' for Inactive)
REMARK    1  A    between atoms: N_5  and  C_6
REMARK    2  A    between atoms: C_9  and  S_10
REMARK                            x       y       z     vdW  Elec       q    Type
REMARK                         _______ _______ _______ _____ _____    ______ ____
ROOT
ATOM      1  C   UNL     1       4.626   4.465  16.992  0.00  0.00    +0.000 A 
ATOM      2  C   UNL     1       3.816   5.491  17.506  0.00  0.00    +0.000 A 
ATOM      3  C   UNL     1       2.821   5.232  18.455  0.00  0.00    +0.000 A 
ATOM      4  C   UNL     1       2.633   3.932  18.922  0.00  0.00    +0.000 A 
ATOM      5  C   UNL     1       3.414   2.888  18.428  0.00  0.00    +0.000 A 
ATOM      6  C   UNL     1       4.397   3.157  17.464  0.00  0.00    +0.000 A 
ENDROOT
BRANCH   1  11
ATOM      7  O   UNL     1       8.134   5.372  12.967  0.00  0.00    +0.000 OA
ATOM      8  C   UNL     1       7.401   5.204  13.926  0.00  0.00    +0.000 A 
ATOM      9  C   UNL     1       6.151   4.403  13.777  0.00  0.00    +0.000 A 
ATOM     10  N   UNL     1       5.338   4.171  14.755  0.00  0.00    +0.000 NA
ATOM     11  N   UNL     1       5.633   4.716  15.997  0.00  0.00    +0.000 N 
ATOM     12  C   UNL     1       6.799   5.462  16.250  0.00  0.00    +0.000 A 
ATOM     13  O   UNL     1       7.166   5.907  17.338  0.00  0.00    +0.000 OA
ATOM     14  N   UNL     1       7.618   5.683  15.177  0.00  0.00    +0.000 N 
ATOM     15  H   UNL     1       8.462   6.204  15.352  0.00  0.00    +0.000 HD
ENDBRANCH   1  11
BRANCH   4  16
ATOM     16  S   UNL     1       1.337   3.614  20.085  0.00  0.00    +0.000 S 
ATOM     17  O   UNL     1       0.885   4.873  20.638  0.00  0.00    +0.000 OA
ATOM     18  O   UNL     1       0.431   2.631  19.530  0.00  0.00    +0.000 OA
ATOM     19 CL   UNL     1       2.349   2.662  21.583  0.00  0.00    +0.000 Cl
ENDBRANCH   4  16
TORSDOF 2
ENDMDL
MODEL 2
REMARK VINA RESULT:      -7.1      0.076      1.139
REMARK  Name = 
REMARK  2 active torsions:
REMARK  status: ('A' for Active; 'I' for Inactive)
REMARK    1  A    between atoms: N_5  and  C_6
REMARK    2  A    between atoms: C_9  and  S_10
REMARK                            x       y       z     vdW  Elec       q    Type
REMARK                         _______ _______ _______ _____ _____    ______ ____
ROOT
ATOM      1  C   UNL     1       4.583   4.446  16.937  0.00  0.00    +0.000 A 
ATOM      2  C   UNL     1       4.354   3.159  17.449  0.00  0.00    +0.000 A 
ATOM      3  C   UNL     1       3.369   2.920  18.414  0.00  0.00    +0.000 A 
ATOM      4  C   UNL     1       2.581   3.974  18.872  0.00  0.00    +0.000 A 
ATOM      5  C   UNL     1       2.786   5.267  18.391  0.00  0.00    +0.000 A 
ATOM      6  C   UNL     1       3.787   5.497  17.436  0.00  0.00    +0.000 A 
ENDROOT
BRANCH   1  11
ATOM      7  O   UNL     1       8.170   5.396  12.991  0.00  0.00    +0.000 OA
ATOM      8  C   UNL     1       7.418   5.218  13.934  0.00  0.00    +0.000 A 
ATOM      9  C   UNL     1       6.171   4.420  13.752  0.00  0.00    +0.000 A 
ATOM     10  N   UNL     1       5.339   4.178  14.711  0.00  0.00    +0.000 NA
ATOM     11  N   UNL     1       5.610   4.708  15.964  0.00  0.00    +0.000 N 
ATOM     12  C   UNL     1       6.772   5.448  16.249  0.00  0.00    +0.000 A 
ATOM     13  O   UNL     1       7.118   5.880  17.349  0.00  0.00    +0.000 OA
ATOM     14  N   UNL     1       7.612   5.681  15.194  0.00  0.00    +0.000 N 
ATOM     15  H   UNL     1       8.453   6.199  15.392  0.00  0.00    +0.000 HD
ENDBRANCH   1  11
BRANCH   4  16
ATOM     16  S   UNL     1       1.374   3.663  20.131  0.00  0.00    +0.000 S 
ATOM     17  O   UNL     1       0.961   4.925  20.704  0.00  0.00    +0.000 OA
ATOM     18  O   UNL     1       0.433   2.673  19.652  0.00  0.00    +0.000 OA
ATOM     19 CL   UNL     1       2.497   2.726  21.557  0.00  0.00    +0.000 Cl
ENDBRANCH   4  16
TORSDOF 2
ENDMDL
MODEL 3
REMARK VINA RESULT:      -7.0      1.072      1.226
REMARK  Name = 
REMARK  2 active torsions:
REMARK  status: ('A' for Active; 'I' for Inactive)
REMARK    1  A    between atoms: N_5  and  C_6
REMARK    2  A    between atoms: C_9  and  S_10
REMARK                            x       y       z     vdW  Elec       q    Type
REMARK                         _______ _______ _______ _____ _____    ______ ____
ROOT
ATOM      1  C   UNL     1       4.844   4.550  17.038  0.00  0.00    +0.000 A 
ATOM      2  C   UNL     1       4.232   5.673  17.619  0.00  0.00    +0.000 A 
ATOM      3  C   UNL     1       3.357   5.550  18.703  0.00  0.00    +0.000 A 
ATOM      4  C   UNL     1       3.093   4.291  19.239  0.00  0.00    +0.000 A 
ATOM      5  C   UNL     1       3.677   3.153  18.682  0.00  0.00    +0.000 A 
ATOM      6  C   UNL     1       4.540   3.287  17.585  0.00  0.00    +0.000 A 
ENDROOT
BRANCH   1  11
ATOM      7  O   UNL     1       7.840   4.942  12.542  0.00  0.00    +0.000 OA
ATOM      8  C   UNL     1       7.231   4.888  13.597  0.00  0.00    +0.000 A 
ATOM      9  C   UNL     1       5.921   4.178  13.666  0.00  0.00    +0.000 A 
ATOM     10  N   UNL     1       5.231   4.069  14.754  0.00  0.00    +0.000 NA
ATOM     11  N   UNL     1       5.725   4.663  15.907  0.00  0.00    +0.000 N 
ATOM     12  C   UNL     1       6.963   5.330  15.956  0.00  0.00    +0.000 A 
ATOM     13  O   UNL     1       7.501   5.809  16.954  0.00  0.00    +0.000 OA
ATOM     14  N   UNL     1       7.645   5.422  14.773  0.00  0.00    +0.000 N 
ATOM     15  H   UNL     1       8.539   5.887  14.803  0.00  0.00    +0.000 HD
ENDBRANCH   1  11
BRANCH   4  16
ATOM     16  S   UNL     1       1.943   4.149  20.578  0.00  0.00    +0.000 S 
ATOM     17  O   UNL     1       2.548   3.365  21.633  0.00  0.00    +0.000 OA
ATOM     18  O   UNL     1       1.326   5.437  20.813  0.00  0.00    +0.000 OA
ATOM     19 CL   UNL     1       0.490   2.973  19.753  0.00  0.00    +0.000 Cl
ENDBRANCH   4  16
TORSDOF 2
ENDMDL
MODEL 4
REMARK VINA RESULT:      -6.9      1.028      1.147
REMARK  Name = 
REMARK  2 active torsions:
REMARK  status: ('A' for Active; 'I' for Inactive)
REMARK    1  A    between atoms: N_5  and  C_6
REMARK    2  A    between atoms: C_9  and  S_10
REMARK                            x       y       z     vdW  Elec       q    Type
REMARK                         _______ _______ _______ _____ _____    ______ ____
ROOT
ATOM      1  C   UNL     1       4.621   4.132  16.853  0.00  0.00    +0.000 A 
ATOM      2  C   UNL     1       3.771   5.081  17.444  0.00  0.00    +0.000 A 
ATOM      3  C   UNL     1       2.767   4.707  18.343  0.00  0.00    +0.000 A 
ATOM      4  C   UNL     1       2.609   3.364  18.681  0.00  0.00    +0.000 A 
ATOM      5  C   UNL     1       3.429   2.393  18.108  0.00  0.00    +0.000 A 
ATOM      6  C   UNL     1       4.421   2.779  17.196  0.00  0.00    +0.000 A 
ENDROOT
BRANCH   1  11
ATOM      7  O   UNL     1       8.180   5.496  13.005  0.00  0.00    +0.000 OA
ATOM      8  C   UNL     1       7.432   5.224  13.928  0.00  0.00    +0.000 A 
ATOM      9  C   UNL     1       6.236   4.365  13.691  0.00  0.00    +0.000 A 
ATOM     10  N   UNL     1       5.411   4.025  14.625  0.00  0.00    +0.000 NA
ATOM     11  N   UNL     1       5.639   4.503  15.908  0.00  0.00    +0.000 N 
ATOM     12  C   UNL     1       6.752   5.295  16.244  0.00  0.00    +0.000 A 
ATOM     13  O   UNL     1       7.062   5.689  17.369  0.00  0.00    +0.000 OA
ATOM     14  N   UNL     1       7.586   5.632  15.213  0.00  0.00    +0.000 N 
ATOM     15  H   UNL     1       8.393   6.187  15.448  0.00  0.00    +0.000 HD
ENDBRANCH   1  11
BRANCH   4  16
ATOM     16  S   UNL     1       1.300   2.902  19.781  0.00  0.00    +0.000 S 
ATOM     17  O   UNL     1       0.185   2.411  19.002  0.00  0.00    +0.000 OA
ATOM     18  O   UNL     1       1.857   2.173  20.901  0.00  0.00    +0.000 OA
ATOM     19 CL   UNL     1       0.725   4.716  20.525  0.00  0.00    +0.000 Cl
ENDBRANCH   4  16
TORSDOF 2
ENDMDL
MODEL 5
REMARK VINA RESULT:      -6.9      1.062      1.667
REMARK  Name = 
REMARK  2 active torsions:
REMARK  status: ('A' for Active; 'I' for Inactive)
REMARK    1  A    between atoms: N_5  and  C_6
REMARK    2  A    between atoms: C_9  and  S_10
REMARK                            x       y       z     vdW  Elec       q    Type
REMARK                         _______ _______ _______ _____ _____    ______ ____
ROOT
ATOM      1  C   UNL     1       4.805   4.515  16.944  0.00  0.00    +0.000 A 
ATOM      2  C   UNL     1       4.634   3.299  17.627  0.00  0.00    +0.000 A 
ATOM      3  C   UNL     1       3.764   3.188  18.717  0.00  0.00    +0.000 A 
ATOM      4  C   UNL     1       3.032   4.298  19.133  0.00  0.00    +0.000 A 
ATOM      5  C   UNL     1       3.183   5.524  18.484  0.00  0.00    +0.000 A 
ATOM      6  C   UNL     1       4.070   5.627  17.403  0.00  0.00    +0.000 A 
ENDROOT
BRANCH   1  11
ATOM      7  O   UNL     1       7.921   4.981  12.539  0.00  0.00    +0.000 OA
ATOM      8  C   UNL     1       7.283   4.910  13.575  0.00  0.00    +0.000 A 
ATOM      9  C   UNL     1       5.978   4.188  13.601  0.00  0.00    +0.000 A 
ATOM     10  N   UNL     1       5.259   4.061  14.667  0.00  0.00    +0.000 NA
ATOM     11  N   UNL     1       5.715   4.647  15.839  0.00  0.00    +0.000 N 
ATOM     12  C   UNL     1       6.945   5.324  15.930  0.00  0.00    +0.000 A 
ATOM     13  O   UNL     1       7.451   5.798  16.948  0.00  0.00    +0.000 OA
ATOM     14  N   UNL     1       7.660   5.436  14.768  0.00  0.00    +0.000 N 
ATOM     15  H   UNL     1       8.548   5.908  14.827  0.00  0.00    +0.000 HD
ENDBRANCH   1  11
BRANCH   4  16
ATOM     16  S   UNL     1       1.975   4.152  20.546  0.00  0.00    +0.000 S 
ATOM     17  O   UNL     1       2.646   3.360  21.553  0.00  0.00    +0.000 OA
ATOM     18  O   UNL     1       1.380   5.441  20.829  0.00  0.00    +0.000 OA
ATOM     19 CL   UNL     1       0.464   2.988  19.813  0.00  0.00    +0.000 Cl
ENDBRANCH   4  16
TORSDOF 2
ENDMDL
MODEL 6
REMARK VINA RESULT:      -6.9      1.154      1.280
REMARK  Name = 
REMARK  2 active torsions:
REMARK  status: ('A' for Active; 'I' for Inactive)
REMARK    1  A    between atoms: N_5  and  C_6
REMARK    2  A    between atoms: C_9  and  S_10
REMARK                            x       y       z     vdW  Elec       q    Type
REMARK                         _______ _______ _______ _____ _____    ______ ____
ROOT
ATOM      1  C   UNL     1       4.779   4.552  17.009  0.00  0.00    +0.000 A 
ATOM      2  C   UNL     1       4.342   5.689  17.708  0.00  0.00    +0.000 A 
ATOM      3  C   UNL     1       3.441   5.592  18.774  0.00  0.00    +0.000 A 
ATOM      4  C   UNL     1       2.974   4.341  19.171  0.00  0.00    +0.000 A 
ATOM      5  C   UNL     1       3.379   3.191  18.495  0.00  0.00    +0.000 A 
ATOM      6  C   UNL     1       4.270   3.303  17.417  0.00  0.00    +0.000 A 
ENDROOT
BRANCH   1  11
ATOM      7  O   UNL     1       7.870   4.885  12.574  0.00  0.00    +0.000 OA
ATOM      8  C   UNL     1       7.240   4.840  13.617  0.00  0.00    +0.000 A 
ATOM      9  C   UNL     1       5.894   4.198  13.648  0.00  0.00    +0.000 A 
ATOM     10  N   UNL     1       5.180   4.102  14.721  0.00  0.00    +0.000 NA
ATOM     11  N   UNL     1       5.684   4.643  15.895  0.00  0.00    +0.000 N 
ATOM     12  C   UNL     1       6.953   5.244  15.980  0.00  0.00    +0.000 A 
ATOM     13  O   UNL     1       7.498   5.673  16.998  0.00  0.00    +0.000 OA
ATOM     14  N   UNL     1       7.660   5.327  14.812  0.00  0.00    +0.000 N 
ATOM     15  H   UNL     1       8.576   5.743  14.866  0.00  0.00    +0.000 HD
ENDBRANCH   1  11
BRANCH   4  16
ATOM     16  S   UNL     1       1.795   4.241  20.489  0.00  0.00    +0.000 S 
ATOM     17  O   UNL     1       0.555   3.706  19.969  0.00  0.00    +0.000 OA
ATOM     18  O   UNL     1       2.445   3.710  21.668  0.00  0.00    +0.000 OA
ATOM     19 CL   UNL     1       1.446   6.216  20.883  0.00  0.00    +0.000 Cl
ENDBRANCH   4  16
TORSDOF 2
ENDMDL
MODEL 7
REMARK VINA RESULT:      -6.8      1.300      1.509
REMARK  Name = 
REMARK  2 active torsions:
REMARK  status: ('A' for Active; 'I' for Inactive)
REMARK    1  A    between atoms: N_5  and  C_6
REMARK    2  A    between atoms: C_9  and  S_10
REMARK                            x       y       z     vdW  Elec       q    Type
REMARK                         _______ _______ _______ _____ _____    ______ ____
ROOT
ATOM      1  C   UNL     1       5.117   4.068  17.021  0.00  0.00    +0.000 A 
ATOM      2  C   UNL     1       5.546   4.206  18.352  0.00  0.00    +0.000 A 
ATOM      3  C   UNL     1       4.704   3.905  19.428  0.00  0.00    +0.000 A 
ATOM      4  C   UNL     1       3.413   3.439  19.184  0.00  0.00    +0.000 A 
ATOM      5  C   UNL     1       2.950   3.298  17.876  0.00  0.00    +0.000 A 
ATOM      6  C   UNL     1       3.798   3.619  16.807  0.00  0.00    +0.000 A 
ENDROOT
BRANCH   1  11
ATOM      7  O   UNL     1       8.006   5.233  12.590  0.00  0.00    +0.000 OA
ATOM      8  C   UNL     1       7.413   5.016  13.633  0.00  0.00    +0.000 A 
ATOM      9  C   UNL     1       6.270   4.056  13.655  0.00  0.00    +0.000 A 
ATOM     10  N   UNL     1       5.609   3.767  14.727  0.00  0.00    +0.000 NA
ATOM     11  N   UNL     1       5.965   4.400  15.909  0.00  0.00    +0.000 N 
ATOM     12  C   UNL     1       7.044   5.299  16.003  0.00  0.00    +0.000 A 
ATOM     13  O   UNL     1       7.468   5.835  17.026  0.00  0.00    +0.000 OA
ATOM     14  N   UNL     1       7.703   5.574  14.835  0.00  0.00    +0.000 N 
ATOM     15  H   UNL     1       8.485   6.206  14.895  0.00  0.00    +0.000 HD
ENDBRANCH   1  11
BRANCH   4  16
ATOM     16  S   UNL     1       2.344   3.111  20.557  0.00  0.00    +0.000 S 
ATOM     17  O   UNL     1       1.120   2.516  20.066  0.00  0.00    +0.000 OA
ATOM     18  O   UNL     1       3.119   2.535  21.636  0.00  0.00    +0.000 OA
ATOM     19 CL   UNL     1       1.858   5.001  21.164  0.00  0.00    +0.000 Cl
ENDBRANCH   4  16
TORSDOF 2
ENDMDL
MODEL 8
REMARK VINA RESULT:      -6.8      1.169      1.718
REMARK  Name = 
REMARK  2 active torsions:
REMARK  status: ('A' for Active; 'I' for Inactive)
REMARK    1  A    between atoms: N_5  and  C_6
REMARK    2  A    between atoms: C_9  and  S_10
REMARK                            x       y       z     vdW  Elec       q    Type
REMARK                         _______ _______ _______ _____ _____    ______ ____
ROOT
ATOM      1  C   UNL     1       4.733   4.617  16.903  0.00  0.00    +0.000 A 
ATOM      2  C   UNL     1       4.454   3.398  17.541  0.00  0.00    +0.000 A 
ATOM      3  C   UNL     1       3.559   3.320  18.613  0.00  0.00    +0.000 A 
ATOM      4  C   UNL     1       2.910   4.471  19.056  0.00  0.00    +0.000 A 
ATOM      5  C   UNL     1       3.168   5.701  18.452  0.00  0.00    +0.000 A 
ATOM      6  C   UNL     1       4.080   5.769  17.388  0.00  0.00    +0.000 A 
ENDROOT
BRANCH   1  11
ATOM      7  O   UNL     1       7.955   4.954  12.563  0.00  0.00    +0.000 OA
ATOM      8  C   UNL     1       7.294   4.911  13.586  0.00  0.00    +0.000 A 
ATOM      9  C   UNL     1       5.965   4.233  13.587  0.00  0.00    +0.000 A 
ATOM     10  N   UNL     1       5.220   4.136  14.638  0.00  0.00    +0.000 NA
ATOM     11  N   UNL     1       5.671   4.713  15.817  0.00  0.00    +0.000 N 
ATOM     12  C   UNL     1       6.920   5.350  15.931  0.00  0.00    +0.000 A 
ATOM     13  O   UNL     1       7.420   5.813  16.957  0.00  0.00    +0.000 OA
ATOM     14  N   UNL     1       7.662   5.431  14.784  0.00  0.00    +0.000 N 
ATOM     15  H   UNL     1       8.564   5.874  14.860  0.00  0.00    +0.000 HD
ENDBRANCH   1  11
BRANCH   4  16
ATOM     16  S   UNL     1       1.819   4.363  20.447  0.00  0.00    +0.000 S 
ATOM     17  O   UNL     1       0.553   3.818  20.008  0.00  0.00    +0.000 OA
ATOM     18  O   UNL     1       2.548   3.838  21.582  0.00  0.00    +0.000 OA
ATOM     19 CL   UNL     1       1.482   6.335  20.862  0.00  0.00    +0.000 Cl
ENDBRANCH   4  16
TORSDOF 2
ENDMDL
MODEL 9
REMARK VINA RESULT:      -6.7      4.149      6.966
REMARK  Name = 
REMARK  2 active torsions:
REMARK  status: ('A' for Active; 'I' for Inactive)
REMARK    1  A    between atoms: N_5  and  C_6
REMARK    2  A    between atoms: C_9  and  S_10
REMARK                            x       y       z     vdW  Elec       q    Type
REMARK                         _______ _______ _______ _____ _____    ______ ____
ROOT
ATOM      1  C   UNL     1       3.923   3.874  18.721  0.00  0.00    +0.000 A 
ATOM      2  C   UNL     1       3.834   3.232  17.475  0.00  0.00    +0.000 A 
ATOM      3  C   UNL     1       4.550   3.690  16.363  0.00  0.00    +0.000 A 
ATOM      4  C   UNL     1       5.387   4.797  16.489  0.00  0.00    +0.000 A 
ATOM      5  C   UNL     1       5.494   5.464  17.709  0.00  0.00    +0.000 A 
ATOM      6  C   UNL     1       4.759   5.005  18.812  0.00  0.00    +0.000 A 
ENDROOT
BRANCH   1  11
ATOM      7  O   UNL     1       0.763   2.261  22.813  0.00  0.00    +0.000 OA
ATOM      8  C   UNL     1       1.539   2.582  21.930  0.00  0.00    +0.000 A 
ATOM      9  C   UNL     1       1.115   3.559  20.884  0.00  0.00    +0.000 A 
ATOM     10  N   UNL     1       1.891   3.955  19.930  0.00  0.00    +0.000 NA
ATOM     11  N   UNL     1       3.172   3.427  19.863  0.00  0.00    +0.000 N 
ATOM     12  C   UNL     1       3.680   2.523  20.815  0.00  0.00    +0.000 A 
ATOM     13  O   UNL     1       4.825   2.075  20.867  0.00  0.00    +0.000 OA
ATOM     14  N   UNL     1       2.812   2.132  21.797  0.00  0.00    +0.000 N 
ATOM     15  H   UNL     1       3.171   1.495  22.490  0.00  0.00    +0.000 HD
ENDBRANCH   1  11
BRANCH   4  16
ATOM     16  S   UNL     1       6.245   5.393  15.059  0.00  0.00    +0.000 S 
ATOM     17  O   UNL     1       5.499   6.494  14.490  0.00  0.00    +0.000 OA
ATOM     18  O   UNL     1       7.660   5.474  15.354  0.00  0.00    +0.000 OA
ATOM     19 CL   UNL     1       6.032   3.826  13.765  0.00  0.00    +0.000 Cl
ENDBRANCH   4  16
TORSDOF 2
ENDMDL
