MODEL 1
REMARK VINA RESULT:      -7.0      0.000      0.000
REMARK  Name = 
REMARK  12 active torsions:
REMARK  status: ('A' for Active; 'I' for Inactive)
REMARK    1  A    between atoms: C_1  and  C_2
REMARK    2  A    between atoms: C_2  and  O_3
REMARK    3  A    between atoms: O_3  and  C_4
REMARK    4  A    between atoms: C_5  and  O_6
REMARK    5  A    between atoms: O_6  and  C_7
REMARK    6  A    between atoms: C_7  and  C_8
REMARK    7  A    between atoms: C_9  and  O_10
REMARK    8  A    between atoms: O_10  and  C_11
REMARK    9  A    between atoms: C_11  and  C_12
REMARK   10  A    between atoms: C_21  and  O_22
REMARK   11  A    between atoms: O_22  and  C_23
REMARK   12  A    between atoms: C_23  and  C_24
REMARK                            x       y       z     vdW  Elec       q    Type
REMARK                         _______ _______ _______ _____ _____    ______ ____
ROOT
ATOM      1  C   UNL     1       4.899   4.647  17.904  0.00  0.00    +0.000 A 
ATOM      2  C   UNL     1       4.159   4.021  18.920  0.00  0.00    +0.000 A 
ATOM      3  C   UNL     1       3.196   4.781  19.631  0.00  0.00    +0.000 A 
ATOM      4  C   UNL     1       2.874   6.131  19.304  0.00  0.00    +0.000 A 
ATOM      5  C   UNL     1       1.972   6.939  20.029  0.00  0.00    +0.000 A 
ATOM      6  C   UNL     1       1.690   8.257  19.667  0.00  0.00    +0.000 A 
ATOM      7 CL   UNL     1       0.666   9.223  20.650  0.00  0.00    +0.000 Cl
ATOM      8  C   UNL     1       2.249   8.798  18.530  0.00  0.00    +0.000 A 
ATOM      9  C   UNL     1       3.142   8.028  17.788  0.00  0.00    +0.000 A 
ATOM     10  C   UNL     1       3.539   6.731  18.197  0.00  0.00    +0.000 A 
ATOM     11  C   UNL     1       4.582   6.001  17.558  0.00  0.00    +0.000 A 
ENDROOT
BRANCH   1  12
ATOM     12  O   UNL     1       5.950   4.111  17.174  0.00  0.00    +0.000 OA
BRANCH  12  14
ATOM     13  C   UNL     1       6.153   3.860  14.767  0.00  0.00    +0.000 C 
ATOM     14  C   UNL     1       5.631   3.273  16.064  0.00  0.00    +0.000 C 
ENDBRANCH  12  14
ENDBRANCH   1  12
BRANCH   2  15
ATOM     15  O   UNL     1       4.498   2.739  19.266  0.00  0.00    +0.000 OA
BRANCH  15  16
ATOM     16  C   UNL     1       3.805   1.628  18.702  0.00  0.00    +0.000 C 
ATOM     17  C   UNL     1       2.703   2.103  17.766  0.00  0.00    +0.000 C 
ENDBRANCH  15  16
ENDBRANCH   2  15
BRANCH   3  18
ATOM     18  O   UNL     1       2.606   4.058  20.763  0.00  0.00    +0.000 OA
BRANCH  18  19
ATOM     19  C   UNL     1       1.592   3.170  21.185  0.00  0.00    +0.000 C 
ATOM     20  C   UNL     1       0.450   3.241  20.212  0.00  0.00    +0.000 C 
ATOM     21  O   UNL     1       1.588   2.488  22.194  0.00  0.00    +0.000 OA
ENDBRANCH  18  19
ENDBRANCH   3  18
BRANCH  11  22
ATOM     22  O   UNL     1       5.372   6.566  16.493  0.00  0.00    +0.000 OA
BRANCH  22  23
ATOM     23  C   UNL     1       6.721   6.911  16.629  0.00  0.00    +0.000 C 
ATOM     24  C   UNL     1       6.877   8.049  17.599  0.00  0.00    +0.000 C 
ATOM     25  O   UNL     1       7.671   6.394  16.054  0.00  0.00    +0.000 OA
ENDBRANCH  22  23
ENDBRANCH  11  22
TORSDOF 8
ENDMDL
MODEL 2
REMARK VINA RESULT:      -6.6      1.138      1.733
REMARK  Name = 
REMARK  12 active torsions:
REMARK  status: ('A' for Active; 'I' for Inactive)
REMARK    1  A    between atoms: C_1  and  C_2
REMARK    2  A    between atoms: C_2  and  O_3
REMARK    3  A    between atoms: O_3  and  C_4
REMARK    4  A    between atoms: C_5  and  O_6
REMARK    5  A    between atoms: O_6  and  C_7
REMARK    6  A    between atoms: C_7  and  C_8
REMARK    7  A    between atoms: C_9  and  O_10
REMARK    8  A    between atoms: O_10  and  C_11
REMARK    9  A    between atoms: C_11  and  C_12
REMARK   10  A    between atoms: C_21  and  O_22
REMARK   11  A    between atoms: O_22  and  C_23
REMARK   12  A    between atoms: C_23  and  C_24
REMARK                            x       y       z     vdW  Elec       q    Type
REMARK                         _______ _______ _______ _____ _____    ______ ____
ROOT
ATOM      1  C   UNL     1       5.299   4.932  18.165  0.00  0.00    +0.000 A 
ATOM      2  C   UNL     1       4.542   4.382  19.211  0.00  0.00    +0.000 A 
ATOM      3  C   UNL     1       3.467   5.135  19.746  0.00  0.00    +0.000 A 
ATOM      4  C   UNL     1       3.053   6.391  19.211  0.00  0.00    +0.000 A 
ATOM      5  C   UNL     1       2.033   7.199  19.756  0.00  0.00    +0.000 A 
ATOM      6  C   UNL     1       1.666   8.422  19.193  0.00  0.00    +0.000 A 
ATOM      7 CL   UNL     1       0.491   9.410  19.963  0.00  0.00    +0.000 Cl
ATOM      8  C   UNL     1       2.259   8.855  18.028  0.00  0.00    +0.000 A 
ATOM      9  C   UNL     1       3.268   8.081  17.460  0.00  0.00    +0.000 A 
ATOM     10  C   UNL     1       3.746   6.896  18.073  0.00  0.00    +0.000 A 
ATOM     11  C   UNL     1       4.892   6.190  17.611  0.00  0.00    +0.000 A 
ENDROOT
BRANCH   1  12
ATOM     12  O   UNL     1       6.444   4.406  17.585  0.00  0.00    +0.000 OA
BRANCH  12  14
ATOM     13  C   UNL     1       7.792   5.976  18.858  0.00  0.00    +0.000 C 
ATOM     14  C   UNL     1       7.681   4.580  18.276  0.00  0.00    +0.000 C 
ENDBRANCH  12  14
ENDBRANCH   1  12
BRANCH   2  15
ATOM     15  O   UNL     1       4.964   3.197  19.757  0.00  0.00    +0.000 OA
BRANCH  15  16
ATOM     16  C   UNL     1       4.418   1.958  19.312  0.00  0.00    +0.000 C 
ATOM     17  C   UNL     1       3.486   2.178  18.128  0.00  0.00    +0.000 C 
ENDBRANCH  15  16
ENDBRANCH   2  15
BRANCH   3  18
ATOM     18  O   UNL     1       2.858   4.520  20.930  0.00  0.00    +0.000 OA
BRANCH  18  19
ATOM     19  C   UNL     1       2.015   3.495  21.416  0.00  0.00    +0.000 C 
ATOM     20  C   UNL     1       0.808   3.398  20.528  0.00  0.00    +0.000 C 
ATOM     21  O   UNL     1       2.183   2.821  22.416  0.00  0.00    +0.000 OA
ENDBRANCH  18  19
ENDBRANCH   3  18
BRANCH  11  22
ATOM     22  O   UNL     1       5.708   6.678  16.527  0.00  0.00    +0.000 OA
BRANCH  22  23
ATOM     23  C   UNL     1       5.379   6.513  15.176  0.00  0.00    +0.000 C 
ATOM     24  C   UNL     1       5.875   5.186  14.674  0.00  0.00    +0.000 C 
ATOM     25  O   UNL     1       4.783   7.311  14.464  0.00  0.00    +0.000 OA
ENDBRANCH  22  23
ENDBRANCH  11  22
TORSDOF 8
ENDMDL
MODEL 3
REMARK VINA RESULT:      -6.3      1.336      1.927
REMARK  Name = 
REMARK  12 active torsions:
REMARK  status: ('A' for Active; 'I' for Inactive)
REMARK    1  A    between atoms: C_1  and  C_2
REMARK    2  A    between atoms: C_2  and  O_3
REMARK    3  A    between atoms: O_3  and  C_4
REMARK    4  A    between atoms: C_5  and  O_6
REMARK    5  A    between atoms: O_6  and  C_7
REMARK    6  A    between atoms: C_7  and  C_8
REMARK    7  A    between atoms: C_9  and  O_10
REMARK    8  A    between atoms: O_10  and  C_11
REMARK    9  A    between atoms: C_11  and  C_12
REMARK   10  A    between atoms: C_21  and  O_22
REMARK   11  A    between atoms: O_22  and  C_23
REMARK   12  A    between atoms: C_23  and  C_24
REMARK                            x       y       z     vdW  Elec       q    Type
REMARK                         _______ _______ _______ _____ _____    ______ ____
ROOT
ATOM      1  C   UNL     1       5.577   4.897  18.059  0.00  0.00    +0.000 A 
ATOM      2  C   UNL     1       4.821   4.396  19.131  0.00  0.00    +0.000 A 
ATOM      3  C   UNL     1       3.715   5.149  19.598  0.00  0.00    +0.000 A 
ATOM      4  C   UNL     1       3.270   6.350  18.971  0.00  0.00    +0.000 A 
ATOM      5  C   UNL     1       2.217   7.160  19.445  0.00  0.00    +0.000 A 
ATOM      6  C   UNL     1       1.819   8.329  18.794  0.00  0.00    +0.000 A 
ATOM      7 CL   UNL     1       0.602   9.328  19.477  0.00  0.00    +0.000 Cl
ATOM      8  C   UNL     1       2.416   8.699  17.608  0.00  0.00    +0.000 A 
ATOM      9  C   UNL     1       3.458   7.921  17.109  0.00  0.00    +0.000 A 
ATOM     10  C   UNL     1       3.963   6.797  17.810  0.00  0.00    +0.000 A 
ATOM     11  C   UNL     1       5.138   6.099  17.413  0.00  0.00    +0.000 A 
ENDROOT
BRANCH   1  12
ATOM     12  O   UNL     1       6.746   4.369  17.532  0.00  0.00    +0.000 OA
BRANCH  12  14
ATOM     13  C   UNL     1       7.872   5.882  19.064  0.00  0.00    +0.000 C 
ATOM     14  C   UNL     1       7.964   4.615  18.236  0.00  0.00    +0.000 C 
ENDBRANCH  12  14
ENDBRANCH   1  12
BRANCH   2  15
ATOM     15  O   UNL     1       5.273   3.267  19.764  0.00  0.00    +0.000 OA
BRANCH  15  16
ATOM     16  C   UNL     1       4.539   2.047  19.681  0.00  0.00    +0.000 C 
ATOM     17  C   UNL     1       4.857   1.149  20.868  0.00  0.00    +0.000 C 
ENDBRANCH  15  16
ENDBRANCH   2  15
BRANCH   3  18
ATOM     18  O   UNL     1       3.108   4.597  20.814  0.00  0.00    +0.000 OA
BRANCH  18  19
ATOM     19  C   UNL     1       2.087   3.779  21.347  0.00  0.00    +0.000 C 
ATOM     20  C   UNL     1       0.909   3.804  20.415  0.00  0.00    +0.000 C 
ATOM     21  O   UNL     1       2.105   3.181  22.408  0.00  0.00    +0.000 OA
ENDBRANCH  18  19
ENDBRANCH   3  18
BRANCH  11  22
ATOM     22  O   UNL     1       5.954   6.537  16.308  0.00  0.00    +0.000 OA
BRANCH  22  23
ATOM     23  C   UNL     1       6.290   5.720  15.222  0.00  0.00    +0.000 C 
ATOM     24  C   UNL     1       5.083   4.966  14.740  0.00  0.00    +0.000 C 
ATOM     25  O   UNL     1       7.397   5.597  14.713  0.00  0.00    +0.000 OA
ENDBRANCH  22  23
ENDBRANCH  11  22
TORSDOF 8
ENDMDL
MODEL 4
REMARK VINA RESULT:      -6.3      1.452      1.602
REMARK  Name = 
REMARK  12 active torsions:
REMARK  status: ('A' for Active; 'I' for Inactive)
REMARK    1  A    between atoms: C_1  and  C_2
REMARK    2  A    between atoms: C_2  and  O_3
REMARK    3  A    between atoms: O_3  and  C_4
REMARK    4  A    between atoms: C_5  and  O_6
REMARK    5  A    between atoms: O_6  and  C_7
REMARK    6  A    between atoms: C_7  and  C_8
REMARK    7  A    between atoms: C_9  and  O_10
REMARK    8  A    between atoms: O_10  and  C_11
REMARK    9  A    between atoms: C_11  and  C_12
REMARK   10  A    between atoms: C_21  and  O_22
REMARK   11  A    between atoms: O_22  and  C_23
REMARK   12  A    between atoms: C_23  and  C_24
REMARK                            x       y       z     vdW  Elec       q    Type
REMARK                         _______ _______ _______ _____ _____    ______ ____
ROOT
ATOM      1  C   UNL     1       4.881   4.781  17.005  0.00  0.00    +0.000 A 
ATOM      2  C   UNL     1       3.673   4.143  17.328  0.00  0.00    +0.000 A 
ATOM      3  C   UNL     1       2.596   4.926  17.815  0.00  0.00    +0.000 A 
ATOM      4  C   UNL     1       2.645   6.348  17.906  0.00  0.00    +0.000 A 
ATOM      5  C   UNL     1       1.621   7.153  18.447  0.00  0.00    +0.000 A 
ATOM      6  C   UNL     1       1.718   8.544  18.513  0.00  0.00    +0.000 A 
ATOM      7 CL   UNL     1       0.485   9.462  19.278  0.00  0.00    +0.000 Cl
ATOM      8  C   UNL     1       2.815   9.188  17.984  0.00  0.00    +0.000 A 
ATOM      9  C   UNL     1       3.844   8.424  17.439  0.00  0.00    +0.000 A 
ATOM     10  C   UNL     1       3.828   7.007  17.466  0.00  0.00    +0.000 A 
ATOM     11  C   UNL     1       4.944   6.211  17.084  0.00  0.00    +0.000 A 
ENDROOT
BRANCH   1  12
ATOM     12  O   UNL     1       6.073   4.185  16.621  0.00  0.00    +0.000 OA
BRANCH  12  14
ATOM     13  C   UNL     1       6.741   4.577  14.318  0.00  0.00    +0.000 C 
ATOM     14  C   UNL     1       6.139   3.607  15.317  0.00  0.00    +0.000 C 
ENDBRANCH  12  14
ENDBRANCH   1  12
BRANCH   2  15
ATOM     15  O   UNL     1       3.637   2.773  17.285  0.00  0.00    +0.000 OA
BRANCH  15  16
ATOM     16  C   UNL     1       3.714   2.008  18.486  0.00  0.00    +0.000 C 
ATOM     17  C   UNL     1       4.559   2.728  19.527  0.00  0.00    +0.000 C 
ENDBRANCH  15  16
ENDBRANCH   2  15
BRANCH   3  18
ATOM     18  O   UNL     1       1.450   4.125  18.261  0.00  0.00    +0.000 OA
BRANCH  18  19
ATOM     19  C   UNL     1       0.854   3.431  19.337  0.00  0.00    +0.000 C 
ATOM     20  C   UNL     1       1.238   4.107  20.622  0.00  0.00    +0.000 C 
ATOM     21  O   UNL     1       0.180   2.418  19.274  0.00  0.00    +0.000 OA
ENDBRANCH  18  19
ENDBRANCH   3  18
BRANCH  11  22
ATOM     22  O   UNL     1       6.211   6.792  16.716  0.00  0.00    +0.000 OA
BRANCH  22  23
ATOM     23  C   UNL     1       7.252   7.018  17.625  0.00  0.00    +0.000 C 
ATOM     24  C   UNL     1       7.692   8.455  17.573  0.00  0.00    +0.000 C 
ATOM     25  O   UNL     1       7.767   6.193  18.368  0.00  0.00    +0.000 OA
ENDBRANCH  22  23
ENDBRANCH  11  22
TORSDOF 8
ENDMDL
MODEL 5
REMARK VINA RESULT:      -6.2      1.374      5.158
REMARK  Name = 
REMARK  12 active torsions:
REMARK  status: ('A' for Active; 'I' for Inactive)
REMARK    1  A    between atoms: C_1  and  C_2
REMARK    2  A    between atoms: C_2  and  O_3
REMARK    3  A    between atoms: O_3  and  C_4
REMARK    4  A    between atoms: C_5  and  O_6
REMARK    5  A    between atoms: O_6  and  C_7
REMARK    6  A    between atoms: C_7  and  C_8
REMARK    7  A    between atoms: C_9  and  O_10
REMARK    8  A    between atoms: O_10  and  C_11
REMARK    9  A    between atoms: C_11  and  C_12
REMARK   10  A    between atoms: C_21  and  O_22
REMARK   11  A    between atoms: O_22  and  C_23
REMARK   12  A    between atoms: C_23  and  C_24
REMARK                            x       y       z     vdW  Elec       q    Type
REMARK                         _______ _______ _______ _____ _____    ______ ____
ROOT
ATOM      1  C   UNL     1       4.429   4.185  19.404  0.00  0.00    +0.000 A 
ATOM      2  C   UNL     1       5.104   4.770  18.321  0.00  0.00    +0.000 A 
ATOM      3  C   UNL     1       4.632   6.004  17.807  0.00  0.00    +0.000 A 
ATOM      4  C   UNL     1       3.557   6.733  18.396  0.00  0.00    +0.000 A 
ATOM      5  C   UNL     1       3.017   7.928  17.875  0.00  0.00    +0.000 A 
ATOM      6  C   UNL     1       1.962   8.603  18.491  0.00  0.00    +0.000 A 
ATOM      7 CL   UNL     1       1.279   9.995  17.753  0.00  0.00    +0.000 Cl
ATOM      8  C   UNL     1       1.449   8.147  19.686  0.00  0.00    +0.000 A 
ATOM      9  C   UNL     1       1.960   6.971  20.230  0.00  0.00    +0.000 A 
ATOM     10  C   UNL     1       2.947   6.199  19.568  0.00  0.00    +0.000 A 
ATOM     11  C   UNL     1       3.351   4.908  20.012  0.00  0.00    +0.000 A 
ENDROOT
BRANCH   1  12
ATOM     12  O   UNL     1       4.666   2.944  19.974  0.00  0.00    +0.000 OA
BRANCH  12  14
ATOM     13  C   UNL     1       3.185   2.124  18.233  0.00  0.00    +0.000 C 
ATOM     14  C   UNL     1       4.264   1.786  19.242  0.00  0.00    +0.000 C 
ENDBRANCH  12  14
ENDBRANCH   1  12
BRANCH   2  15
ATOM     15  O   UNL     1       6.108   4.051  17.724  0.00  0.00    +0.000 OA
BRANCH  15  16
ATOM     16  C   UNL     1       7.445   4.547  17.710  0.00  0.00    +0.000 C 
ATOM     17  C   UNL     1       7.722   5.376  18.956  0.00  0.00    +0.000 C 
ENDBRANCH  15  16
ENDBRANCH   2  15
BRANCH   3  18
ATOM     18  O   UNL     1       5.324   6.428  16.585  0.00  0.00    +0.000 OA
BRANCH  18  19
ATOM     19  C   UNL     1       5.291   6.467  15.174  0.00  0.00    +0.000 C 
ATOM     20  C   UNL     1       5.843   5.176  14.640  0.00  0.00    +0.000 C 
ATOM     21  O   UNL     1       4.933   7.398  14.474  0.00  0.00    +0.000 OA
ENDBRANCH  18  19
ENDBRANCH   3  18
BRANCH  11  22
ATOM     22  O   UNL     1       2.723   4.251  21.131  0.00  0.00    +0.000 OA
BRANCH  22  23
ATOM     23  C   UNL     1       1.519   3.543  21.035  0.00  0.00    +0.000 C 
ATOM     24  C   UNL     1       1.493   2.416  22.029  0.00  0.00    +0.000 C 
ATOM     25  O   UNL     1       0.597   3.767  20.261  0.00  0.00    +0.000 OA
ENDBRANCH  22  23
ENDBRANCH  11  22
TORSDOF 8
ENDMDL
MODEL 6
REMARK VINA RESULT:      -6.2      2.774      5.055
REMARK  Name = 
REMARK  12 active torsions:
REMARK  status: ('A' for Active; 'I' for Inactive)
REMARK    1  A    between atoms: C_1  and  C_2
REMARK    2  A    between atoms: C_2  and  O_3
REMARK    3  A    between atoms: O_3  and  C_4
REMARK    4  A    between atoms: C_5  and  O_6
REMARK    5  A    between atoms: O_6  and  C_7
REMARK    6  A    between atoms: C_7  and  C_8
REMARK    7  A    between atoms: C_9  and  O_10
REMARK    8  A    between atoms: O_10  and  C_11
REMARK    9  A    between atoms: C_11  and  C_12
REMARK   10  A    between atoms: C_21  and  O_22
REMARK   11  A    between atoms: O_22  and  C_23
REMARK   12  A    between atoms: C_23  and  C_24
REMARK                            x       y       z     vdW  Elec       q    Type
REMARK                         _______ _______ _______ _____ _____    ______ ____
ROOT
ATOM      1  C   UNL     1       2.292   6.300  19.422  0.00  0.00    +0.000 A 
ATOM      2  C   UNL     1       3.059   5.243  19.938  0.00  0.00    +0.000 A 
ATOM      3  C   UNL     1       4.128   4.732  19.161  0.00  0.00    +0.000 A 
ATOM      4  C   UNL     1       4.527   5.300  17.914  0.00  0.00    +0.000 A 
ATOM      5  C   UNL     1       5.540   4.779  17.083  0.00  0.00    +0.000 A 
ATOM      6  C   UNL     1       5.893   5.374  15.870  0.00  0.00    +0.000 A 
ATOM      7 CL   UNL     1       7.061   4.634  14.852  0.00  0.00    +0.000 Cl
ATOM      8  C   UNL     1       5.291   6.548  15.473  0.00  0.00    +0.000 A 
ATOM      9  C   UNL     1       4.288   7.092  16.271  0.00  0.00    +0.000 A 
ATOM     10  C   UNL     1       3.825   6.447  17.446  0.00  0.00    +0.000 A 
ATOM     11  C   UNL     1       2.684   6.887  18.175  0.00  0.00    +0.000 A 
ENDROOT
BRANCH   1  12
ATOM     12  O   UNL     1       1.151   6.862  19.974  0.00  0.00    +0.000 OA
BRANCH  12  14
ATOM     13  C   UNL     1       0.008   8.404  21.462  0.00  0.00    +0.000 C 
ATOM     14  C   UNL     1       1.307   7.702  21.117  0.00  0.00    +0.000 C 
ENDBRANCH  12  14
ENDBRANCH   1  12
BRANCH   2  15
ATOM     15  O   UNL     1       2.651   4.666  21.113  0.00  0.00    +0.000 OA
BRANCH  15  16
ATOM     16  C   UNL     1       1.494   3.832  21.147  0.00  0.00    +0.000 C 
ATOM     17  C   UNL     1       1.786   2.544  21.903  0.00  0.00    +0.000 C 
ENDBRANCH  15  16
ENDBRANCH   2  15
BRANCH   3  18
ATOM     18  O   UNL     1       4.748   3.535  19.740  0.00  0.00    +0.000 OA
BRANCH  18  19
ATOM     19  C   UNL     1       4.675   2.132  19.885  0.00  0.00    +0.000 C 
ATOM     20  C   UNL     1       3.718   1.588  18.862  0.00  0.00    +0.000 C 
ATOM     21  O   UNL     1       5.237   1.451  20.723  0.00  0.00    +0.000 OA
ENDBRANCH  18  19
ENDBRANCH   3  18
BRANCH  11  22
ATOM     22  O   UNL     1       1.860   7.980  17.722  0.00  0.00    +0.000 OA
BRANCH  22  23
ATOM     23  C   UNL     1       2.135   9.324  18.001  0.00  0.00    +0.000 C 
ATOM     24  C   UNL     1       0.872  10.054  18.365  0.00  0.00    +0.000 C 
ATOM     25  O   UNL     1       3.230   9.872  17.958  0.00  0.00    +0.000 OA
ENDBRANCH  22  23
ENDBRANCH  11  22
TORSDOF 8
ENDMDL
MODEL 7
REMARK VINA RESULT:      -6.0      2.769      5.168
REMARK  Name = 
REMARK  12 active torsions:
REMARK  status: ('A' for Active; 'I' for Inactive)
REMARK    1  A    between atoms: C_1  and  C_2
REMARK    2  A    between atoms: C_2  and  O_3
REMARK    3  A    between atoms: O_3  and  C_4
REMARK    4  A    between atoms: C_5  and  O_6
REMARK    5  A    between atoms: O_6  and  C_7
REMARK    6  A    between atoms: C_7  and  C_8
REMARK    7  A    between atoms: C_9  and  O_10
REMARK    8  A    between atoms: O_10  and  C_11
REMARK    9  A    between atoms: C_11  and  C_12
REMARK   10  A    between atoms: C_21  and  O_22
REMARK   11  A    between atoms: O_22  and  C_23
REMARK   12  A    between atoms: C_23  and  C_24
REMARK                            x       y       z     vdW  Elec       q    Type
REMARK                         _______ _______ _______ _____ _____    ______ ____
ROOT
ATOM      1  C   UNL     1       2.440   6.799  19.528  0.00  0.00    +0.000 A 
ATOM      2  C   UNL     1       2.748   5.456  19.798  0.00  0.00    +0.000 A 
ATOM      3  C   UNL     1       3.547   4.739  18.871  0.00  0.00    +0.000 A 
ATOM      4  C   UNL     1       4.134   5.341  17.719  0.00  0.00    +0.000 A 
ATOM      5  C   UNL     1       4.878   4.647  16.742  0.00  0.00    +0.000 A 
ATOM      6  C   UNL     1       5.433   5.284  15.631  0.00  0.00    +0.000 A 
ATOM      7 CL   UNL     1       6.236   4.367  14.421  0.00  0.00    +0.000 Cl
ATOM      8  C   UNL     1       5.321   6.649  15.487  0.00  0.00    +0.000 A 
ATOM      9  C   UNL     1       4.596   7.367  16.435  0.00  0.00    +0.000 A 
ATOM     10  C   UNL     1       3.921   6.733  17.508  0.00  0.00    +0.000 A 
ATOM     11  C   UNL     1       3.029   7.421  18.379  0.00  0.00    +0.000 A 
ENDROOT
BRANCH   1  12
ATOM     12  O   UNL     1       1.594   7.631  20.247  0.00  0.00    +0.000 OA
BRANCH  12  14
ATOM     13  C   UNL     1       1.093   9.109  22.107  0.00  0.00    +0.000 C 
ATOM     14  C   UNL     1       2.009   8.036  21.551  0.00  0.00    +0.000 C 
ENDBRANCH  12  14
ENDBRANCH   1  12
BRANCH   2  15
ATOM     15  O   UNL     1       2.149   4.863  20.878  0.00  0.00    +0.000 OA
BRANCH  15  16
ATOM     16  C   UNL     1       1.045   3.978  20.700  0.00  0.00    +0.000 C 
ATOM     17  C   UNL     1       1.234   2.713  21.525  0.00  0.00    +0.000 C 
ENDBRANCH  15  16
ENDBRANCH   2  15
BRANCH   3  18
ATOM     18  O   UNL     1       3.665   3.312  19.189  0.00  0.00    +0.000 OA
BRANCH  18  19
ATOM     19  C   UNL     1       3.500   1.990  18.720  0.00  0.00    +0.000 C 
ATOM     20  C   UNL     1       2.311   1.946  17.802  0.00  0.00    +0.000 C 
ATOM     21  O   UNL     1       4.158   1.013  19.030  0.00  0.00    +0.000 OA
ENDBRANCH  18  19
ENDBRANCH   3  18
BRANCH  11  22
ATOM     22  O   UNL     1       2.681   8.806  18.182  0.00  0.00    +0.000 OA
BRANCH  22  23
ATOM     23  C   UNL     1       1.381   9.245  17.903  0.00  0.00    +0.000 C 
ATOM     24  C   UNL     1       1.134  10.587  18.533  0.00  0.00    +0.000 C 
ATOM     25  O   UNL     1       0.531   8.650  17.253  0.00  0.00    +0.000 OA
ENDBRANCH  22  23
ENDBRANCH  11  22
TORSDOF 8
ENDMDL
MODEL 8
REMARK VINA RESULT:      -6.0      1.025      1.162
REMARK  Name = 
REMARK  12 active torsions:
REMARK  status: ('A' for Active; 'I' for Inactive)
REMARK    1  A    between atoms: C_1  and  C_2
REMARK    2  A    between atoms: C_2  and  O_3
REMARK    3  A    between atoms: O_3  and  C_4
REMARK    4  A    between atoms: C_5  and  O_6
REMARK    5  A    between atoms: O_6  and  C_7
REMARK    6  A    between atoms: C_7  and  C_8
REMARK    7  A    between atoms: C_9  and  O_10
REMARK    8  A    between atoms: O_10  and  C_11
REMARK    9  A    between atoms: C_11  and  C_12
REMARK   10  A    between atoms: C_21  and  O_22
REMARK   11  A    between atoms: O_22  and  C_23
REMARK   12  A    between atoms: C_23  and  C_24
REMARK                            x       y       z     vdW  Elec       q    Type
REMARK                         _______ _______ _______ _____ _____    ______ ____
ROOT
ATOM      1  C   UNL     1       4.728   4.970  17.547  0.00  0.00    +0.000 A 
ATOM      2  C   UNL     1       3.821   4.352  18.422  0.00  0.00    +0.000 A 
ATOM      3  C   UNL     1       2.835   5.148  19.058  0.00  0.00    +0.000 A 
ATOM      4  C   UNL     1       2.657   6.536  18.781  0.00  0.00    +0.000 A 
ATOM      5  C   UNL     1       1.734   7.374  19.441  0.00  0.00    +0.000 A 
ATOM      6  C   UNL     1       1.599   8.728  19.133  0.00  0.00    +0.000 A 
ATOM      7 CL   UNL     1       0.532   9.720  20.043  0.00  0.00    +0.000 Cl
ATOM      8  C   UNL     1       2.335   9.284  18.109  0.00  0.00    +0.000 A 
ATOM      9  C   UNL     1       3.255   8.485  17.434  0.00  0.00    +0.000 A 
ATOM     10  C   UNL     1       3.500   7.139  17.804  0.00  0.00    +0.000 A 
ATOM     11  C   UNL     1       4.558   6.362  17.252  0.00  0.00    +0.000 A 
ENDROOT
BRANCH   1  12
ATOM     12  O   UNL     1       5.820   4.391  16.918  0.00  0.00    +0.000 OA
BRANCH  12  14
ATOM     13  C   UNL     1       6.149   4.000  14.543  0.00  0.00    +0.000 C 
ATOM     14  C   UNL     1       5.568   3.484  15.845  0.00  0.00    +0.000 C 
ENDBRANCH  12  14
ENDBRANCH   1  12
BRANCH   2  15
ATOM     15  O   UNL     1       4.017   3.029  18.724  0.00  0.00    +0.000 OA
BRANCH  15  16
ATOM     16  C   UNL     1       4.848   2.652  19.820  0.00  0.00    +0.000 C 
ATOM     17  C   UNL     1       4.653   1.180  20.158  0.00  0.00    +0.000 C 
ENDBRANCH  15  16
ENDBRANCH   2  15
BRANCH   3  18
ATOM     18  O   UNL     1       2.054   4.416  20.060  0.00  0.00    +0.000 OA
BRANCH  18  19
ATOM     19  C   UNL     1       1.211   3.310  20.310  0.00  0.00    +0.000 C 
ATOM     20  C   UNL     1       1.516   2.767  21.677  0.00  0.00    +0.000 C 
ATOM     21  O   UNL     1       0.400   2.819  19.546  0.00  0.00    +0.000 OA
ENDBRANCH  18  19
ENDBRANCH   3  18
BRANCH  11  22
ATOM     22  O   UNL     1       5.517   6.918  16.330  0.00  0.00    +0.000 OA
BRANCH  22  23
ATOM     23  C   UNL     1       6.877   7.066  16.623  0.00  0.00    +0.000 C 
ATOM     24  C   UNL     1       7.074   8.116  17.681  0.00  0.00    +0.000 C 
ATOM     25  O   UNL     1       7.808   6.459  16.110  0.00  0.00    +0.000 OA
ENDBRANCH  22  23
ENDBRANCH  11  22
TORSDOF 8
ENDMDL
MODEL 9
REMARK VINA RESULT:      -5.9      6.888      9.551
REMARK  Name = 
REMARK  12 active torsions:
REMARK  status: ('A' for Active; 'I' for Inactive)
REMARK    1  A    between atoms: C_1  and  C_2
REMARK    2  A    between atoms: C_2  and  O_3
REMARK    3  A    between atoms: O_3  and  C_4
REMARK    4  A    between atoms: C_5  and  O_6
REMARK    5  A    between atoms: O_6  and  C_7
REMARK    6  A    between atoms: C_7  and  C_8
REMARK    7  A    between atoms: C_9  and  O_10
REMARK    8  A    between atoms: O_10  and  C_11
REMARK    9  A    between atoms: C_11  and  C_12
REMARK   10  A    between atoms: C_21  and  O_22
REMARK   11  A    between atoms: O_22  and  C_23
REMARK   12  A    between atoms: C_23  and  C_24
REMARK                            x       y       z     vdW  Elec       q    Type
REMARK                         _______ _______ _______ _____ _____    ______ ____
ROOT
ATOM      1  C   UNL     1      -0.783  10.968  19.806  0.00  0.00    +0.000 A 
ATOM      2  C   UNL     1      -1.796  11.408  18.939  0.00  0.00    +0.000 A 
ATOM      3  C   UNL     1      -2.929  12.062  19.488  0.00  0.00    +0.000 A 
ATOM      4  C   UNL     1      -3.050  12.379  20.873  0.00  0.00    +0.000 A 
ATOM      5  C   UNL     1      -4.187  12.968  21.465  0.00  0.00    +0.000 A 
ATOM      6  C   UNL     1      -4.256  13.259  22.828  0.00  0.00    +0.000 A 
ATOM      7 CL   UNL     1      -5.706  13.877  23.508  0.00  0.00    +0.000 Cl
ATOM      8  C   UNL     1      -3.166  13.034  23.641  0.00  0.00    +0.000 A 
ATOM      9  C   UNL     1      -2.025  12.456  23.089  0.00  0.00    +0.000 A 
ATOM     10  C   UNL     1      -1.969  12.039  21.736  0.00  0.00    +0.000 A 
ATOM     11  C   UNL     1      -0.886  11.286  21.199  0.00  0.00    +0.000 A 
ENDROOT
BRANCH   1  12
ATOM     12  O   UNL     1       0.339  10.222  19.480  0.00  0.00    +0.000 OA
BRANCH  12  14
ATOM     13  C   UNL     1       2.058   9.807  17.815  0.00  0.00    +0.000 C 
ATOM     14  C   UNL     1       1.334  10.836  18.661  0.00  0.00    +0.000 C 
ENDBRANCH  12  14
ENDBRANCH   1  12
BRANCH   2  15
ATOM     15  O   UNL     1      -1.705  11.065  17.615  0.00  0.00    +0.000 OA
BRANCH  15  16
ATOM     16  C   UNL     1      -2.236   9.826  17.149  0.00  0.00    +0.000 C 
ATOM     17  C   UNL     1      -2.873   9.999  15.778  0.00  0.00    +0.000 C 
ENDBRANCH  15  16
ENDBRANCH   2  15
BRANCH   3  18
ATOM     18  O   UNL     1      -3.980  12.331  18.500  0.00  0.00    +0.000 OA
BRANCH  18  19
ATOM     19  C   UNL     1      -5.329  12.123  18.140  0.00  0.00    +0.000 C 
ATOM     20  C   UNL     1      -5.685  10.688  18.401  0.00  0.00    +0.000 C 
ATOM     21  O   UNL     1      -6.090  12.936  17.646  0.00  0.00    +0.000 OA
ENDBRANCH  18  19
ENDBRANCH   3  18
BRANCH  11  22
ATOM     22  O   UNL     1       0.202  10.817  22.020  0.00  0.00    +0.000 OA
BRANCH  22  23
ATOM     23  C   UNL     1       0.104   9.719  22.883  0.00  0.00    +0.000 C 
ATOM     24  C   UNL     1      -0.537   8.555  22.179  0.00  0.00    +0.000 C 
ATOM     25  O   UNL     1       0.464   9.671  24.052  0.00  0.00    +0.000 OA
ENDBRANCH  22  23
ENDBRANCH  11  22
TORSDOF 8
ENDMDL
