MODEL 1
REMARK VINA RESULT:      -8.7      0.000      0.000
REMARK  Name = 
REMARK  7 active torsions:
REMARK  status: ('A' for Active; 'I' for Inactive)
REMARK    1  A    between atoms: C_1  and  N_2
REMARK    2  A    between atoms: C_3  and  O_4
REMARK    3  A    between atoms: O_4  and  C_5
REMARK    4  A    between atoms: C_5  and  C_6
REMARK    5  A    between atoms: N_20  and  C_21
REMARK    6  A    between atoms: C_21  and  C_22
REMARK    7  A    between atoms: N_32  and  C_33
REMARK                            x       y       z     vdW  Elec       q    Type
REMARK                         _______ _______ _______ _____ _____    ______ ____
ROOT
ATOM      1  C   UNL     1       1.497   9.060  17.744  0.00  0.00    +0.000 C 
ATOM      2  N   UNL     1       1.312   9.040  19.173  0.00  0.00    +0.000 N 
ATOM      3  C   UNL     1       1.862   8.149  20.067  0.00  0.00    +0.000 A 
ATOM      4  N   UNL     1       1.443   8.360  21.293  0.00  0.00    +0.000 NA
ATOM      5  C   UNL     1       0.626   9.434  21.184  0.00  0.00    +0.000 A 
ATOM      6  C   UNL     1       0.549   9.910  19.911  0.00  0.00    +0.000 A 
ATOM      7  C   UNL     1      -0.196  11.072  19.571  0.00  0.00    +0.000 A 
ATOM      8  O   UNL     1      -0.249  11.518  18.429  0.00  0.00    +0.000 OA
ATOM      9  N   UNL     1      -0.853  11.641  20.672  0.00  0.00    +0.000 N 
ATOM     10  C   UNL     1      -0.887  11.095  21.971  0.00  0.00    +0.000 A 
ATOM     11  O   UNL     1      -1.614  11.566  22.851  0.00  0.00    +0.000 OA
ATOM     12  N   UNL     1      -0.069   9.998  22.219  0.00  0.00    +0.000 N 
ATOM     13  C   UNL     1      -0.002   9.393  23.535  0.00  0.00    +0.000 C 
ENDROOT
BRANCH   3  14
ATOM     14  O   UNL     1       2.712   7.189  19.719  0.00  0.00    +0.000 OA
BRANCH  14  15
ATOM     15  C   UNL     1       2.196   5.856  19.900  0.00  0.00    +0.000 C 
BRANCH  15  16
ATOM     16  C   UNL     1       3.061   4.927  19.082  0.00  0.00    +0.000 A 
ATOM     17  C   UNL     1       2.570   4.356  17.881  0.00  0.00    +0.000 A 
ATOM     18  C   UNL     1       3.446   3.802  16.945  0.00  0.00    +0.000 A 
ATOM     19  C   UNL     1       4.789   3.887  17.233  0.00  0.00    +0.000 A 
ATOM     20  C   UNL     1       5.252   4.321  18.457  0.00  0.00    +0.000 A 
ATOM     21  C   UNL     1       4.410   4.783  19.434  0.00  0.00    +0.000 A 
ATOM     22  O   UNL     1       6.608   4.464  18.470  0.00  0.00    +0.000 OA
ATOM     23  C   UNL     1       6.810   4.526  17.045  0.00  0.00    +0.000 C 
ATOM     24  O   UNL     1       5.811   3.760  16.336  0.00  0.00    +0.000 OA
ENDBRANCH  15  16
ENDBRANCH  14  15
ENDBRANCH   3  14
BRANCH   9  25
ATOM     25  C   UNL     1      -1.606  12.871  20.452  0.00  0.00    +0.000 C 
BRANCH  25  26
ATOM     26  C   UNL     1      -3.075  12.604  20.164  0.00  0.00    +0.000 A 
ATOM     27  C   UNL     1      -3.474  11.993  18.964  0.00  0.00    +0.000 A 
ATOM     28  C   UNL     1      -4.827  11.726  18.723  0.00  0.00    +0.000 A 
ATOM     29  C   UNL     1      -5.791  12.045  19.679  0.00  0.00    +0.000 A 
ATOM     30 CL   UNL     1      -7.440  11.648  19.332  0.00  0.00    +0.000 Cl
ATOM     31  C   UNL     1      -5.404  12.647  20.880  0.00  0.00    +0.000 A 
ATOM     32 CL   UNL     1      -6.540  13.085  22.108  0.00  0.00    +0.000 Cl
ATOM     33  C   UNL     1      -4.054  12.927  21.114  0.00  0.00    +0.000 A 
ENDBRANCH  25  26
ENDBRANCH   9  25
TORSDOF 5
ENDMDL
MODEL 2
REMARK VINA RESULT:      -8.6      0.983      1.565
REMARK  Name = 
REMARK  7 active torsions:
REMARK  status: ('A' for Active; 'I' for Inactive)
REMARK    1  A    between atoms: C_1  and  N_2
REMARK    2  A    between atoms: C_3  and  O_4
REMARK    3  A    between atoms: O_4  and  C_5
REMARK    4  A    between atoms: C_5  and  C_6
REMARK    5  A    between atoms: N_20  and  C_21
REMARK    6  A    between atoms: C_21  and  C_22
REMARK    7  A    between atoms: N_32  and  C_33
REMARK                            x       y       z     vdW  Elec       q    Type
REMARK                         _______ _______ _______ _____ _____    ______ ____
ROOT
ATOM      1  C   UNL     1       1.865   8.588  17.835  0.00  0.00    +0.000 C 
ATOM      2  N   UNL     1       1.558   8.662  19.242  0.00  0.00    +0.000 N 
ATOM      3  C   UNL     1       1.998   7.812  20.231  0.00  0.00    +0.000 A 
ATOM      4  N   UNL     1       1.484   8.110  21.401  0.00  0.00    +0.000 NA
ATOM      5  C   UNL     1       0.718   9.200  21.158  0.00  0.00    +0.000 A 
ATOM      6  C   UNL     1       0.767   9.598  19.858  0.00  0.00    +0.000 A 
ATOM      7  C   UNL     1       0.095  10.759  19.386  0.00  0.00    +0.000 A 
ATOM      8  O   UNL     1       0.155  11.135  18.219  0.00  0.00    +0.000 OA
ATOM      9  N   UNL     1      -0.633  11.415  20.391  0.00  0.00    +0.000 N 
ATOM     10  C   UNL     1      -0.797  10.952  21.712  0.00  0.00    +0.000 A 
ATOM     11  O   UNL     1      -1.580  11.497  22.495  0.00  0.00    +0.000 OA
ATOM     12  N   UNL     1      -0.043   9.847  22.094  0.00  0.00    +0.000 N 
ATOM     13  C   UNL     1      -0.109   9.323  23.444  0.00  0.00    +0.000 C 
ENDROOT
BRANCH   3  14
ATOM     14  O   UNL     1       2.840   6.806  20.015  0.00  0.00    +0.000 OA
BRANCH  14  15
ATOM     15  C   UNL     1       2.227   5.645  19.423  0.00  0.00    +0.000 C 
BRANCH  15  16
ATOM     16  C   UNL     1       3.321   4.864  18.735  0.00  0.00    +0.000 A 
ATOM     17  C   UNL     1       3.154   4.413  17.401  0.00  0.00    +0.000 A 
ATOM     18  C   UNL     1       4.256   4.018  16.639  0.00  0.00    +0.000 A 
ATOM     19  C   UNL     1       5.491   4.139  17.234  0.00  0.00    +0.000 A 
ATOM     20  C   UNL     1       5.635   4.451  18.570  0.00  0.00    +0.000 A 
ATOM     21  C   UNL     1       4.565   4.751  19.369  0.00  0.00    +0.000 A 
ATOM     22  O   UNL     1       6.940   4.661  18.907  0.00  0.00    +0.000 OA
ATOM     23  C   UNL     1       7.447   4.900  17.580  0.00  0.00    +0.000 C 
ATOM     24  O   UNL     1       6.693   4.171  16.587  0.00  0.00    +0.000 OA
ENDBRANCH  15  16
ENDBRANCH  14  15
ENDBRANCH   3  14
BRANCH   9  25
ATOM     25  C   UNL     1      -1.321  12.652  20.034  0.00  0.00    +0.000 C 
BRANCH  25  26
ATOM     26  C   UNL     1      -2.743  12.403  19.555  0.00  0.00    +0.000 A 
ATOM     27  C   UNL     1      -3.844  12.782  20.340  0.00  0.00    +0.000 A 
ATOM     28  C   UNL     1      -5.148  12.574  19.874  0.00  0.00    +0.000 A 
ATOM     29  C   UNL     1      -5.368  12.007  18.620  0.00  0.00    +0.000 A 
ATOM     30 CL   UNL     1      -7.006  11.818  18.092  0.00  0.00    +0.000 Cl
ATOM     31  C   UNL     1      -4.279  11.632  17.827  0.00  0.00    +0.000 A 
ATOM     32 CL   UNL     1      -4.470  10.911  16.268  0.00  0.00    +0.000 Cl
ATOM     33  C   UNL     1      -2.977  11.827  18.298  0.00  0.00    +0.000 A 
ENDBRANCH  25  26
ENDBRANCH   9  25
TORSDOF 5
ENDMDL
MODEL 3
REMARK VINA RESULT:      -8.4      1.964      3.192
REMARK  Name = 
REMARK  7 active torsions:
REMARK  status: ('A' for Active; 'I' for Inactive)
REMARK    1  A    between atoms: C_1  and  N_2
REMARK    2  A    between atoms: C_3  and  O_4
REMARK    3  A    between atoms: O_4  and  C_5
REMARK    4  A    between atoms: C_5  and  C_6
REMARK    5  A    between atoms: N_20  and  C_21
REMARK    6  A    between atoms: C_21  and  C_22
REMARK    7  A    between atoms: N_32  and  C_33
REMARK                            x       y       z     vdW  Elec       q    Type
REMARK                         _______ _______ _______ _____ _____    ______ ____
ROOT
ATOM      1  C   UNL     1       1.034   8.823  22.137  0.00  0.00    +0.000 C 
ATOM      2  N   UNL     1       0.701   9.675  21.023  0.00  0.00    +0.000 N 
ATOM      3  C   UNL     1       0.956   9.435  19.692  0.00  0.00    +0.000 A 
ATOM      4  N   UNL     1       0.589  10.440  18.932  0.00  0.00    +0.000 NA
ATOM      5  C   UNL     1       0.057  11.334  19.798  0.00  0.00    +0.000 A 
ATOM      6  C   UNL     1       0.067  10.890  21.085  0.00  0.00    +0.000 A 
ATOM      7  C   UNL     1      -0.501  11.632  22.156  0.00  0.00    +0.000 A 
ATOM      8  O   UNL     1      -0.516  11.226  23.314  0.00  0.00    +0.000 OA
ATOM      9  N   UNL     1      -1.034  12.864  21.745  0.00  0.00    +0.000 N 
ATOM     10  C   UNL     1      -0.944  13.396  20.443  0.00  0.00    +0.000 A 
ATOM     11  O   UNL     1      -1.297  14.552  20.191  0.00  0.00    +0.000 OA
ATOM     12  N   UNL     1      -0.434  12.563  19.452  0.00  0.00    +0.000 N 
ATOM     13  C   UNL     1      -0.343  13.005  18.074  0.00  0.00    +0.000 C 
ENDROOT
BRANCH   3  14
ATOM     14  O   UNL     1       1.514   8.317  19.241  0.00  0.00    +0.000 OA
BRANCH  14  15
ATOM     15  C   UNL     1       2.271   8.488  18.027  0.00  0.00    +0.000 C 
BRANCH  15  16
ATOM     16  C   UNL     1       3.134   7.260  17.861  0.00  0.00    +0.000 A 
ATOM     17  C   UNL     1       2.625   5.974  18.174  0.00  0.00    +0.000 A 
ATOM     18  C   UNL     1       3.257   4.822  17.699  0.00  0.00    +0.000 A 
ATOM     19  C   UNL     1       4.351   5.012  16.886  0.00  0.00    +0.000 A 
ATOM     20  C   UNL     1       4.918   6.255  16.695  0.00  0.00    +0.000 A 
ATOM     21  C   UNL     1       4.376   7.394  17.226  0.00  0.00    +0.000 A 
ATOM     22  O   UNL     1       5.894   6.230  15.742  0.00  0.00    +0.000 OA
ATOM     23  C   UNL     1       5.506   5.000  15.099  0.00  0.00    +0.000 C 
ATOM     24  O   UNL     1       4.885   4.089  16.033  0.00  0.00    +0.000 OA
ENDBRANCH  15  16
ENDBRANCH  14  15
ENDBRANCH   3  14
BRANCH   9  25
ATOM     25  C   UNL     1      -1.693  13.689  22.752  0.00  0.00    +0.000 C 
BRANCH  25  26
ATOM     26  C   UNL     1      -3.146  13.291  22.962  0.00  0.00    +0.000 A 
ATOM     27  C   UNL     1      -3.603  12.874  24.223  0.00  0.00    +0.000 A 
ATOM     28  C   UNL     1      -4.950  12.539  24.410  0.00  0.00    +0.000 A 
ATOM     29  C   UNL     1      -5.855  12.635  23.353  0.00  0.00    +0.000 A 
ATOM     30 CL   UNL     1      -7.512  12.244  23.667  0.00  0.00    +0.000 Cl
ATOM     31  C   UNL     1      -5.411  13.056  22.096  0.00  0.00    +0.000 A 
ATOM     32 CL   UNL     1      -6.468  13.187  20.734  0.00  0.00    +0.000 Cl
ATOM     33  C   UNL     1      -4.064  13.377  21.906  0.00  0.00    +0.000 A 
ENDBRANCH  25  26
ENDBRANCH   9  25
TORSDOF 5
ENDMDL
MODEL 4
REMARK VINA RESULT:      -8.3      2.144      3.297
REMARK  Name = 
REMARK  7 active torsions:
REMARK  status: ('A' for Active; 'I' for Inactive)
REMARK    1  A    between atoms: C_1  and  N_2
REMARK    2  A    between atoms: C_3  and  O_4
REMARK    3  A    between atoms: O_4  and  C_5
REMARK    4  A    between atoms: C_5  and  C_6
REMARK    5  A    between atoms: N_20  and  C_21
REMARK    6  A    between atoms: C_21  and  C_22
REMARK    7  A    between atoms: N_32  and  C_33
REMARK                            x       y       z     vdW  Elec       q    Type
REMARK                         _______ _______ _______ _____ _____    ______ ____
ROOT
ATOM      1  C   UNL     1       1.010   7.810  20.809  0.00  0.00    +0.000 C 
ATOM      2  N   UNL     1       1.208   8.939  19.935  0.00  0.00    +0.000 N 
ATOM      3  C   UNL     1       1.709   8.916  18.653  0.00  0.00    +0.000 A 
ATOM      4  N   UNL     1       1.828  10.122  18.150  0.00  0.00    +0.000 NA
ATOM      5  C   UNL     1       1.362  10.936  19.126  0.00  0.00    +0.000 A 
ATOM      6  C   UNL     1       0.932  10.252  20.221  0.00  0.00    +0.000 A 
ATOM      7  C   UNL     1       0.340  10.895  21.343  0.00  0.00    +0.000 A 
ATOM      8  O   UNL     1      -0.070  10.280  22.323  0.00  0.00    +0.000 OA
ATOM      9  N   UNL     1       0.280  12.290  21.204  0.00  0.00    +0.000 N 
ATOM     10  C   UNL     1       0.830  13.026  20.136  0.00  0.00    +0.000 A 
ATOM     11  O   UNL     1       0.878  14.260  20.158  0.00  0.00    +0.000 OA
ATOM     12  N   UNL     1       1.323  12.303  19.055  0.00  0.00    +0.000 N 
ATOM     13  C   UNL     1       1.869  12.971  17.889  0.00  0.00    +0.000 C 
ENDROOT
BRANCH   3  14
ATOM     14  O   UNL     1       2.036   7.799  18.011  0.00  0.00    +0.000 OA
BRANCH  14  15
ATOM     15  C   UNL     1       3.415   7.415  18.169  0.00  0.00    +0.000 C 
BRANCH  15  16
ATOM     16  C   UNL     1       3.460   5.906  18.177  0.00  0.00    +0.000 A 
ATOM     17  C   UNL     1       4.521   5.220  18.822  0.00  0.00    +0.000 A 
ATOM     18  C   UNL     1       4.400   3.867  19.149  0.00  0.00    +0.000 A 
ATOM     19  C   UNL     1       3.196   3.269  18.857  0.00  0.00    +0.000 A 
ATOM     20  C   UNL     1       2.222   3.901  18.113  0.00  0.00    +0.000 A 
ATOM     21  C   UNL     1       2.350   5.198  17.695  0.00  0.00    +0.000 A 
ATOM     22  O   UNL     1       1.063   3.183  18.072  0.00  0.00    +0.000 OA
ATOM     23  C   UNL     1       1.312   2.347  19.218  0.00  0.00    +0.000 C 
ATOM     24  O   UNL     1       2.725   2.107  19.400  0.00  0.00    +0.000 OA
ENDBRANCH  15  16
ENDBRANCH  14  15
ENDBRANCH   3  14
BRANCH   9  25
ATOM     25  C   UNL     1      -0.358  13.052  22.273  0.00  0.00    +0.000 C 
BRANCH  25  26
ATOM     26  C   UNL     1      -1.876  12.996  22.193  0.00  0.00    +0.000 A 
ATOM     27  C   UNL     1      -2.539  13.152  20.965  0.00  0.00    +0.000 A 
ATOM     28  C   UNL     1      -3.935  13.069  20.901  0.00  0.00    +0.000 A 
ATOM     29  C   UNL     1      -4.681  12.812  22.051  0.00  0.00    +0.000 A 
ATOM     30 CL   UNL     1      -6.400  12.682  21.890  0.00  0.00    +0.000 Cl
ATOM     31  C   UNL     1      -4.030  12.648  23.277  0.00  0.00    +0.000 A 
ATOM     32 CL   UNL     1      -4.885  12.341  24.748  0.00  0.00    +0.000 Cl
ATOM     33  C   UNL     1      -2.637  12.745  23.343  0.00  0.00    +0.000 A 
ENDBRANCH  25  26
ENDBRANCH   9  25
TORSDOF 5
ENDMDL
MODEL 5
REMARK VINA RESULT:      -8.3      3.839      4.815
REMARK  Name = 
REMARK  7 active torsions:
REMARK  status: ('A' for Active; 'I' for Inactive)
REMARK    1  A    between atoms: C_1  and  N_2
REMARK    2  A    between atoms: C_3  and  O_4
REMARK    3  A    between atoms: O_4  and  C_5
REMARK    4  A    between atoms: C_5  and  C_6
REMARK    5  A    between atoms: N_20  and  C_21
REMARK    6  A    between atoms: C_21  and  C_22
REMARK    7  A    between atoms: N_32  and  C_33
REMARK                            x       y       z     vdW  Elec       q    Type
REMARK                         _______ _______ _______ _____ _____    ______ ____
ROOT
ATOM      1  C   UNL     1       2.671   7.582  18.264  0.00  0.00    +0.000 C 
ATOM      2  N   UNL     1       1.951   8.088  19.405  0.00  0.00    +0.000 N 
ATOM      3  C   UNL     1       1.720   7.435  20.595  0.00  0.00    +0.000 A 
ATOM      4  N   UNL     1       0.973   8.144  21.408  0.00  0.00    +0.000 NA
ATOM      5  C   UNL     1       0.744   9.294  20.731  0.00  0.00    +0.000 A 
ATOM      6  C   UNL     1       1.359   9.321  19.517  0.00  0.00    +0.000 A 
ATOM      7  C   UNL     1       1.314  10.455  18.661  0.00  0.00    +0.000 A 
ATOM      8  O   UNL     1       1.887  10.493  17.576  0.00  0.00    +0.000 OA
ATOM      9  N   UNL     1       0.553  11.509  19.189  0.00  0.00    +0.000 N 
ATOM     10  C   UNL     1      -0.191  11.456  20.385  0.00  0.00    +0.000 A 
ATOM     11  O   UNL     1      -0.962  12.365  20.707  0.00  0.00    +0.000 OA
ATOM     12  N   UNL     1      -0.025  10.331  21.185  0.00  0.00    +0.000 N 
ATOM     13  C   UNL     1      -0.714  10.204  22.455  0.00  0.00    +0.000 C 
ENDROOT
BRANCH   3  14
ATOM     14  O   UNL     1       2.198   6.228  20.875  0.00  0.00    +0.000 OA
BRANCH  14  15
ATOM     15  C   UNL     1       1.402   5.146  20.353  0.00  0.00    +0.000 C 
BRANCH  15  16
ATOM     16  C   UNL     1       2.284   4.352  19.420  0.00  0.00    +0.000 A 
ATOM     17  C   UNL     1       1.783   3.887  18.177  0.00  0.00    +0.000 A 
ATOM     18  C   UNL     1       2.655   3.479  17.165  0.00  0.00    +0.000 A 
ATOM     19  C   UNL     1       4.000   3.599  17.426  0.00  0.00    +0.000 A 
ATOM     20  C   UNL     1       4.480   3.924  18.678  0.00  0.00    +0.000 A 
ATOM     21  C   UNL     1       3.648   4.239  19.719  0.00  0.00    +0.000 A 
ATOM     22  O   UNL     1       5.828   4.131  18.671  0.00  0.00    +0.000 OA
ATOM     23  C   UNL     1       5.983   4.353  17.256  0.00  0.00    +0.000 C 
ATOM     24  O   UNL     1       4.999   3.617  16.495  0.00  0.00    +0.000 OA
ENDBRANCH  15  16
ENDBRANCH  14  15
ENDBRANCH   3  14
BRANCH   9  25
ATOM     25  C   UNL     1       0.482  12.747  18.420  0.00  0.00    +0.000 C 
BRANCH  25  26
ATOM     26  C   UNL     1       1.557  13.743  18.829  0.00  0.00    +0.000 A 
ATOM     27  C   UNL     1       1.315  14.691  19.836  0.00  0.00    +0.000 A 
ATOM     28  C   UNL     1       2.323  15.582  20.222  0.00  0.00    +0.000 A 
ATOM     29  C   UNL     1       3.583  15.525  19.627  0.00  0.00    +0.000 A 
ATOM     30 CL   UNL     1       4.793  16.631  20.184  0.00  0.00    +0.000 Cl
ATOM     31  C   UNL     1       3.836  14.580  18.628  0.00  0.00    +0.000 A 
ATOM     32 CL   UNL     1       5.366  14.457  17.833  0.00  0.00    +0.000 Cl
ATOM     33  C   UNL     1       2.825  13.700  18.232  0.00  0.00    +0.000 A 
ENDBRANCH  25  26
ENDBRANCH   9  25
TORSDOF 5
ENDMDL
MODEL 6
REMARK VINA RESULT:      -8.2      2.122      3.439
REMARK  Name = 
REMARK  7 active torsions:
REMARK  status: ('A' for Active; 'I' for Inactive)
REMARK    1  A    between atoms: C_1  and  N_2
REMARK    2  A    between atoms: C_3  and  O_4
REMARK    3  A    between atoms: O_4  and  C_5
REMARK    4  A    between atoms: C_5  and  C_6
REMARK    5  A    between atoms: N_20  and  C_21
REMARK    6  A    between atoms: C_21  and  C_22
REMARK    7  A    between atoms: N_32  and  C_33
REMARK                            x       y       z     vdW  Elec       q    Type
REMARK                         _______ _______ _______ _____ _____    ______ ____
ROOT
ATOM      1  C   UNL     1       0.793   8.651  21.515  0.00  0.00    +0.000 C 
ATOM      2  N   UNL     1       0.546   9.737  20.600  0.00  0.00    +0.000 N 
ATOM      3  C   UNL     1       0.760   9.739  19.241  0.00  0.00    +0.000 A 
ATOM      4  N   UNL     1       0.499  10.907  18.703  0.00  0.00    +0.000 NA
ATOM      5  C   UNL     1       0.078  11.664  19.743  0.00  0.00    +0.000 A 
ATOM      6  C   UNL     1       0.050  10.976  20.917  0.00  0.00    +0.000 A 
ATOM      7  C   UNL     1      -0.423  11.549  22.130  0.00  0.00    +0.000 A 
ATOM      8  O   UNL     1      -0.471  10.925  23.186  0.00  0.00    +0.000 OA
ATOM      9  N   UNL     1      -0.820  12.887  21.984  0.00  0.00    +0.000 N 
ATOM     10  C   UNL     1      -0.684  13.653  20.809  0.00  0.00    +0.000 A 
ATOM     11  O   UNL     1      -0.909  14.867  20.799  0.00  0.00    +0.000 OA
ATOM     12  N   UNL     1      -0.279  12.983  19.659  0.00  0.00    +0.000 N 
ATOM     13  C   UNL     1      -0.152  13.675  18.391  0.00  0.00    +0.000 C 
ENDROOT
BRANCH   3  14
ATOM     14  O   UNL     1       1.186   8.679  18.562  0.00  0.00    +0.000 OA
BRANCH  14  15
ATOM     15  C   UNL     1       2.549   8.784  18.107  0.00  0.00    +0.000 C 
BRANCH  15  16
ATOM     16  C   UNL     1       3.035   7.382  17.825  0.00  0.00    +0.000 A 
ATOM     17  C   UNL     1       4.295   7.167  17.211  0.00  0.00    +0.000 A 
ATOM     18  C   UNL     1       4.912   5.914  17.269  0.00  0.00    +0.000 A 
ATOM     19  C   UNL     1       4.257   4.939  17.985  0.00  0.00    +0.000 A 
ATOM     20  C   UNL     1       2.975   5.114  18.464  0.00  0.00    +0.000 A 
ATOM     21  C   UNL     1       2.306   6.302  18.340  0.00  0.00    +0.000 A 
ATOM     22  O   UNL     1       2.583   4.082  19.264  0.00  0.00    +0.000 OA
ATOM     23  C   UNL     1       3.892   3.561  19.565  0.00  0.00    +0.000 C 
ATOM     24  O   UNL     1       4.816   3.795  18.479  0.00  0.00    +0.000 OA
ENDBRANCH  15  16
ENDBRANCH  14  15
ENDBRANCH   3  14
BRANCH   9  25
ATOM     25  C   UNL     1      -1.374  13.562  23.153  0.00  0.00    +0.000 C 
BRANCH  25  26
ATOM     26  C   UNL     1      -2.867  13.314  23.308  0.00  0.00    +0.000 A 
ATOM     27  C   UNL     1      -3.369  12.607  24.412  0.00  0.00    +0.000 A 
ATOM     28  C   UNL     1      -4.748  12.412  24.558  0.00  0.00    +0.000 A 
ATOM     29  C   UNL     1      -5.638  12.934  23.620  0.00  0.00    +0.000 A 
ATOM     30 CL   UNL     1      -7.331  12.689  23.885  0.00  0.00    +0.000 Cl
ATOM     31  C   UNL     1      -5.149  13.645  22.520  0.00  0.00    +0.000 A 
ATOM     32 CL   UNL     1      -6.187  14.309  21.308  0.00  0.00    +0.000 Cl
ATOM     33  C   UNL     1      -3.771  13.828  22.367  0.00  0.00    +0.000 A 
ENDBRANCH  25  26
ENDBRANCH   9  25
TORSDOF 5
ENDMDL
MODEL 7
REMARK VINA RESULT:      -8.2      4.075      5.018
REMARK  Name = 
REMARK  7 active torsions:
REMARK  status: ('A' for Active; 'I' for Inactive)
REMARK    1  A    between atoms: C_1  and  N_2
REMARK    2  A    between atoms: C_3  and  O_4
REMARK    3  A    between atoms: O_4  and  C_5
REMARK    4  A    between atoms: C_5  and  C_6
REMARK    5  A    between atoms: N_20  and  C_21
REMARK    6  A    between atoms: C_21  and  C_22
REMARK    7  A    between atoms: N_32  and  C_33
REMARK                            x       y       z     vdW  Elec       q    Type
REMARK                         _______ _______ _______ _____ _____    ______ ____
ROOT
ATOM      1  C   UNL     1       3.230   7.453  17.349  0.00  0.00    +0.000 C 
ATOM      2  N   UNL     1       2.531   7.602  18.600  0.00  0.00    +0.000 N 
ATOM      3  C   UNL     1       2.393   6.654  19.589  0.00  0.00    +0.000 A 
ATOM      4  N   UNL     1       1.639   7.078  20.576  0.00  0.00    +0.000 NA
ATOM      5  C   UNL     1       1.311   8.343  20.222  0.00  0.00    +0.000 A 
ATOM      6  C   UNL     1       1.869   8.720  19.039  0.00  0.00    +0.000 A 
ATOM      7  C   UNL     1       1.716  10.028  18.503  0.00  0.00    +0.000 A 
ATOM      8  O   UNL     1       2.237  10.380  17.449  0.00  0.00    +0.000 OA
ATOM      9  N   UNL     1       0.915  10.857  19.303  0.00  0.00    +0.000 N 
ATOM     10  C   UNL     1       0.228  10.450  20.464  0.00  0.00    +0.000 A 
ATOM     11  O   UNL     1      -0.584  11.190  21.028  0.00  0.00    +0.000 OA
ATOM     12  N   UNL     1       0.499   9.173  20.946  0.00  0.00    +0.000 N 
ATOM     13  C   UNL     1      -0.125   8.680  22.159  0.00  0.00    +0.000 C 
ENDROOT
BRANCH   3  14
ATOM     14  O   UNL     1       2.958   5.452  19.539  0.00  0.00    +0.000 OA
BRANCH  14  15
ATOM     15  C   UNL     1       4.394   5.474  19.640  0.00  0.00    +0.000 C 
BRANCH  15  16
ATOM     16  C   UNL     1       4.937   4.669  18.484  0.00  0.00    +0.000 A 
ATOM     17  C   UNL     1       4.077   3.849  17.711  0.00  0.00    +0.000 A 
ATOM     18  C   UNL     1       4.470   3.392  16.450  0.00  0.00    +0.000 A 
ATOM     19  C   UNL     1       5.697   3.819  15.997  0.00  0.00    +0.000 A 
ATOM     20  C   UNL     1       6.582   4.503  16.804  0.00  0.00    +0.000 A 
ATOM     21  C   UNL     1       6.261   4.884  18.079  0.00  0.00    +0.000 A 
ATOM     22  O   UNL     1       7.666   4.952  16.108  0.00  0.00    +0.000 OA
ATOM     23  C   UNL     1       7.096   4.873  14.788  0.00  0.00    +0.000 C 
ATOM     24  O   UNL     1       6.118   3.813  14.697  0.00  0.00    +0.000 OA
ENDBRANCH  15  16
ENDBRANCH  14  15
ENDBRANCH   3  14
BRANCH   9  25
ATOM     25  C   UNL     1       0.733  12.241  18.878  0.00  0.00    +0.000 C 
BRANCH  25  26
ATOM     26  C   UNL     1       1.868  13.141  19.342  0.00  0.00    +0.000 A 
ATOM     27  C   UNL     1       2.056  13.418  20.705  0.00  0.00    +0.000 A 
ATOM     28  C   UNL     1       3.123  14.224  21.121  0.00  0.00    +0.000 A 
ATOM     29  C   UNL     1       4.021  14.743  20.189  0.00  0.00    +0.000 A 
ATOM     30 CL   UNL     1       5.340  15.697  20.779  0.00  0.00    +0.000 Cl
ATOM     31  C   UNL     1       3.847  14.466  18.830  0.00  0.00    +0.000 A 
ATOM     32 CL   UNL     1       4.909  15.084  17.614  0.00  0.00    +0.000 Cl
ATOM     33  C   UNL     1       2.774  13.673  18.413  0.00  0.00    +0.000 A 
ENDBRANCH  25  26
ENDBRANCH   9  25
TORSDOF 5
ENDMDL
MODEL 8
REMARK VINA RESULT:      -8.2      1.095      1.668
REMARK  Name = 
REMARK  7 active torsions:
REMARK  status: ('A' for Active; 'I' for Inactive)
REMARK    1  A    between atoms: C_1  and  N_2
REMARK    2  A    between atoms: C_3  and  O_4
REMARK    3  A    between atoms: O_4  and  C_5
REMARK    4  A    between atoms: C_5  and  C_6
REMARK    5  A    between atoms: N_20  and  C_21
REMARK    6  A    between atoms: C_21  and  C_22
REMARK    7  A    between atoms: N_32  and  C_33
REMARK                            x       y       z     vdW  Elec       q    Type
REMARK                         _______ _______ _______ _____ _____    ______ ____
ROOT
ATOM      1  C   UNL     1       1.503   9.227  17.714  0.00  0.00    +0.000 C 
ATOM      2  N   UNL     1       1.311   9.149  19.141  0.00  0.00    +0.000 N 
ATOM      3  C   UNL     1       1.853   8.220  19.999  0.00  0.00    +0.000 A 
ATOM      4  N   UNL     1       1.429   8.381  21.231  0.00  0.00    +0.000 NA
ATOM      5  C   UNL     1       0.615   9.461  21.162  0.00  0.00    +0.000 A 
ATOM      6  C   UNL     1       0.546   9.989  19.910  0.00  0.00    +0.000 A 
ATOM      7  C   UNL     1      -0.194  11.166  19.614  0.00  0.00    +0.000 A 
ATOM      8  O   UNL     1      -0.240  11.660  18.491  0.00  0.00    +0.000 OA
ATOM      9  N   UNL     1      -0.856  11.692  20.735  0.00  0.00    +0.000 N 
ATOM     10  C   UNL     1      -0.898  11.093  22.010  0.00  0.00    +0.000 A 
ATOM     11  O   UNL     1      -1.629  11.529  22.905  0.00  0.00    +0.000 OA
ATOM     12  N   UNL     1      -0.084   9.983  22.216  0.00  0.00    +0.000 N 
ATOM     13  C   UNL     1      -0.025   9.325  23.507  0.00  0.00    +0.000 C 
ENDROOT
BRANCH   3  14
ATOM     14  O   UNL     1       2.703   7.272  19.617  0.00  0.00    +0.000 OA
BRANCH  14  15
ATOM     15  C   UNL     1       2.233   6.476  18.512  0.00  0.00    +0.000 C 
BRANCH  15  16
ATOM     16  C   UNL     1       3.410   5.678  18.004  0.00  0.00    +0.000 A 
ATOM     17  C   UNL     1       3.417   4.263  18.100  0.00  0.00    +0.000 A 
ATOM     18  C   UNL     1       4.300   3.501  17.331  0.00  0.00    +0.000 A 
ATOM     19  C   UNL     1       5.111   4.191  16.460  0.00  0.00    +0.000 A 
ATOM     20  C   UNL     1       5.194   5.568  16.467  0.00  0.00    +0.000 A 
ATOM     21  C   UNL     1       4.407   6.342  17.277  0.00  0.00    +0.000 A 
ATOM     22  O   UNL     1       5.941   6.040  15.428  0.00  0.00    +0.000 OA
ATOM     23  C   UNL     1       5.875   4.868  14.593  0.00  0.00    +0.000 C 
ATOM     24  O   UNL     1       5.762   3.663  15.381  0.00  0.00    +0.000 OA
ENDBRANCH  15  16
ENDBRANCH  14  15
ENDBRANCH   3  14
BRANCH   9  25
ATOM     25  C   UNL     1      -1.604  12.932  20.562  0.00  0.00    +0.000 C 
BRANCH  25  26
ATOM     26  C   UNL     1      -3.081  12.682  20.293  0.00  0.00    +0.000 A 
ATOM     27  C   UNL     1      -4.056  13.053  21.232  0.00  0.00    +0.000 A 
ATOM     28  C   UNL     1      -5.414  12.844  20.960  0.00  0.00    +0.000 A 
ATOM     29  C   UNL     1      -5.813  12.284  19.747  0.00  0.00    +0.000 A 
ATOM     30 CL   UNL     1      -7.509  12.092  19.461  0.00  0.00    +0.000 Cl
ATOM     31  C   UNL     1      -4.849  11.917  18.802  0.00  0.00    +0.000 A 
ATOM     32 CL   UNL     1      -5.263  11.205  17.282  0.00  0.00    +0.000 Cl
ATOM     33  C   UNL     1      -3.493  12.113  19.080  0.00  0.00    +0.000 A 
ENDBRANCH  25  26
ENDBRANCH   9  25
TORSDOF 5
ENDMDL
MODEL 9
REMARK VINA RESULT:      -8.1      3.488      4.479
REMARK  Name = 
REMARK  7 active torsions:
REMARK  status: ('A' for Active; 'I' for Inactive)
REMARK    1  A    between atoms: C_1  and  N_2
REMARK    2  A    between atoms: C_3  and  O_4
REMARK    3  A    between atoms: O_4  and  C_5
REMARK    4  A    between atoms: C_5  and  C_6
REMARK    5  A    between atoms: N_20  and  C_21
REMARK    6  A    between atoms: C_21  and  C_22
REMARK    7  A    between atoms: N_32  and  C_33
REMARK                            x       y       z     vdW  Elec       q    Type
REMARK                         _______ _______ _______ _____ _____    ______ ____
ROOT
ATOM      1  C   UNL     1       2.595   7.502  18.274  0.00  0.00    +0.000 C 
ATOM      2  N   UNL     1       1.910   8.033  19.426  0.00  0.00    +0.000 N 
ATOM      3  C   UNL     1       1.714   7.404  20.634  0.00  0.00    +0.000 A 
ATOM      4  N   UNL     1       0.992   8.131  21.455  0.00  0.00    +0.000 NA
ATOM      5  C   UNL     1       0.747   9.268  20.763  0.00  0.00    +0.000 A 
ATOM      6  C   UNL     1       1.325   9.270  19.532  0.00  0.00    +0.000 A 
ATOM      7  C   UNL     1       1.258  10.387  18.655  0.00  0.00    +0.000 A 
ATOM      8  O   UNL     1       1.798  10.402  17.553  0.00  0.00    +0.000 OA
ATOM      9  N   UNL     1       0.516  11.453  19.185  0.00  0.00    +0.000 N 
ATOM     10  C   UNL     1      -0.193  11.426  20.402  0.00  0.00    +0.000 A 
ATOM     11  O   UNL     1      -0.952  12.344  20.729  0.00  0.00    +0.000 OA
ATOM     12  N   UNL     1      -0.006  10.316  21.220  0.00  0.00    +0.000 N 
ATOM     13  C   UNL     1      -0.657  10.216  22.512  0.00  0.00    +0.000 C 
ENDROOT
BRANCH   3  14
ATOM     14  O   UNL     1       2.197   6.201  20.924  0.00  0.00    +0.000 OA
BRANCH  14  15
ATOM     15  C   UNL     1       1.401   5.112  20.417  0.00  0.00    +0.000 C 
BRANCH  15  16
ATOM     16  C   UNL     1       2.274   4.320  19.474  0.00  0.00    +0.000 A 
ATOM     17  C   UNL     1       1.761   3.853  18.238  0.00  0.00    +0.000 A 
ATOM     18  C   UNL     1       2.623   3.446  17.216  0.00  0.00    +0.000 A 
ATOM     19  C   UNL     1       3.971   3.572  17.462  0.00  0.00    +0.000 A 
ATOM     20  C   UNL     1       4.463   3.899  18.708  0.00  0.00    +0.000 A 
ATOM     21  C   UNL     1       3.642   4.212  19.758  0.00  0.00    +0.000 A 
ATOM     22  O   UNL     1       5.811   4.111  18.685  0.00  0.00    +0.000 OA
ATOM     23  C   UNL     1       5.948   4.332  17.269  0.00  0.00    +0.000 C 
ATOM     24  O   UNL     1       4.959   3.593  16.520  0.00  0.00    +0.000 OA
ENDBRANCH  15  16
ENDBRANCH  14  15
ENDBRANCH   3  14
BRANCH   9  25
ATOM     25  C   UNL     1       0.425  12.676  18.394  0.00  0.00    +0.000 C 
BRANCH  25  26
ATOM     26  C   UNL     1       1.502  13.684  18.765  0.00  0.00    +0.000 A 
ATOM     27  C   UNL     1       2.823  13.524  18.317  0.00  0.00    +0.000 A 
ATOM     28  C   UNL     1       3.799  14.475  18.641  0.00  0.00    +0.000 A 
ATOM     29  C   UNL     1       3.466  15.600  19.393  0.00  0.00    +0.000 A 
ATOM     30 CL   UNL     1       4.713  16.754  19.721  0.00  0.00    +0.000 Cl
ATOM     31  C   UNL     1       2.151  15.773  19.838  0.00  0.00    +0.000 A 
ATOM     32 CL   UNL     1       1.664  17.133  20.787  0.00  0.00    +0.000 Cl
ATOM     33  C   UNL     1       1.181  14.816  19.527  0.00  0.00    +0.000 A 
ENDBRANCH  25  26
ENDBRANCH   9  25
TORSDOF 5
ENDMDL
