MODEL 1
REMARK VINA RESULT:      -6.8      0.000      0.000
REMARK  Name = 
REMARK  7 active torsions:
REMARK  status: ('A' for Active; 'I' for Inactive)
REMARK    1  A    between atoms: C_1  and  C_2
REMARK    2  A    between atoms: C_4  and  C_5
REMARK    3  A    between atoms: N_16  and  C_17
REMARK    4  A    between atoms: C_17  and  C_18
REMARK    5  A    between atoms: C_18  and  N_19
REMARK    6  A    between atoms: N_19  and  C_20
REMARK    7  A    between atoms: N_19  and  C_21
REMARK                            x       y       z     vdW  Elec       q    Type
REMARK                         _______ _______ _______ _____ _____    ______ ____
ROOT
ATOM      1  C   UNL     1       1.725  10.574  17.818  0.00  0.00    +0.000 C 
ATOM      2  C   UNL     1       1.598   9.548  18.912  0.00  0.00    +0.000 A 
ATOM      3  C   UNL     1       0.855   9.869  20.055  0.00  0.00    +0.000 A 
ATOM      4  C   UNL     1       0.721   8.936  21.080  0.00  0.00    +0.000 A 
ATOM      5  N   UNL     1       1.270   7.695  20.983  0.00  0.00    +0.000 NA
ATOM      6  C   UNL     1       1.987   7.375  19.880  0.00  0.00    +0.000 A 
ATOM      7  C   UNL     1       2.199   8.279  18.831  0.00  0.00    +0.000 A 
ATOM      8  C   UNL     1       3.042   7.875  17.706  0.00  0.00    +0.000 A 
ATOM      9  C   UNL     1       3.627   6.678  17.711  0.00  0.00    +0.000 A 
ATOM     10  C   UNL     1       3.407   5.696  18.796  0.00  0.00    +0.000 A 
ATOM     11  O   UNL     1       3.998   4.621  18.730  0.00  0.00    +0.000 OA
ATOM     12  N   UNL     1       2.536   6.066  19.804  0.00  0.00    +0.000 N 
ENDROOT
BRANCH   4  13
ATOM     13  C   UNL     1      -0.042   9.295  22.348  0.00  0.00    +0.000 C 
ATOM     14  F   UNL     1       0.755   9.362  23.456  0.00  0.00    +0.000 F 
ATOM     15  F   UNL     1      -0.666  10.505  22.276  0.00  0.00    +0.000 F 
ATOM     16  F   UNL     1      -1.012   8.387  22.657  0.00  0.00    +0.000 F 
ENDBRANCH   4  13
BRANCH  12  17
ATOM     17  C   UNL     1       2.170   5.093  20.845  0.00  0.00    +0.000 C 
BRANCH  17  18
ATOM     18  C   UNL     1       1.002   4.167  20.417  0.00  0.00    +0.000 C 
BRANCH  18  19
ATOM     19  N   UNL     1       1.222   2.711  20.585  0.00  0.00    +0.000 NA
ATOM     20  C   UNL     1       1.695   2.081  19.349  0.00  0.00    +0.000 C 
ATOM     21  C   UNL     1       2.214   2.496  21.647  0.00  0.00    +0.000 C 
ENDBRANCH  18  19
ENDBRANCH  17  18
ENDBRANCH  12  17
TORSDOF 4
ENDMDL
MODEL 2
REMARK VINA RESULT:      -6.8      4.900      6.599
REMARK  Name = 
REMARK  7 active torsions:
REMARK  status: ('A' for Active; 'I' for Inactive)
REMARK    1  A    between atoms: C_1  and  C_2
REMARK    2  A    between atoms: C_4  and  C_5
REMARK    3  A    between atoms: N_16  and  C_17
REMARK    4  A    between atoms: C_17  and  C_18
REMARK    5  A    between atoms: C_18  and  N_19
REMARK    6  A    between atoms: N_19  and  C_20
REMARK    7  A    between atoms: N_19  and  C_21
REMARK                            x       y       z     vdW  Elec       q    Type
REMARK                         _______ _______ _______ _____ _____    ______ ____
ROOT
ATOM      1  C   UNL     1       2.434   7.262  19.502  0.00  0.00    +0.000 C 
ATOM      2  C   UNL     1       2.933   6.063  18.740  0.00  0.00    +0.000 A 
ATOM      3  C   UNL     1       2.211   4.866  18.820  0.00  0.00    +0.000 A 
ATOM      4  C   UNL     1       2.650   3.744  18.122  0.00  0.00    +0.000 A 
ATOM      5  N   UNL     1       3.754   3.791  17.329  0.00  0.00    +0.000 NA
ATOM      6  C   UNL     1       4.456   4.946  17.243  0.00  0.00    +0.000 A 
ATOM      7  C   UNL     1       4.096   6.101  17.951  0.00  0.00    +0.000 A 
ATOM      8  C   UNL     1       4.947   7.286  17.854  0.00  0.00    +0.000 A 
ATOM      9  C   UNL     1       6.066   7.243  17.132  0.00  0.00    +0.000 A 
ATOM     10  C   UNL     1       6.461   6.044  16.359  0.00  0.00    +0.000 A 
ATOM     11  O   UNL     1       7.517   6.084  15.732  0.00  0.00    +0.000 OA
ATOM     12  N   UNL     1       5.595   4.967  16.394  0.00  0.00    +0.000 N 
ENDROOT
BRANCH   4  13
ATOM     13  C   UNL     1       1.901   2.424  18.244  0.00  0.00    +0.000 C 
ATOM     14  F   UNL     1       2.238   1.713  19.361  0.00  0.00    +0.000 F 
ATOM     15  F   UNL     1       0.548   2.578  18.306  0.00  0.00    +0.000 F 
ATOM     16  F   UNL     1       2.137   1.582  17.197  0.00  0.00    +0.000 F 
ENDBRANCH   4  13
BRANCH  12  17
ATOM     17  C   UNL     1       5.858   3.792  15.549  0.00  0.00    +0.000 C 
BRANCH  17  18
ATOM     18  C   UNL     1       5.483   4.026  14.062  0.00  0.00    +0.000 C 
BRANCH  18  19
ATOM     19  N   UNL     1       6.416   3.474  13.053  0.00  0.00    +0.000 NA
ATOM     20  C   UNL     1       5.707   2.843  11.937  0.00  0.00    +0.000 C 
ATOM     21  C   UNL     1       7.262   4.558  12.537  0.00  0.00    +0.000 C 
ENDBRANCH  18  19
ENDBRANCH  17  18
ENDBRANCH  12  17
TORSDOF 4
ENDMDL
MODEL 3
REMARK VINA RESULT:      -6.6      2.485      4.856
REMARK  Name = 
REMARK  7 active torsions:
REMARK  status: ('A' for Active; 'I' for Inactive)
REMARK    1  A    between atoms: C_1  and  C_2
REMARK    2  A    between atoms: C_4  and  C_5
REMARK    3  A    between atoms: N_16  and  C_17
REMARK    4  A    between atoms: C_17  and  C_18
REMARK    5  A    between atoms: C_18  and  N_19
REMARK    6  A    between atoms: N_19  and  C_20
REMARK    7  A    between atoms: N_19  and  C_21
REMARK                            x       y       z     vdW  Elec       q    Type
REMARK                         _______ _______ _______ _____ _____    ______ ____
ROOT
ATOM      1  C   UNL     1       1.432   3.064  21.220  0.00  0.00    +0.000 C 
ATOM      2  C   UNL     1       1.869   4.294  20.472  0.00  0.00    +0.000 A 
ATOM      3  C   UNL     1       1.468   5.550  20.946  0.00  0.00    +0.000 A 
ATOM      4  C   UNL     1       1.861   6.703  20.273  0.00  0.00    +0.000 A 
ATOM      5  N   UNL     1       2.662   6.644  19.176  0.00  0.00    +0.000 NA
ATOM      6  C   UNL     1       3.058   5.434  18.712  0.00  0.00    +0.000 A 
ATOM      7  C   UNL     1       2.664   4.232  19.314  0.00  0.00    +0.000 A 
ATOM      8  C   UNL     1       3.081   2.967  18.710  0.00  0.00    +0.000 A 
ATOM      9  C   UNL     1       3.790   2.972  17.582  0.00  0.00    +0.000 A 
ATOM     10  C   UNL     1       4.236   4.226  16.934  0.00  0.00    +0.000 A 
ATOM     11  O   UNL     1       4.873   4.140  15.888  0.00  0.00    +0.000 OA
ATOM     12  N   UNL     1       3.906   5.407  17.572  0.00  0.00    +0.000 N 
ENDROOT
BRANCH   4  13
ATOM     13  C   UNL     1       1.387   8.069  20.752  0.00  0.00    +0.000 C 
ATOM     14  F   UNL     1       1.423   9.025  19.776  0.00  0.00    +0.000 F 
ATOM     15  F   UNL     1       0.102   8.063  21.208  0.00  0.00    +0.000 F 
ATOM     16  F   UNL     1       2.147   8.566  21.771  0.00  0.00    +0.000 F 
ENDBRANCH   4  13
BRANCH  12  17
ATOM     17  C   UNL     1       4.425   6.684  17.057  0.00  0.00    +0.000 C 
BRANCH  17  18
ATOM     18  C   UNL     1       5.950   6.643  16.779  0.00  0.00    +0.000 C 
BRANCH  18  19
ATOM     19  N   UNL     1       6.836   6.681  17.966  0.00  0.00    +0.000 NA
ATOM     20  C   UNL     1       7.542   5.412  18.165  0.00  0.00    +0.000 C 
ATOM     21  C   UNL     1       7.819   7.759  17.797  0.00  0.00    +0.000 C 
ENDBRANCH  18  19
ENDBRANCH  17  18
ENDBRANCH  12  17
TORSDOF 4
ENDMDL
MODEL 4
REMARK VINA RESULT:      -6.6      4.413      6.869
REMARK  Name = 
REMARK  7 active torsions:
REMARK  status: ('A' for Active; 'I' for Inactive)
REMARK    1  A    between atoms: C_1  and  C_2
REMARK    2  A    between atoms: C_4  and  C_5
REMARK    3  A    between atoms: N_16  and  C_17
REMARK    4  A    between atoms: C_17  and  C_18
REMARK    5  A    between atoms: C_18  and  N_19
REMARK    6  A    between atoms: N_19  and  C_20
REMARK    7  A    between atoms: N_19  and  C_21
REMARK                            x       y       z     vdW  Elec       q    Type
REMARK                         _______ _______ _______ _____ _____    ______ ____
ROOT
ATOM      1  C   UNL     1       3.337   1.922  18.147  0.00  0.00    +0.000 C 
ATOM      2  C   UNL     1       3.518   3.401  17.931  0.00  0.00    +0.000 A 
ATOM      3  C   UNL     1       4.338   3.833  16.881  0.00  0.00    +0.000 A 
ATOM      4  C   UNL     1       4.519   5.196  16.660  0.00  0.00    +0.000 A 
ATOM      5  N   UNL     1       3.887   6.127  17.422  0.00  0.00    +0.000 NA
ATOM      6  C   UNL     1       3.089   5.718  18.437  0.00  0.00    +0.000 A 
ATOM      7  C   UNL     1       2.896   4.365  18.745  0.00  0.00    +0.000 A 
ATOM      8  C   UNL     1       2.072   4.011  19.900  0.00  0.00    +0.000 A 
ATOM      9  C   UNL     1       1.552   4.971  20.663  0.00  0.00    +0.000 A 
ATOM     10  C   UNL     1       1.724   6.408  20.353  0.00  0.00    +0.000 A 
ATOM     11  O   UNL     1       1.224   7.227  21.119  0.00  0.00    +0.000 OA
ATOM     12  N   UNL     1       2.432   6.716  19.206  0.00  0.00    +0.000 N 
ENDROOT
BRANCH   4  13
ATOM     13  C   UNL     1       5.449   5.675  15.553  0.00  0.00    +0.000 C 
ATOM     14  F   UNL     1       5.556   4.790  14.517  0.00  0.00    +0.000 F 
ATOM     15  F   UNL     1       5.052   6.850  14.987  0.00  0.00    +0.000 F 
ATOM     16  F   UNL     1       6.728   5.877  15.985  0.00  0.00    +0.000 F 
ENDBRANCH   4  13
BRANCH  12  17
ATOM     17  C   UNL     1       2.532   8.116  18.766  0.00  0.00    +0.000 C 
BRANCH  17  18
ATOM     18  C   UNL     1       1.332   8.556  17.887  0.00  0.00    +0.000 C 
BRANCH  18  19
ATOM     19  N   UNL     1       0.792   9.912  18.143  0.00  0.00    +0.000 NA
ATOM     20  C   UNL     1      -0.638  10.000  17.836  0.00  0.00    +0.000 C 
ATOM     21  C   UNL     1       1.004  10.254  19.556  0.00  0.00    +0.000 C 
ENDBRANCH  18  19
ENDBRANCH  17  18
ENDBRANCH  12  17
TORSDOF 4
ENDMDL
MODEL 5
REMARK VINA RESULT:      -6.6      4.472      6.995
REMARK  Name = 
REMARK  7 active torsions:
REMARK  status: ('A' for Active; 'I' for Inactive)
REMARK    1  A    between atoms: C_1  and  C_2
REMARK    2  A    between atoms: C_4  and  C_5
REMARK    3  A    between atoms: N_16  and  C_17
REMARK    4  A    between atoms: C_17  and  C_18
REMARK    5  A    between atoms: C_18  and  N_19
REMARK    6  A    between atoms: N_19  and  C_20
REMARK    7  A    between atoms: N_19  and  C_21
REMARK                            x       y       z     vdW  Elec       q    Type
REMARK                         _______ _______ _______ _____ _____    ______ ____
ROOT
ATOM      1  C   UNL     1       3.206   1.982  18.276  0.00  0.00    +0.000 C 
ATOM      2  C   UNL     1       3.446   3.434  17.961  0.00  0.00    +0.000 A 
ATOM      3  C   UNL     1       4.256   3.762  16.867  0.00  0.00    +0.000 A 
ATOM      4  C   UNL     1       4.492   5.098  16.554  0.00  0.00    +0.000 A 
ATOM      5  N   UNL     1       3.921   6.104  17.269  0.00  0.00    +0.000 NA
ATOM      6  C   UNL     1       3.133   5.796  18.327  0.00  0.00    +0.000 A 
ATOM      7  C   UNL     1       2.888   4.475  18.725  0.00  0.00    +0.000 A 
ATOM      8  C   UNL     1       2.080   4.232  19.919  0.00  0.00    +0.000 A 
ATOM      9  C   UNL     1       1.623   5.261  20.632  0.00  0.00    +0.000 A 
ATOM     10  C   UNL     1       1.850   6.666  20.226  0.00  0.00    +0.000 A 
ATOM     11  O   UNL     1       1.407   7.554  20.949  0.00  0.00    +0.000 OA
ATOM     12  N   UNL     1       2.540   6.869  19.046  0.00  0.00    +0.000 N 
ENDROOT
BRANCH   4  13
ATOM     13  C   UNL     1       5.413   5.463  15.397  0.00  0.00    +0.000 C 
ATOM     14  F   UNL     1       5.114   6.670  14.830  0.00  0.00    +0.000 F 
ATOM     15  F   UNL     1       6.724   5.548  15.761  0.00  0.00    +0.000 F 
ATOM     16  F   UNL     1       5.362   4.562  14.374  0.00  0.00    +0.000 F 
ENDBRANCH   4  13
BRANCH  12  17
ATOM     17  C   UNL     1       2.690   8.233  18.514  0.00  0.00    +0.000 C 
BRANCH  17  18
ATOM     18  C   UNL     1       1.399   8.757  17.833  0.00  0.00    +0.000 C 
BRANCH  18  19
ATOM     19  N   UNL     1       0.619   9.764  18.589  0.00  0.00    +0.000 NA
ATOM     20  C   UNL     1       1.371  11.007  18.784  0.00  0.00    +0.000 C 
ATOM     21  C   UNL     1      -0.620  10.059  17.856  0.00  0.00    +0.000 C 
ENDBRANCH  18  19
ENDBRANCH  17  18
ENDBRANCH  12  17
TORSDOF 4
ENDMDL
MODEL 6
REMARK VINA RESULT:      -6.5      2.527      4.951
REMARK  Name = 
REMARK  7 active torsions:
REMARK  status: ('A' for Active; 'I' for Inactive)
REMARK    1  A    between atoms: C_1  and  C_2
REMARK    2  A    between atoms: C_4  and  C_5
REMARK    3  A    between atoms: N_16  and  C_17
REMARK    4  A    between atoms: C_17  and  C_18
REMARK    5  A    between atoms: C_18  and  N_19
REMARK    6  A    between atoms: N_19  and  C_20
REMARK    7  A    between atoms: N_19  and  C_21
REMARK                            x       y       z     vdW  Elec       q    Type
REMARK                         _______ _______ _______ _____ _____    ______ ____
ROOT
ATOM      1  C   UNL     1       1.562   2.979  21.260  0.00  0.00    +0.000 C 
ATOM      2  C   UNL     1       1.960   4.205  20.483  0.00  0.00    +0.000 A 
ATOM      3  C   UNL     1       1.533   5.459  20.937  0.00  0.00    +0.000 A 
ATOM      4  C   UNL     1       1.890   6.609  20.238  0.00  0.00    +0.000 A 
ATOM      5  N   UNL     1       2.680   6.548  19.133  0.00  0.00    +0.000 NA
ATOM      6  C   UNL     1       3.102   5.340  18.689  0.00  0.00    +0.000 A 
ATOM      7  C   UNL     1       2.745   4.140  19.318  0.00  0.00    +0.000 A 
ATOM      8  C   UNL     1       3.187   2.874  18.734  0.00  0.00    +0.000 A 
ATOM      9  C   UNL     1       3.884   2.875  17.599  0.00  0.00    +0.000 A 
ATOM     10  C   UNL     1       4.291   4.127  16.922  0.00  0.00    +0.000 A 
ATOM     11  O   UNL     1       4.919   4.036  15.870  0.00  0.00    +0.000 OA
ATOM     12  N   UNL     1       3.938   5.312  17.540  0.00  0.00    +0.000 N 
ENDROOT
BRANCH   4  13
ATOM     13  C   UNL     1       1.386   7.971  20.695  0.00  0.00    +0.000 C 
ATOM     14  F   UNL     1       0.106   7.942  21.171  0.00  0.00    +0.000 F 
ATOM     15  F   UNL     1       2.135   8.512  21.699  0.00  0.00    +0.000 F 
ATOM     16  F   UNL     1       1.376   8.896  19.692  0.00  0.00    +0.000 F 
ENDBRANCH   4  13
BRANCH  12  17
ATOM     17  C   UNL     1       4.419   6.591  16.995  0.00  0.00    +0.000 C 
BRANCH  17  18
ATOM     18  C   UNL     1       5.583   7.196  17.821  0.00  0.00    +0.000 C 
BRANCH  18  19
ATOM     19  N   UNL     1       6.952   6.935  17.318  0.00  0.00    +0.000 NA
ATOM     20  C   UNL     1       7.850   8.068  17.558  0.00  0.00    +0.000 C 
ATOM     21  C   UNL     1       7.490   5.743  17.986  0.00  0.00    +0.000 C 
ENDBRANCH  18  19
ENDBRANCH  17  18
ENDBRANCH  12  17
TORSDOF 4
ENDMDL
MODEL 7
REMARK VINA RESULT:      -6.4      3.137      5.188
REMARK  Name = 
REMARK  7 active torsions:
REMARK  status: ('A' for Active; 'I' for Inactive)
REMARK    1  A    between atoms: C_1  and  C_2
REMARK    2  A    between atoms: C_4  and  C_5
REMARK    3  A    between atoms: N_16  and  C_17
REMARK    4  A    between atoms: C_17  and  C_18
REMARK    5  A    between atoms: C_18  and  N_19
REMARK    6  A    between atoms: N_19  and  C_20
REMARK    7  A    between atoms: N_19  and  C_21
REMARK                            x       y       z     vdW  Elec       q    Type
REMARK                         _______ _______ _______ _____ _____    ______ ____
ROOT
ATOM      1  C   UNL     1       1.667   4.552  20.885  0.00  0.00    +0.000 C 
ATOM      2  C   UNL     1       2.226   5.393  19.769  0.00  0.00    +0.000 A 
ATOM      3  C   UNL     1       1.824   6.730  19.666  0.00  0.00    +0.000 A 
ATOM      4  C   UNL     1       2.329   7.530  18.644  0.00  0.00    +0.000 A 
ATOM      5  N   UNL     1       3.240   7.051  17.755  0.00  0.00    +0.000 NA
ATOM      6  C   UNL     1       3.638   5.759  17.850  0.00  0.00    +0.000 A 
ATOM      7  C   UNL     1       3.138   4.887  18.826  0.00  0.00    +0.000 A 
ATOM      8  C   UNL     1       3.571   3.490  18.816  0.00  0.00    +0.000 A 
ATOM      9  C   UNL     1       4.396   3.057  17.864  0.00  0.00    +0.000 A 
ATOM     10  C   UNL     1       4.954   3.959  16.832  0.00  0.00    +0.000 A 
ATOM     11  O   UNL     1       5.696   3.474  15.982  0.00  0.00    +0.000 OA
ATOM     12  N   UNL     1       4.602   5.293  16.915  0.00  0.00    +0.000 N 
ENDROOT
BRANCH   4  13
ATOM     13  C   UNL     1       1.858   8.970  18.493  0.00  0.00    +0.000 C 
ATOM     14  F   UNL     1       1.448   9.530  19.670  0.00  0.00    +0.000 F 
ATOM     15  F   UNL     1       2.822   9.804  18.010  0.00  0.00    +0.000 F 
ATOM     16  F   UNL     1       0.794   9.093  17.647  0.00  0.00    +0.000 F 
ENDBRANCH   4  13
BRANCH  12  17
ATOM     17  C   UNL     1       5.219   6.269  16.003  0.00  0.00    +0.000 C 
BRANCH  17  18
ATOM     18  C   UNL     1       6.704   6.557  16.349  0.00  0.00    +0.000 C 
BRANCH  18  19
ATOM     19  N   UNL     1       6.976   7.050  17.719  0.00  0.00    +0.000 NA
ATOM     20  C   UNL     1       7.643   6.038  18.544  0.00  0.00    +0.000 C 
ATOM     21  C   UNL     1       7.827   8.244  17.638  0.00  0.00    +0.000 C 
ENDBRANCH  18  19
ENDBRANCH  17  18
ENDBRANCH  12  17
TORSDOF 4
ENDMDL
MODEL 8
REMARK VINA RESULT:      -6.4      0.897      1.243
REMARK  Name = 
REMARK  7 active torsions:
REMARK  status: ('A' for Active; 'I' for Inactive)
REMARK    1  A    between atoms: C_1  and  C_2
REMARK    2  A    between atoms: C_4  and  C_5
REMARK    3  A    between atoms: N_16  and  C_17
REMARK    4  A    between atoms: C_17  and  C_18
REMARK    5  A    between atoms: C_18  and  N_19
REMARK    6  A    between atoms: N_19  and  C_20
REMARK    7  A    between atoms: N_19  and  C_21
REMARK                            x       y       z     vdW  Elec       q    Type
REMARK                         _______ _______ _______ _____ _____    ______ ____
ROOT
ATOM      1  C   UNL     1       0.584  11.425  18.399  0.00  0.00    +0.000 C 
ATOM      2  C   UNL     1       0.767  10.311  19.395  0.00  0.00    +0.000 A 
ATOM      3  C   UNL     1       0.204  10.448  20.670  0.00  0.00    +0.000 A 
ATOM      4  C   UNL     1       0.356   9.430  21.608  0.00  0.00    +0.000 A 
ATOM      5  N   UNL     1       1.015   8.280  21.303  0.00  0.00    +0.000 NA
ATOM      6  C   UNL     1       1.559   8.138  20.071  0.00  0.00    +0.000 A 
ATOM      7  C   UNL     1       1.482   9.138  19.093  0.00  0.00    +0.000 A 
ATOM      8  C   UNL     1       2.155   8.931  17.812  0.00  0.00    +0.000 A 
ATOM      9  C   UNL     1       2.861   7.821  17.605  0.00  0.00    +0.000 A 
ATOM     10  C   UNL     1       2.946   6.739  18.612  0.00  0.00    +0.000 A 
ATOM     11  O   UNL     1       3.632   5.756  18.346  0.00  0.00    +0.000 OA
ATOM     12  N   UNL     1       2.228   6.918  19.780  0.00  0.00    +0.000 N 
ENDROOT
BRANCH   4  13
ATOM     13  C   UNL     1      -0.208   9.593  23.013  0.00  0.00    +0.000 C 
ATOM     14  F   UNL     1       0.712   9.357  23.995  0.00  0.00    +0.000 F 
ATOM     15  F   UNL     1      -0.688  10.845  23.258  0.00  0.00    +0.000 F 
ATOM     16  F   UNL     1      -1.238   8.736  23.272  0.00  0.00    +0.000 F 
ENDBRANCH   4  13
BRANCH  12  17
ATOM     17  C   UNL     1       2.161   5.831  20.769  0.00  0.00    +0.000 C 
BRANCH  17  18
ATOM     18  C   UNL     1       1.155   4.720  20.371  0.00  0.00    +0.000 C 
BRANCH  18  19
ATOM     19  N   UNL     1       1.701   3.347  20.261  0.00  0.00    +0.000 NA
ATOM     20  C   UNL     1       1.592   2.610  21.522  0.00  0.00    +0.000 C 
ATOM     21  C   UNL     1       0.969   2.622  19.213  0.00  0.00    +0.000 C 
ENDBRANCH  18  19
ENDBRANCH  17  18
ENDBRANCH  12  17
TORSDOF 4
ENDMDL
MODEL 9
REMARK VINA RESULT:      -6.3      4.290      6.482
REMARK  Name = 
REMARK  7 active torsions:
REMARK  status: ('A' for Active; 'I' for Inactive)
REMARK    1  A    between atoms: C_1  and  C_2
REMARK    2  A    between atoms: C_4  and  C_5
REMARK    3  A    between atoms: N_16  and  C_17
REMARK    4  A    between atoms: C_17  and  C_18
REMARK    5  A    between atoms: C_18  and  N_19
REMARK    6  A    between atoms: N_19  and  C_20
REMARK    7  A    between atoms: N_19  and  C_21
REMARK                            x       y       z     vdW  Elec       q    Type
REMARK                         _______ _______ _______ _____ _____    ______ ____
ROOT
ATOM      1  C   UNL     1       6.024   3.614  14.878  0.00  0.00    +0.000 C 
ATOM      2  C   UNL     1       5.748   4.581  15.998  0.00  0.00    +0.000 A 
ATOM      3  C   UNL     1       6.689   5.581  16.273  0.00  0.00    +0.000 A 
ATOM      4  C   UNL     1       6.454   6.489  17.302  0.00  0.00    +0.000 A 
ATOM      5  N   UNL     1       5.308   6.452  18.031  0.00  0.00    +0.000 NA
ATOM      6  C   UNL     1       4.390   5.490  17.770  0.00  0.00    +0.000 A 
ATOM      7  C   UNL     1       4.580   4.518  16.779  0.00  0.00    +0.000 A 
ATOM      8  C   UNL     1       3.570   3.475  16.606  0.00  0.00    +0.000 A 
ATOM      9  C   UNL     1       2.510   3.438  17.412  0.00  0.00    +0.000 A 
ATOM     10  C   UNL     1       2.274   4.461  18.455  0.00  0.00    +0.000 A 
ATOM     11  O   UNL     1       1.279   4.342  19.166  0.00  0.00    +0.000 OA
ATOM     12  N   UNL     1       3.196   5.487  18.540  0.00  0.00    +0.000 N 
ENDROOT
BRANCH   4  13
ATOM     13  C   UNL     1       7.496   7.548  17.642  0.00  0.00    +0.000 C 
ATOM     14  F   UNL     1       8.397   7.760  16.637  0.00  0.00    +0.000 F 
ATOM     15  F   UNL     1       6.953   8.770  17.907  0.00  0.00    +0.000 F 
ATOM     16  F   UNL     1       8.245   7.222  18.735  0.00  0.00    +0.000 F 
ENDBRANCH   4  13
BRANCH  12  17
ATOM     17  C   UNL     1       2.958   6.607  19.465  0.00  0.00    +0.000 C 
BRANCH  17  18
ATOM     18  C   UNL     1       2.196   7.783  18.799  0.00  0.00    +0.000 C 
BRANCH  18  19
ATOM     19  N   UNL     1       1.730   8.860  19.703  0.00  0.00    +0.000 NA
ATOM     20  C   UNL     1       0.697   9.691  19.080  0.00  0.00    +0.000 C 
ATOM     21  C   UNL     1       1.190   8.257  20.929  0.00  0.00    +0.000 C 
ENDBRANCH  18  19
ENDBRANCH  17  18
ENDBRANCH  12  17
TORSDOF 4
ENDMDL
