MODEL 1
REMARK VINA RESULT:      -7.0      0.000      0.000
REMARK  Name = 
REMARK  16 active torsions:
REMARK  status: ('A' for Active; 'I' for Inactive)
REMARK    1  A    between atoms: C_1  and  C_2
REMARK    2  A    between atoms: C_2  and  C_3
REMARK    3  A    between atoms: C_3  and  C_4
REMARK    4  A    between atoms: C_4  and  C_5
REMARK    5  A    between atoms: C_5  and  C_6
REMARK    6  A    between atoms: C_6  and  C_7
REMARK    7  A    between atoms: C_7  and  C_8
REMARK    8  A    between atoms: C_8  and  C_9
REMARK    9  A    between atoms: C_9  and  C_10
REMARK   10  A    between atoms: C_10  and  C_11
REMARK   11  A    between atoms: C_11  and  C_12
REMARK   12  A    between atoms: C_12  and  N_13
REMARK   13  A    between atoms: C_14  and  C_16
REMARK   14  A    between atoms: C_19  and  C_20
REMARK   15  A    between atoms: C_23  and  N_24
REMARK   16  A    between atoms: C_25  and  C_26
REMARK                            x       y       z     vdW  Elec       q    Type
REMARK                         _______ _______ _______ _____ _____    ______ ____
ROOT
ATOM      1  C   UNL     1       4.268   3.568  19.064  0.00  0.00    +0.000 C 
ATOM      2  C   UNL     1       3.581   3.454  17.702  0.00  0.00    +0.000 C 
ATOM      3  S   UNL     1       1.821   3.554  18.058  0.00  0.00    +0.000 S 
ATOM      4  C   UNL     1       2.091   4.491  19.568  0.00  0.00    +0.000 C 
ATOM      5  N   UNL     1       3.333   3.982  20.162  0.00  0.00    +0.000 NA
ATOM      6  H   UNL     1       3.061   3.108  20.620  0.00  0.00    +0.000 HD
ENDROOT
BRANCH   4   7
ATOM      7  C   UNL     1       2.076   6.011  19.480  0.00  0.00    +0.000 A 
ATOM      8  C   UNL     1       2.331   6.733  18.309  0.00  0.00    +0.000 A 
ATOM      9  C   UNL     1       2.128   8.121  18.252  0.00  0.00    +0.000 A 
ATOM     10  C   UNL     1       1.664   8.830  19.361  0.00  0.00    +0.000 A 
ATOM     11  C   UNL     1       1.505   8.137  20.564  0.00  0.00    +0.000 A 
ATOM     12  C   UNL     1       1.700   6.749  20.619  0.00  0.00    +0.000 A 
BRANCH  10  13
ATOM     13  N   UNL     1       1.294  10.196  19.324  0.00  0.00    +0.000 N 
ATOM     14  C   UNL     1       0.143  10.722  18.762  0.00  0.00    +0.000 C 
ATOM     15  C   UNL     1      -0.035  12.202  18.999  0.00  0.00    +0.000 C 
ATOM     16  O   UNL     1      -0.697  10.112  18.105  0.00  0.00    +0.000 OA
ATOM     17  H   UNL     1       1.886  10.831  19.845  0.00  0.00    +0.000 HD
ENDBRANCH  10  13
ENDBRANCH   4   7
BRANCH   1  19
ATOM     18  N   UNL     1       6.418   4.153  17.988  0.00  0.00    +0.000 N 
ATOM     19  C   UNL     1       5.482   4.492  18.935  0.00  0.00    +0.000 C 
ATOM     20  O   UNL     1       5.591   5.500  19.641  0.00  0.00    +0.000 OA
ATOM     21  H   UNL     1       6.250   3.298  17.470  0.00  0.00    +0.000 HD
BRANCH  18  22
ATOM     22  C   UNL     1       7.551   5.006  17.721  0.00  0.00    +0.000 C 
BRANCH  22  23
ATOM     23  C   UNL     1       7.308   6.021  16.614  0.00  0.00    +0.000 C 
BRANCH  23  24
ATOM     24  C   UNL     1       7.017   7.417  17.161  0.00  0.00    +0.000 C 
BRANCH  24  25
ATOM     25  C   UNL     1       8.156   7.895  18.053  0.00  0.00    +0.000 C 
BRANCH  25  26
ATOM     26  C   UNL     1       8.140   9.413  18.186  0.00  0.00    +0.000 C 
BRANCH  26  27
ATOM     27  C   UNL     1       9.130   9.862  19.254  0.00  0.00    +0.000 C 
BRANCH  27  28
ATOM     28  C   UNL     1      10.043  10.960  18.725  0.00  0.00    +0.000 C 
BRANCH  28  29
ATOM     29  C   UNL     1       9.283  11.868  17.765  0.00  0.00    +0.000 C 
BRANCH  29  30
ATOM     30  C   UNL     1       9.426  13.330  18.174  0.00  0.00    +0.000 C 
BRANCH  30  31
ATOM     31  C   UNL     1       8.133  13.842  18.800  0.00  0.00    +0.000 C 
BRANCH  31  33
ATOM     32  C   UNL     1       6.130  15.243  18.233  0.00  0.00    +0.000 C 
ATOM     33  C   UNL     1       7.104  14.191  17.729  0.00  0.00    +0.000 C 
ENDBRANCH  31  33
ENDBRANCH  30  31
ENDBRANCH  29  30
ENDBRANCH  28  29
ENDBRANCH  27  28
ENDBRANCH  26  27
ENDBRANCH  25  26
ENDBRANCH  24  25
ENDBRANCH  23  24
ENDBRANCH  22  23
ENDBRANCH  18  22
ENDBRANCH   1  19
TORSDOF 14
ENDMDL
MODEL 2
REMARK VINA RESULT:      -6.7      1.663      2.403
REMARK  Name = 
REMARK  16 active torsions:
REMARK  status: ('A' for Active; 'I' for Inactive)
REMARK    1  A    between atoms: C_1  and  C_2
REMARK    2  A    between atoms: C_2  and  C_3
REMARK    3  A    between atoms: C_3  and  C_4
REMARK    4  A    between atoms: C_4  and  C_5
REMARK    5  A    between atoms: C_5  and  C_6
REMARK    6  A    between atoms: C_6  and  C_7
REMARK    7  A    between atoms: C_7  and  C_8
REMARK    8  A    between atoms: C_8  and  C_9
REMARK    9  A    between atoms: C_9  and  C_10
REMARK   10  A    between atoms: C_10  and  C_11
REMARK   11  A    between atoms: C_11  and  C_12
REMARK   12  A    between atoms: C_12  and  N_13
REMARK   13  A    between atoms: C_14  and  C_16
REMARK   14  A    between atoms: C_19  and  C_20
REMARK   15  A    between atoms: C_23  and  N_24
REMARK   16  A    between atoms: C_25  and  C_26
REMARK                            x       y       z     vdW  Elec       q    Type
REMARK                         _______ _______ _______ _____ _____    ______ ____
ROOT
ATOM      1  C   UNL     1       3.300   2.479  19.341  0.00  0.00    +0.000 C 
ATOM      2  C   UNL     1       2.362   2.383  18.137  0.00  0.00    +0.000 C 
ATOM      3  S   UNL     1       0.758   2.914  18.754  0.00  0.00    +0.000 S 
ATOM      4  C   UNL     1       1.492   3.916  20.054  0.00  0.00    +0.000 C 
ATOM      5  N   UNL     1       2.692   3.203  20.506  0.00  0.00    +0.000 NA
ATOM      6  H   UNL     1       2.338   2.465  21.120  0.00  0.00    +0.000 HD
ENDROOT
BRANCH   4   7
ATOM      7  C   UNL     1       1.771   5.383  19.756  0.00  0.00    +0.000 A 
ATOM      8  C   UNL     1       2.166   5.870  18.505  0.00  0.00    +0.000 A 
ATOM      9  C   UNL     1       2.235   7.249  18.251  0.00  0.00    +0.000 A 
ATOM     10  C   UNL     1       1.912   8.182  19.236  0.00  0.00    +0.000 A 
ATOM     11  C   UNL     1       1.617   7.710  20.518  0.00  0.00    +0.000 A 
ATOM     12  C   UNL     1       1.539   6.333  20.770  0.00  0.00    +0.000 A 
BRANCH  10  13
ATOM     13  N   UNL     1       1.813   9.575  18.999  0.00  0.00    +0.000 N 
ATOM     14  C   UNL     1       0.651  10.287  18.753  0.00  0.00    +0.000 C 
ATOM     15  C   UNL     1       0.853  11.781  18.672  0.00  0.00    +0.000 C 
ATOM     16  O   UNL     1      -0.473   9.821  18.588  0.00  0.00    +0.000 OA
ATOM     17  H   UNL     1       2.666  10.108  19.119  0.00  0.00    +0.000 HD
ENDBRANCH  10  13
ENDBRANCH   4   7
BRANCH   1  19
ATOM     18  N   UNL     1       4.833   3.193  17.535  0.00  0.00    +0.000 N 
ATOM     19  C   UNL     1       4.631   3.086  18.890  0.00  0.00    +0.000 C 
ATOM     20  O   UNL     1       5.464   3.473  19.715  0.00  0.00    +0.000 OA
ATOM     21  H   UNL     1       4.099   2.831  16.937  0.00  0.00    +0.000 HD
BRANCH  18  22
ATOM     22  C   UNL     1       6.011   3.837  17.005  0.00  0.00    +0.000 C 
BRANCH  22  23
ATOM     23  C   UNL     1       5.901   4.204  15.533  0.00  0.00    +0.000 C 
BRANCH  23  24
ATOM     24  C   UNL     1       6.064   5.704  15.296  0.00  0.00    +0.000 C 
BRANCH  24  25
ATOM     25  C   UNL     1       5.161   6.499  16.231  0.00  0.00    +0.000 C 
BRANCH  25  26
ATOM     26  C   UNL     1       5.961   7.091  17.384  0.00  0.00    +0.000 C 
BRANCH  26  27
ATOM     27  C   UNL     1       7.418   7.276  16.979  0.00  0.00    +0.000 C 
BRANCH  27  28
ATOM     28  C   UNL     1       8.199   8.003  18.066  0.00  0.00    +0.000 C 
BRANCH  28  29
ATOM     29  C   UNL     1       7.996   9.510  17.951  0.00  0.00    +0.000 C 
BRANCH  29  30
ATOM     30  C   UNL     1       9.285  10.257  18.277  0.00  0.00    +0.000 C 
BRANCH  30  31
ATOM     31  C   UNL     1       9.361  10.572  19.767  0.00  0.00    +0.000 C 
BRANCH  31  33
ATOM     32  C   UNL     1      10.014  12.977  20.066  0.00  0.00    +0.000 C 
ATOM     33  C   UNL     1      10.503  11.539  20.067  0.00  0.00    +0.000 C 
ENDBRANCH  31  33
ENDBRANCH  30  31
ENDBRANCH  29  30
ENDBRANCH  28  29
ENDBRANCH  27  28
ENDBRANCH  26  27
ENDBRANCH  25  26
ENDBRANCH  24  25
ENDBRANCH  23  24
ENDBRANCH  22  23
ENDBRANCH  18  22
ENDBRANCH   1  19
TORSDOF 14
ENDMDL
MODEL 3
REMARK VINA RESULT:      -6.7      4.018      7.361
REMARK  Name = 
REMARK  16 active torsions:
REMARK  status: ('A' for Active; 'I' for Inactive)
REMARK    1  A    between atoms: C_1  and  C_2
REMARK    2  A    between atoms: C_2  and  C_3
REMARK    3  A    between atoms: C_3  and  C_4
REMARK    4  A    between atoms: C_4  and  C_5
REMARK    5  A    between atoms: C_5  and  C_6
REMARK    6  A    between atoms: C_6  and  C_7
REMARK    7  A    between atoms: C_7  and  C_8
REMARK    8  A    between atoms: C_8  and  C_9
REMARK    9  A    between atoms: C_9  and  C_10
REMARK   10  A    between atoms: C_10  and  C_11
REMARK   11  A    between atoms: C_11  and  C_12
REMARK   12  A    between atoms: C_12  and  N_13
REMARK   13  A    between atoms: C_14  and  C_16
REMARK   14  A    between atoms: C_19  and  C_20
REMARK   15  A    between atoms: C_23  and  N_24
REMARK   16  A    between atoms: C_25  and  C_26
REMARK                            x       y       z     vdW  Elec       q    Type
REMARK                         _______ _______ _______ _____ _____    ______ ____
ROOT
ATOM      1  C   UNL     1       1.208   9.561  21.870  0.00  0.00    +0.000 C 
ATOM      2  C   UNL     1      -0.098   9.204  22.581  0.00  0.00    +0.000 C 
ATOM      3  S   UNL     1      -0.960  10.769  22.785  0.00  0.00    +0.000 S 
ATOM      4  C   UNL     1      -0.135  11.508  21.368  0.00  0.00    +0.000 C 
ATOM      5  N   UNL     1       1.230  10.968  21.350  0.00  0.00    +0.000 NA
ATOM      6  H   UNL     1       1.730  11.504  22.063  0.00  0.00    +0.000 HD
ENDROOT
BRANCH   4   7
ATOM      7  C   UNL     1      -0.813  11.404  20.010  0.00  0.00    +0.000 A 
ATOM      8  C   UNL     1      -0.704  12.366  19.000  0.00  0.00    +0.000 A 
ATOM      9  C   UNL     1      -1.207  12.129  17.712  0.00  0.00    +0.000 A 
ATOM     10  C   UNL     1      -1.833  10.924  17.391  0.00  0.00    +0.000 A 
ATOM     11  C   UNL     1      -2.040   9.997  18.416  0.00  0.00    +0.000 A 
ATOM     12  C   UNL     1      -1.530  10.231  19.702  0.00  0.00    +0.000 A 
BRANCH  10  13
ATOM     13  N   UNL     1      -2.221  10.563  16.078  0.00  0.00    +0.000 N 
ATOM     14  C   UNL     1      -3.497  10.647  15.545  0.00  0.00    +0.000 C 
ATOM     15  C   UNL     1      -3.570  10.314  14.074  0.00  0.00    +0.000 C 
ATOM     16  O   UNL     1      -4.526  10.941  16.148  0.00  0.00    +0.000 OA
ATOM     17  H   UNL     1      -1.471  10.313  15.445  0.00  0.00    +0.000 HD
ENDBRANCH  10  13
ENDBRANCH   4   7
BRANCH   1  19
ATOM     18  N   UNL     1       1.817   7.255  21.208  0.00  0.00    +0.000 N 
ATOM     19  C   UNL     1       1.485   8.518  20.783  0.00  0.00    +0.000 C 
ATOM     20  O   UNL     1       1.391   8.810  19.586  0.00  0.00    +0.000 OA
ATOM     21  H   UNL     1       1.887   7.118  22.210  0.00  0.00    +0.000 HD
BRANCH  18  22
ATOM     22  C   UNL     1       2.005   6.177  20.268  0.00  0.00    +0.000 C 
BRANCH  22  23
ATOM     23  C   UNL     1       1.172   4.942  20.575  0.00  0.00    +0.000 C 
BRANCH  23  24
ATOM     24  C   UNL     1       2.026   3.771  21.057  0.00  0.00    +0.000 C 
BRANCH  24  25
ATOM     25  C   UNL     1       1.848   2.562  20.145  0.00  0.00    +0.000 C 
BRANCH  25  26
ATOM     26  C   UNL     1       1.009   2.922  18.925  0.00  0.00    +0.000 C 
BRANCH  26  27
ATOM     27  C   UNL     1       1.910   3.261  17.743  0.00  0.00    +0.000 C 
BRANCH  27  28
ATOM     28  C   UNL     1       3.223   2.494  17.821  0.00  0.00    +0.000 C 
BRANCH  28  29
ATOM     29  C   UNL     1       4.387   3.452  18.045  0.00  0.00    +0.000 C 
BRANCH  29  30
ATOM     30  C   UNL     1       4.172   4.755  17.283  0.00  0.00    +0.000 C 
BRANCH  30  31
ATOM     31  C   UNL     1       4.957   5.892  17.930  0.00  0.00    +0.000 C 
BRANCH  31  33
ATOM     32  C   UNL     1       7.032   7.185  17.369  0.00  0.00    +0.000 C 
ATOM     33  C   UNL     1       5.666   6.740  16.878  0.00  0.00    +0.000 C 
ENDBRANCH  31  33
ENDBRANCH  30  31
ENDBRANCH  29  30
ENDBRANCH  28  29
ENDBRANCH  27  28
ENDBRANCH  26  27
ENDBRANCH  25  26
ENDBRANCH  24  25
ENDBRANCH  23  24
ENDBRANCH  22  23
ENDBRANCH  18  22
ENDBRANCH   1  19
TORSDOF 14
ENDMDL
MODEL 4
REMARK VINA RESULT:      -6.6      1.671      1.880
REMARK  Name = 
REMARK  16 active torsions:
REMARK  status: ('A' for Active; 'I' for Inactive)
REMARK    1  A    between atoms: C_1  and  C_2
REMARK    2  A    between atoms: C_2  and  C_3
REMARK    3  A    between atoms: C_3  and  C_4
REMARK    4  A    between atoms: C_4  and  C_5
REMARK    5  A    between atoms: C_5  and  C_6
REMARK    6  A    between atoms: C_6  and  C_7
REMARK    7  A    between atoms: C_7  and  C_8
REMARK    8  A    between atoms: C_8  and  C_9
REMARK    9  A    between atoms: C_9  and  C_10
REMARK   10  A    between atoms: C_10  and  C_11
REMARK   11  A    between atoms: C_11  and  C_12
REMARK   12  A    between atoms: C_12  and  N_13
REMARK   13  A    between atoms: C_14  and  C_16
REMARK   14  A    between atoms: C_19  and  C_20
REMARK   15  A    between atoms: C_23  and  N_24
REMARK   16  A    between atoms: C_25  and  C_26
REMARK                            x       y       z     vdW  Elec       q    Type
REMARK                         _______ _______ _______ _____ _____    ______ ____
ROOT
ATOM      1  C   UNL     1       4.598   3.286  18.995  0.00  0.00    +0.000 C 
ATOM      2  C   UNL     1       4.097   3.264  17.550  0.00  0.00    +0.000 C 
ATOM      3  S   UNL     1       2.303   3.252  17.681  0.00  0.00    +0.000 S 
ATOM      4  C   UNL     1       2.327   4.061  19.286  0.00  0.00    +0.000 C 
ATOM      5  N   UNL     1       3.511   3.556  19.992  0.00  0.00    +0.000 NA
ATOM      6  H   UNL     1       3.233   2.633  20.336  0.00  0.00    +0.000 HD
ENDROOT
BRANCH   4   7
ATOM      7  C   UNL     1       2.238   5.580  19.324  0.00  0.00    +0.000 A 
ATOM      8  C   UNL     1       2.389   6.405  18.204  0.00  0.00    +0.000 A 
ATOM      9  C   UNL     1       2.121   7.781  18.273  0.00  0.00    +0.000 A 
ATOM     10  C   UNL     1       1.693   8.375  19.460  0.00  0.00    +0.000 A 
ATOM     11  C   UNL     1       1.638   7.582  20.610  0.00  0.00    +0.000 A 
ATOM     12  C   UNL     1       1.898   6.205  20.539  0.00  0.00    +0.000 A 
BRANCH  10  13
ATOM     13  N   UNL     1       1.259   9.720  19.557  0.00  0.00    +0.000 N 
ATOM     14  C   UNL     1       0.202  10.191  20.316  0.00  0.00    +0.000 C 
ATOM     15  C   UNL     1       0.070  11.695  20.318  0.00  0.00    +0.000 C 
ATOM     16  O   UNL     1      -0.608   9.514  20.945  0.00  0.00    +0.000 OA
ATOM     17  H   UNL     1       1.845  10.409  19.100  0.00  0.00    +0.000 HD
ENDBRANCH  10  13
ENDBRANCH   4   7
BRANCH   1  19
ATOM     18  N   UNL     1       6.488   4.501  17.956  0.00  0.00    +0.000 N 
ATOM     19  C   UNL     1       5.766   4.271  19.102  0.00  0.00    +0.000 C 
ATOM     20  O   UNL     1       6.021   4.838  20.170  0.00  0.00    +0.000 OA
ATOM     21  H   UNL     1       6.214   3.974  17.135  0.00  0.00    +0.000 HD
BRANCH  18  22
ATOM     22  C   UNL     1       7.547   5.481  17.926  0.00  0.00    +0.000 C 
BRANCH  22  23
ATOM     23  C   UNL     1       7.336   6.582  16.898  0.00  0.00    +0.000 C 
BRANCH  23  24
ATOM     24  C   UNL     1       7.154   7.953  17.546  0.00  0.00    +0.000 C 
BRANCH  24  25
ATOM     25  C   UNL     1       8.375   8.321  18.381  0.00  0.00    +0.000 C 
BRANCH  25  26
ATOM     26  C   UNL     1       8.717   9.797  18.220  0.00  0.00    +0.000 C 
BRANCH  26  27
ATOM     27  C   UNL     1       9.428  10.315  19.464  0.00  0.00    +0.000 C 
BRANCH  27  28
ATOM     28  C   UNL     1      10.119  11.643  19.183  0.00  0.00    +0.000 C 
BRANCH  28  29
ATOM     29  C   UNL     1      10.864  11.587  17.854  0.00  0.00    +0.000 C 
BRANCH  29  30
ATOM     30  C   UNL     1      11.820  12.766  17.717  0.00  0.00    +0.000 C 
BRANCH  30  31
ATOM     31  C   UNL     1      12.291  13.238  19.089  0.00  0.00    +0.000 C 
BRANCH  31  33
ATOM     32  C   UNL     1      11.237  15.183  20.273  0.00  0.00    +0.000 C 
ATOM     33  C   UNL     1      12.225  14.759  19.200  0.00  0.00    +0.000 C 
ENDBRANCH  31  33
ENDBRANCH  30  31
ENDBRANCH  29  30
ENDBRANCH  28  29
ENDBRANCH  27  28
ENDBRANCH  26  27
ENDBRANCH  25  26
ENDBRANCH  24  25
ENDBRANCH  23  24
ENDBRANCH  22  23
ENDBRANCH  18  22
ENDBRANCH   1  19
TORSDOF 14
ENDMDL
MODEL 5
REMARK VINA RESULT:      -6.6      3.314      5.459
REMARK  Name = 
REMARK  16 active torsions:
REMARK  status: ('A' for Active; 'I' for Inactive)
REMARK    1  A    between atoms: C_1  and  C_2
REMARK    2  A    between atoms: C_2  and  C_3
REMARK    3  A    between atoms: C_3  and  C_4
REMARK    4  A    between atoms: C_4  and  C_5
REMARK    5  A    between atoms: C_5  and  C_6
REMARK    6  A    between atoms: C_6  and  C_7
REMARK    7  A    between atoms: C_7  and  C_8
REMARK    8  A    between atoms: C_8  and  C_9
REMARK    9  A    between atoms: C_9  and  C_10
REMARK   10  A    between atoms: C_10  and  C_11
REMARK   11  A    between atoms: C_11  and  C_12
REMARK   12  A    between atoms: C_12  and  N_13
REMARK   13  A    between atoms: C_14  and  C_16
REMARK   14  A    between atoms: C_19  and  C_20
REMARK   15  A    between atoms: C_23  and  N_24
REMARK   16  A    between atoms: C_25  and  C_26
REMARK                            x       y       z     vdW  Elec       q    Type
REMARK                         _______ _______ _______ _____ _____    ______ ____
ROOT
ATOM      1  C   UNL     1       3.510   1.890  19.131  0.00  0.00    +0.000 C 
ATOM      2  C   UNL     1       3.497   2.135  17.622  0.00  0.00    +0.000 C 
ATOM      3  S   UNL     1       1.811   2.636  17.247  0.00  0.00    +0.000 S 
ATOM      4  C   UNL     1       1.536   3.267  18.908  0.00  0.00    +0.000 C 
ATOM      5  N   UNL     1       2.271   2.382  19.819  0.00  0.00    +0.000 NA
ATOM      6  H   UNL     1       1.676   1.555  19.913  0.00  0.00    +0.000 HD
ENDROOT
BRANCH   4   7
ATOM      7  C   UNL     1       1.827   4.737  19.173  0.00  0.00    +0.000 A 
ATOM      8  C   UNL     1       2.331   5.624  18.215  0.00  0.00    +0.000 A 
ATOM      9  C   UNL     1       2.410   7.002  18.471  0.00  0.00    +0.000 A 
ATOM     10  C   UNL     1       1.988   7.537  19.688  0.00  0.00    +0.000 A 
ATOM     11  C   UNL     1       1.580   6.650  20.689  0.00  0.00    +0.000 A 
ATOM     12  C   UNL     1       1.493   5.274  20.432  0.00  0.00    +0.000 A 
BRANCH  10  13
ATOM     13  N   UNL     1       1.898   8.925  19.950  0.00  0.00    +0.000 N 
ATOM     14  C   UNL     1       1.095   9.837  19.286  0.00  0.00    +0.000 C 
ATOM     15  C   UNL     1       1.118  11.224  19.882  0.00  0.00    +0.000 C 
ATOM     16  O   UNL     1       0.411   9.622  18.288  0.00  0.00    +0.000 OA
ATOM     17  H   UNL     1       2.398   9.257  20.765  0.00  0.00    +0.000 HD
ENDBRANCH  10  13
ENDBRANCH   4   7
BRANCH   1  19
ATOM     18  N   UNL     1       5.287   3.612  19.119  0.00  0.00    +0.000 N 
ATOM     19  C   UNL     1       4.795   2.479  19.721  0.00  0.00    +0.000 C 
ATOM     20  O   UNL     1       5.339   1.961  20.701  0.00  0.00    +0.000 OA
ATOM     21  H   UNL     1       4.781   3.952  18.310  0.00  0.00    +0.000 HD
BRANCH  18  22
ATOM     22  C   UNL     1       6.437   4.300  19.654  0.00  0.00    +0.000 C 
BRANCH  22  23
ATOM     23  C   UNL     1       6.495   5.775  19.289  0.00  0.00    +0.000 C 
BRANCH  23  24
ATOM     24  C   UNL     1       7.672   6.099  18.370  0.00  0.00    +0.000 C 
BRANCH  24  25
ATOM     25  C   UNL     1       7.189   6.775  17.092  0.00  0.00    +0.000 C 
BRANCH  25  26
ATOM     26  C   UNL     1       5.668   6.860  17.065  0.00  0.00    +0.000 C 
BRANCH  26  27
ATOM     27  C   UNL     1       5.136   6.399  15.713  0.00  0.00    +0.000 C 
BRANCH  27  28
ATOM     28  C   UNL     1       5.177   4.880  15.601  0.00  0.00    +0.000 C 
BRANCH  28  29
ATOM     29  C   UNL     1       6.547   4.418  15.119  0.00  0.00    +0.000 C 
BRANCH  29  30
ATOM     30  C   UNL     1       6.552   4.216  13.608  0.00  0.00    +0.000 C 
BRANCH  30  31
ATOM     31  C   UNL     1       5.398   3.314  13.183  0.00  0.00    +0.000 C 
BRANCH  31  33
ATOM     32  C   UNL     1       3.993   3.201  11.107  0.00  0.00    +0.000 C 
ATOM     33  C   UNL     1       5.398   3.095  11.673  0.00  0.00    +0.000 C 
ENDBRANCH  31  33
ENDBRANCH  30  31
ENDBRANCH  29  30
ENDBRANCH  28  29
ENDBRANCH  27  28
ENDBRANCH  26  27
ENDBRANCH  25  26
ENDBRANCH  24  25
ENDBRANCH  23  24
ENDBRANCH  22  23
ENDBRANCH  18  22
ENDBRANCH   1  19
TORSDOF 14
ENDMDL
MODEL 6
REMARK VINA RESULT:      -6.5      3.506      6.296
REMARK  Name = 
REMARK  16 active torsions:
REMARK  status: ('A' for Active; 'I' for Inactive)
REMARK    1  A    between atoms: C_1  and  C_2
REMARK    2  A    between atoms: C_2  and  C_3
REMARK    3  A    between atoms: C_3  and  C_4
REMARK    4  A    between atoms: C_4  and  C_5
REMARK    5  A    between atoms: C_5  and  C_6
REMARK    6  A    between atoms: C_6  and  C_7
REMARK    7  A    between atoms: C_7  and  C_8
REMARK    8  A    between atoms: C_8  and  C_9
REMARK    9  A    between atoms: C_9  and  C_10
REMARK   10  A    between atoms: C_10  and  C_11
REMARK   11  A    between atoms: C_11  and  C_12
REMARK   12  A    between atoms: C_12  and  N_13
REMARK   13  A    between atoms: C_14  and  C_16
REMARK   14  A    between atoms: C_19  and  C_20
REMARK   15  A    between atoms: C_23  and  N_24
REMARK   16  A    between atoms: C_25  and  C_26
REMARK                            x       y       z     vdW  Elec       q    Type
REMARK                         _______ _______ _______ _____ _____    ______ ____
ROOT
ATOM      1  C   UNL     1       3.995   4.323  19.699  0.00  0.00    +0.000 C 
ATOM      2  C   UNL     1       3.079   3.905  18.548  0.00  0.00    +0.000 C 
ATOM      3  S   UNL     1       1.410   4.070  19.199  0.00  0.00    +0.000 S 
ATOM      4  C   UNL     1       1.905   5.321  20.391  0.00  0.00    +0.000 C 
ATOM      5  N   UNL     1       3.257   4.964  20.837  0.00  0.00    +0.000 NA
ATOM      6  H   UNL     1       3.115   4.212  21.516  0.00  0.00    +0.000 HD
ENDROOT
BRANCH   4   7
ATOM      7  C   UNL     1       1.801   6.783  19.980  0.00  0.00    +0.000 A 
ATOM      8  C   UNL     1       2.066   7.259  18.691  0.00  0.00    +0.000 A 
ATOM      9  C   UNL     1       1.782   8.586  18.333  0.00  0.00    +0.000 A 
ATOM     10  C   UNL     1       1.224   9.478  19.248  0.00  0.00    +0.000 A 
ATOM     11  C   UNL     1       1.051   9.045  20.566  0.00  0.00    +0.000 A 
ATOM     12  C   UNL     1       1.327   7.717  20.923  0.00  0.00    +0.000 A 
BRANCH  10  13
ATOM     13  N   UNL     1       0.773  10.776  18.909  0.00  0.00    +0.000 N 
ATOM     14  C   UNL     1      -0.535  11.153  18.657  0.00  0.00    +0.000 C 
ATOM     15  C   UNL     1      -0.717  12.638  18.452  0.00  0.00    +0.000 C 
ATOM     16  O   UNL     1      -1.509  10.410  18.575  0.00  0.00    +0.000 OA
ATOM     17  H   UNL     1       1.467  11.513  18.951  0.00  0.00    +0.000 HD
ENDBRANCH  10  13
ENDBRANCH   4   7
BRANCH   1  19
ATOM     18  N   UNL     1       4.995   5.619  17.843  0.00  0.00    +0.000 N 
ATOM     19  C   UNL     1       5.120   5.203  19.146  0.00  0.00    +0.000 C 
ATOM     20  O   UNL     1       6.076   5.529  19.856  0.00  0.00    +0.000 OA
ATOM     21  H   UNL     1       4.183   5.284  17.336  0.00  0.00    +0.000 HD
BRANCH  18  22
ATOM     22  C   UNL     1       5.950   6.527  17.256  0.00  0.00    +0.000 C 
BRANCH  22  23
ATOM     23  C   UNL     1       7.365   5.973  17.192  0.00  0.00    +0.000 C 
BRANCH  23  24
ATOM     24  C   UNL     1       7.408   4.557  16.620  0.00  0.00    +0.000 C 
BRANCH  24  25
ATOM     25  C   UNL     1       6.994   4.555  15.153  0.00  0.00    +0.000 C 
BRANCH  25  26
ATOM     26  C   UNL     1       5.585   3.998  14.988  0.00  0.00    +0.000 C 
BRANCH  26  27
ATOM     27  C   UNL     1       5.168   4.037  13.523  0.00  0.00    +0.000 C 
BRANCH  27  28
ATOM     28  C   UNL     1       6.259   3.462  12.629  0.00  0.00    +0.000 C 
BRANCH  28  29
ATOM     29  C   UNL     1       5.713   3.182  11.234  0.00  0.00    +0.000 C 
BRANCH  29  30
ATOM     30  C   UNL     1       4.252   2.753  11.299  0.00  0.00    +0.000 C 
BRANCH  30  31
ATOM     31  C   UNL     1       3.337   3.893  10.865  0.00  0.00    +0.000 C 
BRANCH  31  33
ATOM     32  C   UNL     1       2.227   5.021   8.917  0.00  0.00    +0.000 C 
ATOM     33  C   UNL     1       3.236   3.969   9.344  0.00  0.00    +0.000 C 
ENDBRANCH  31  33
ENDBRANCH  30  31
ENDBRANCH  29  30
ENDBRANCH  28  29
ENDBRANCH  27  28
ENDBRANCH  26  27
ENDBRANCH  25  26
ENDBRANCH  24  25
ENDBRANCH  23  24
ENDBRANCH  22  23
ENDBRANCH  18  22
ENDBRANCH   1  19
TORSDOF 14
ENDMDL
MODEL 7
REMARK VINA RESULT:      -6.4      3.382      6.147
REMARK  Name = 
REMARK  16 active torsions:
REMARK  status: ('A' for Active; 'I' for Inactive)
REMARK    1  A    between atoms: C_1  and  C_2
REMARK    2  A    between atoms: C_2  and  C_3
REMARK    3  A    between atoms: C_3  and  C_4
REMARK    4  A    between atoms: C_4  and  C_5
REMARK    5  A    between atoms: C_5  and  C_6
REMARK    6  A    between atoms: C_6  and  C_7
REMARK    7  A    between atoms: C_7  and  C_8
REMARK    8  A    between atoms: C_8  and  C_9
REMARK    9  A    between atoms: C_9  and  C_10
REMARK   10  A    between atoms: C_10  and  C_11
REMARK   11  A    between atoms: C_11  and  C_12
REMARK   12  A    between atoms: C_12  and  N_13
REMARK   13  A    between atoms: C_14  and  C_16
REMARK   14  A    between atoms: C_19  and  C_20
REMARK   15  A    between atoms: C_23  and  N_24
REMARK   16  A    between atoms: C_25  and  C_26
REMARK                            x       y       z     vdW  Elec       q    Type
REMARK                         _______ _______ _______ _____ _____    ______ ____
ROOT
ATOM      1  C   UNL     1       2.858   2.117  20.306  0.00  0.00    +0.000 C 
ATOM      2  C   UNL     1       2.283   1.736  18.941  0.00  0.00    +0.000 C 
ATOM      3  S   UNL     1       0.653   2.495  18.895  0.00  0.00    +0.000 S 
ATOM      4  C   UNL     1       1.123   3.783  20.058  0.00  0.00    +0.000 C 
ATOM      5  N   UNL     1       2.051   3.166  21.013  0.00  0.00    +0.000 NA
ATOM      6  H   UNL     1       1.450   2.646  21.658  0.00  0.00    +0.000 HD
ENDROOT
BRANCH   4   7
ATOM      7  C   UNL     1       1.659   5.093  19.499  0.00  0.00    +0.000 A 
ATOM      8  C   UNL     1       1.936   5.315  18.145  0.00  0.00    +0.000 A 
ATOM      9  C   UNL     1       2.258   6.596  17.670  0.00  0.00    +0.000 A 
ATOM     10  C   UNL     1       2.314   7.693  18.530  0.00  0.00    +0.000 A 
ATOM     11  C   UNL     1       2.142   7.465  19.898  0.00  0.00    +0.000 A 
ATOM     12  C   UNL     1       1.811   6.187  20.373  0.00  0.00    +0.000 A 
BRANCH  10  13
ATOM     13  N   UNL     1       2.480   9.030  18.093  0.00  0.00    +0.000 N 
ATOM     14  C   UNL     1       1.651  10.099  18.383  0.00  0.00    +0.000 C 
ATOM     15  C   UNL     1       2.165  11.428  17.882  0.00  0.00    +0.000 C 
ATOM     16  O   UNL     1       0.574  10.054  18.972  0.00  0.00    +0.000 OA
ATOM     17  H   UNL     1       3.343   9.232  17.602  0.00  0.00    +0.000 HD
ENDBRANCH  10  13
ENDBRANCH   4   7
BRANCH   1  19
ATOM     18  N   UNL     1       4.580   3.707  19.512  0.00  0.00    +0.000 N 
ATOM     19  C   UNL     1       4.328   2.509  20.136  0.00  0.00    +0.000 C 
ATOM     20  O   UNL     1       5.231   1.782  20.562  0.00  0.00    +0.000 OA
ATOM     21  H   UNL     1       3.773   4.224  19.181  0.00  0.00    +0.000 HD
BRANCH  18  22
ATOM     22  C   UNL     1       5.925   4.213  19.386  0.00  0.00    +0.000 C 
BRANCH  22  23
ATOM     23  C   UNL     1       5.994   5.694  19.044  0.00  0.00    +0.000 C 
BRANCH  23  24
ATOM     24  C   UNL     1       5.397   6.001  17.673  0.00  0.00    +0.000 C 
BRANCH  24  25
ATOM     25  C   UNL     1       6.465   6.539  16.727  0.00  0.00    +0.000 C 
BRANCH  25  26
ATOM     26  C   UNL     1       6.209   6.074  15.299  0.00  0.00    +0.000 C 
BRANCH  26  27
ATOM     27  C   UNL     1       7.006   4.810  15.002  0.00  0.00    +0.000 C 
BRANCH  27  28
ATOM     28  C   UNL     1       6.093   3.693  14.512  0.00  0.00    +0.000 C 
BRANCH  28  29
ATOM     29  C   UNL     1       5.342   4.130  13.260  0.00  0.00    +0.000 C 
BRANCH  29  30
ATOM     30  C   UNL     1       5.523   3.114  12.137  0.00  0.00    +0.000 C 
BRANCH  30  31
ATOM     31  C   UNL     1       6.954   3.145  11.610  0.00  0.00    +0.000 C 
BRANCH  31  33
ATOM     32  C   UNL     1       6.179   0.828  11.038  0.00  0.00    +0.000 C 
ATOM     33  C   UNL     1       7.342   1.803  10.995  0.00  0.00    +0.000 C 
ENDBRANCH  31  33
ENDBRANCH  30  31
ENDBRANCH  29  30
ENDBRANCH  28  29
ENDBRANCH  27  28
ENDBRANCH  26  27
ENDBRANCH  25  26
ENDBRANCH  24  25
ENDBRANCH  23  24
ENDBRANCH  22  23
ENDBRANCH  18  22
ENDBRANCH   1  19
TORSDOF 14
ENDMDL
MODEL 8
REMARK VINA RESULT:      -6.4      2.081      3.046
REMARK  Name = 
REMARK  16 active torsions:
REMARK  status: ('A' for Active; 'I' for Inactive)
REMARK    1  A    between atoms: C_1  and  C_2
REMARK    2  A    between atoms: C_2  and  C_3
REMARK    3  A    between atoms: C_3  and  C_4
REMARK    4  A    between atoms: C_4  and  C_5
REMARK    5  A    between atoms: C_5  and  C_6
REMARK    6  A    between atoms: C_6  and  C_7
REMARK    7  A    between atoms: C_7  and  C_8
REMARK    8  A    between atoms: C_8  and  C_9
REMARK    9  A    between atoms: C_9  and  C_10
REMARK   10  A    between atoms: C_10  and  C_11
REMARK   11  A    between atoms: C_11  and  C_12
REMARK   12  A    between atoms: C_12  and  N_13
REMARK   13  A    between atoms: C_14  and  C_16
REMARK   14  A    between atoms: C_19  and  C_20
REMARK   15  A    between atoms: C_23  and  N_24
REMARK   16  A    between atoms: C_25  and  C_26
REMARK                            x       y       z     vdW  Elec       q    Type
REMARK                         _______ _______ _______ _____ _____    ______ ____
ROOT
ATOM      1  C   UNL     1       5.831   5.329  17.925  0.00  0.00    +0.000 C 
ATOM      2  C   UNL     1       4.886   4.713  16.893  0.00  0.00    +0.000 C 
ATOM      3  S   UNL     1       3.444   4.193  17.834  0.00  0.00    +0.000 S 
ATOM      4  C   UNL     1       3.729   5.422  19.115  0.00  0.00    +0.000 C 
ATOM      5  N   UNL     1       5.184   5.546  19.261  0.00  0.00    +0.000 NA
ATOM      6  H   UNL     1       5.457   4.734  19.821  0.00  0.00    +0.000 HD
ENDROOT
BRANCH   4   7
ATOM      7  C   UNL     1       3.047   6.776  18.974  0.00  0.00    +0.000 A 
ATOM      8  C   UNL     1       3.103   7.568  17.822  0.00  0.00    +0.000 A 
ATOM      9  C   UNL     1       2.310   8.719  17.692  0.00  0.00    +0.000 A 
ATOM     10  C   UNL     1       1.436   9.113  18.705  0.00  0.00    +0.000 A 
ATOM     11  C   UNL     1       1.447   8.389  19.901  0.00  0.00    +0.000 A 
ATOM     12  C   UNL     1       2.234   7.234  20.029  0.00  0.00    +0.000 A 
BRANCH  10  13
ATOM     13  N   UNL     1       0.502  10.169  18.574  0.00  0.00    +0.000 N 
ATOM     14  C   UNL     1       0.650  11.462  19.047  0.00  0.00    +0.000 C 
ATOM     15  C   UNL     1      -0.461  12.397  18.635  0.00  0.00    +0.000 C 
ATOM     16  O   UNL     1       1.562  11.884  19.754  0.00  0.00    +0.000 OA
ATOM     17  H   UNL     1      -0.306   9.978  17.994  0.00  0.00    +0.000 HD
ENDBRANCH  10  13
ENDBRANCH   4   7
BRANCH   1  19
ATOM     18  N   UNL     1       7.418   7.221  18.088  0.00  0.00    +0.000 N 
ATOM     19  C   UNL     1       6.440   6.608  17.343  0.00  0.00    +0.000 C 
ATOM     20  O   UNL     1       6.074   7.043  16.246  0.00  0.00    +0.000 OA
ATOM     21  H   UNL     1       7.638   6.798  18.983  0.00  0.00    +0.000 HD
BRANCH  18  22
ATOM     22  C   UNL     1       8.123   8.376  17.588  0.00  0.00    +0.000 C 
BRANCH  22  23
ATOM     23  C   UNL     1       8.566   9.344  18.674  0.00  0.00    +0.000 C 
BRANCH  23  24
ATOM     24  C   UNL     1       9.121  10.646  18.100  0.00  0.00    +0.000 C 
BRANCH  24  25
ATOM     25  C   UNL     1      10.473  10.977  18.721  0.00  0.00    +0.000 C 
BRANCH  25  26
ATOM     26  C   UNL     1      11.094  12.196  18.051  0.00  0.00    +0.000 C 
BRANCH  26  27
ATOM     27  C   UNL     1      10.008  13.172  17.615  0.00  0.00    +0.000 C 
BRANCH  27  28
ATOM     28  C   UNL     1       9.641  14.122  18.747  0.00  0.00    +0.000 C 
BRANCH  28  29
ATOM     29  C   UNL     1      10.808  14.274  19.715  0.00  0.00    +0.000 C 
BRANCH  29  30
ATOM     30  C   UNL     1      10.319  14.275  21.159  0.00  0.00    +0.000 C 
BRANCH  30  31
ATOM     31  C   UNL     1       9.772  12.904  21.542  0.00  0.00    +0.000 C 
BRANCH  31  33
ATOM     32  C   UNL     1       8.063  11.705  22.935  0.00  0.00    +0.000 C 
ATOM     33  C   UNL     1       8.828  13.003  22.737  0.00  0.00    +0.000 C 
ENDBRANCH  31  33
ENDBRANCH  30  31
ENDBRANCH  29  30
ENDBRANCH  28  29
ENDBRANCH  27  28
ENDBRANCH  26  27
ENDBRANCH  25  26
ENDBRANCH  24  25
ENDBRANCH  23  24
ENDBRANCH  22  23
ENDBRANCH  18  22
ENDBRANCH   1  19
TORSDOF 14
ENDMDL
MODEL 9
REMARK VINA RESULT:      -6.4      6.125      9.414
REMARK  Name = 
REMARK  16 active torsions:
REMARK  status: ('A' for Active; 'I' for Inactive)
REMARK    1  A    between atoms: C_1  and  C_2
REMARK    2  A    between atoms: C_2  and  C_3
REMARK    3  A    between atoms: C_3  and  C_4
REMARK    4  A    between atoms: C_4  and  C_5
REMARK    5  A    between atoms: C_5  and  C_6
REMARK    6  A    between atoms: C_6  and  C_7
REMARK    7  A    between atoms: C_7  and  C_8
REMARK    8  A    between atoms: C_8  and  C_9
REMARK    9  A    between atoms: C_9  and  C_10
REMARK   10  A    between atoms: C_10  and  C_11
REMARK   11  A    between atoms: C_11  and  C_12
REMARK   12  A    between atoms: C_12  and  N_13
REMARK   13  A    between atoms: C_14  and  C_16
REMARK   14  A    between atoms: C_19  and  C_20
REMARK   15  A    between atoms: C_23  and  N_24
REMARK   16  A    between atoms: C_25  and  C_26
REMARK                            x       y       z     vdW  Elec       q    Type
REMARK                         _______ _______ _______ _____ _____    ______ ____
ROOT
ATOM      1  C   UNL     1      -1.494  13.672  23.148  0.00  0.00    +0.000 C 
ATOM      2  C   UNL     1      -2.815  14.370  22.820  0.00  0.00    +0.000 C 
ATOM      3  S   UNL     1      -2.420  15.508  21.484  0.00  0.00    +0.000 S 
ATOM      4  C   UNL     1      -1.030  14.512  20.929  0.00  0.00    +0.000 C 
ATOM      5  N   UNL     1      -0.421  13.934  22.133  0.00  0.00    +0.000 NA
ATOM      6  H   UNL     1       0.137  14.694  22.531  0.00  0.00    +0.000 HD
ENDROOT
BRANCH   4   7
ATOM      7  C   UNL     1      -1.283  13.465  19.854  0.00  0.00    +0.000 A 
ATOM      8  C   UNL     1      -2.283  12.490  19.925  0.00  0.00    +0.000 A 
ATOM      9  C   UNL     1      -2.579  11.669  18.825  0.00  0.00    +0.000 A 
ATOM     10  C   UNL     1      -1.888  11.798  17.621  0.00  0.00    +0.000 A 
ATOM     11  C   UNL     1      -0.818  12.697  17.570  0.00  0.00    +0.000 A 
ATOM     12  C   UNL     1      -0.528  13.523  18.666  0.00  0.00    +0.000 A 
BRANCH  10  13
ATOM     13  N   UNL     1      -2.239  11.113  16.433  0.00  0.00    +0.000 N 
ATOM     14  C   UNL     1      -3.489  11.086  15.837  0.00  0.00    +0.000 C 
ATOM     15  C   UNL     1      -3.519  10.377  14.505  0.00  0.00    +0.000 C 
ATOM     16  O   UNL     1      -4.528  11.558  16.292  0.00  0.00    +0.000 OA
ATOM     17  H   UNL     1      -1.475  10.683  15.925  0.00  0.00    +0.000 HD
ENDBRANCH  10  13
ENDBRANCH   4   7
BRANCH   1  19
ATOM     18  N   UNL     1      -0.747  11.316  23.023  0.00  0.00    +0.000 N 
ATOM     19  C   UNL     1      -1.760  12.179  23.364  0.00  0.00    +0.000 C 
ATOM     20  O   UNL     1      -2.830  11.788  23.840  0.00  0.00    +0.000 OA
ATOM     21  H   UNL     1       0.087  11.731  22.623  0.00  0.00    +0.000 HD
BRANCH  18  22
ATOM     22  C   UNL     1      -0.858   9.899  23.274  0.00  0.00    +0.000 C 
BRANCH  22  23
ATOM     23  C   UNL     1      -0.072   9.039  22.296  0.00  0.00    +0.000 C 
BRANCH  23  24
ATOM     24  C   UNL     1      -0.340   9.422  20.842  0.00  0.00    +0.000 C 
BRANCH  24  25
ATOM     25  C   UNL     1       0.939   9.901  20.166  0.00  0.00    +0.000 C 
BRANCH  25  26
ATOM     26  C   UNL     1       0.894   9.631  18.667  0.00  0.00    +0.000 C 
BRANCH  26  27
ATOM     27  C   UNL     1       2.247   9.128  18.179  0.00  0.00    +0.000 C 
BRANCH  27  28
ATOM     28  C   UNL     1       2.229   7.617  17.983  0.00  0.00    +0.000 C 
BRANCH  28  29
ATOM     29  C   UNL     1       2.768   6.912  19.223  0.00  0.00    +0.000 C 
BRANCH  29  30
ATOM     30  C   UNL     1       2.277   5.470  19.283  0.00  0.00    +0.000 C 
BRANCH  30  31
ATOM     31  C   UNL     1       1.475   5.228  20.558  0.00  0.00    +0.000 C 
BRANCH  31  33
ATOM     32  C   UNL     1       2.429   3.000  21.207  0.00  0.00    +0.000 C 
ATOM     33  C   UNL     1       1.185   3.743  20.752  0.00  0.00    +0.000 C 
ENDBRANCH  31  33
ENDBRANCH  30  31
ENDBRANCH  29  30
ENDBRANCH  28  29
ENDBRANCH  27  28
ENDBRANCH  26  27
ENDBRANCH  25  26
ENDBRANCH  24  25
ENDBRANCH  23  24
ENDBRANCH  22  23
ENDBRANCH  18  22
ENDBRANCH   1  19
TORSDOF 14
ENDMDL
