MODEL 1
REMARK VINA RESULT:      -6.2      0.000      0.000
REMARK  Name = 
REMARK  5 active torsions:
REMARK  status: ('A' for Active; 'I' for Inactive)
REMARK    1  A    between atoms: C_1  and  S_2
REMARK    2  A    between atoms: S_2  and  C_3
REMARK    3  A    between atoms: N_10  and  N_11
REMARK    4  A    between atoms: N_11  and  C_12
REMARK    5  A    between atoms: C_12  and  N_13
REMARK                            x       y       z     vdW  Elec       q    Type
REMARK                         _______ _______ _______ _____ _____    ______ ____
ROOT
ATOM      1  C   UNL     1       4.481   5.067  16.921  0.00  0.00    +0.000 A 
ATOM      2  C   UNL     1       4.550   3.684  16.754  0.00  0.00    +0.000 A 
ATOM      3  C   UNL     1       3.805   2.842  17.580  0.00  0.00    +0.000 A 
ATOM      4  C   UNL     1       2.987   3.366  18.594  0.00  0.00    +0.000 A 
ATOM      5  C   UNL     1       2.925   4.757  18.778  0.00  0.00    +0.000 A 
ATOM      6  C   UNL     1       3.684   5.597  17.944  0.00  0.00    +0.000 A 
ATOM      7  C   UNL     1       2.045   5.384  19.827  0.00  0.00    +0.000 C 
ATOM      8  N   UNL     1       2.241   6.636  20.150  0.00  0.00    +0.000 NA
ATOM      9  C   UNL     1       0.958   4.488  20.405  0.00  0.00    +0.000 C 
ATOM     10  C   UNL     1       1.560   3.203  20.933  0.00  0.00    +0.000 C 
ATOM     11  S   UNL     1       2.085   2.162  19.555  0.00  0.00    +0.000 S 
ENDROOT
BRANCH   1  13
ATOM     12  C   UNL     1       6.532   4.874  15.105  0.00  0.00    +0.000 C 
ATOM     13  S   UNL     1       5.431   6.114  15.838  0.00  0.00    +0.000 S 
ENDBRANCH   1  13
BRANCH   8  14
ATOM     14  N   UNL     1       1.433   7.221  21.082  0.00  0.00    +0.000 N 
ATOM     15  H   UNL     1       0.859   6.680  21.712  0.00  0.00    +0.000 HD
BRANCH  14  16
ATOM     16  C   UNL     1       1.330   8.575  21.228  0.00  0.00    +0.000 C 
ATOM     17  S   UNL     1       0.782   9.539  19.992  0.00  0.00    +0.000 S 
BRANCH  16  18
ATOM     18  N   UNL     1       1.701   9.085  22.418  0.00  0.00    +0.000 N 
ATOM     19  H   UNL     1       1.415  10.031  22.638  0.00  0.00    +0.000 HD
ATOM     20  H   UNL     1       2.346   8.589  23.017  0.00  0.00    +0.000 HD
ENDBRANCH  16  18
ENDBRANCH  14  16
ENDBRANCH   8  14
TORSDOF 4
ENDMDL
MODEL 2
REMARK VINA RESULT:      -6.1      0.970      1.025
REMARK  Name = 
REMARK  5 active torsions:
REMARK  status: ('A' for Active; 'I' for Inactive)
REMARK    1  A    between atoms: C_1  and  S_2
REMARK    2  A    between atoms: S_2  and  C_3
REMARK    3  A    between atoms: N_10  and  N_11
REMARK    4  A    between atoms: N_11  and  C_12
REMARK    5  A    between atoms: C_12  and  N_13
REMARK                            x       y       z     vdW  Elec       q    Type
REMARK                         _______ _______ _______ _____ _____    ______ ____
ROOT
ATOM      1  C   UNL     1       4.517   5.052  16.955  0.00  0.00    +0.000 A 
ATOM      2  C   UNL     1       4.535   3.668  16.785  0.00  0.00    +0.000 A 
ATOM      3  C   UNL     1       3.761   2.852  17.611  0.00  0.00    +0.000 A 
ATOM      4  C   UNL     1       2.965   3.404  18.628  0.00  0.00    +0.000 A 
ATOM      5  C   UNL     1       2.954   4.796  18.814  0.00  0.00    +0.000 A 
ATOM      6  C   UNL     1       3.741   5.609  17.980  0.00  0.00    +0.000 A 
ATOM      7  C   UNL     1       2.100   5.452  19.866  0.00  0.00    +0.000 C 
ATOM      8  N   UNL     1       2.341   6.696  20.191  0.00  0.00    +0.000 NA
ATOM      9  C   UNL     1       0.982   4.596  20.445  0.00  0.00    +0.000 C 
ATOM     10  C   UNL     1       1.537   3.289  20.969  0.00  0.00    +0.000 C 
ATOM     11  S   UNL     1       2.022   2.232  19.589  0.00  0.00    +0.000 S 
ENDROOT
BRANCH   1  13
ATOM     12  C   UNL     1       7.023   6.169  16.852  0.00  0.00    +0.000 C 
ATOM     13  S   UNL     1       5.502   6.066  15.871  0.00  0.00    +0.000 S 
ENDBRANCH   1  13
BRANCH   8  14
ATOM     14  N   UNL     1       1.557   7.308  21.125  0.00  0.00    +0.000 N 
ATOM     15  H   UNL     1       1.261   6.840  21.970  0.00  0.00    +0.000 HD
BRANCH  14  16
ATOM     16  C   UNL     1       1.107   8.590  20.989  0.00  0.00    +0.000 C 
ATOM     17  S   UNL     1       0.481   9.428  22.280  0.00  0.00    +0.000 S 
BRANCH  16  18
ATOM     18  N   UNL     1       1.189   9.135  19.760  0.00  0.00    +0.000 N 
ATOM     19  H   UNL     1       0.925  10.106  19.653  0.00  0.00    +0.000 HD
ATOM     20  H   UNL     1       1.388   8.562  18.951  0.00  0.00    +0.000 HD
ENDBRANCH  16  18
ENDBRANCH  14  16
ENDBRANCH   8  14
TORSDOF 4
ENDMDL
MODEL 3
REMARK VINA RESULT:      -6.0      2.911      5.647
REMARK  Name = 
REMARK  5 active torsions:
REMARK  status: ('A' for Active; 'I' for Inactive)
REMARK    1  A    between atoms: C_1  and  S_2
REMARK    2  A    between atoms: S_2  and  C_3
REMARK    3  A    between atoms: N_10  and  N_11
REMARK    4  A    between atoms: N_11  and  C_12
REMARK    5  A    between atoms: C_12  and  N_13
REMARK                            x       y       z     vdW  Elec       q    Type
REMARK                         _______ _______ _______ _____ _____    ______ ____
ROOT
ATOM      1  C   UNL     1       2.166   7.796  18.963  0.00  0.00    +0.000 A 
ATOM      2  C   UNL     1       1.453   7.522  20.130  0.00  0.00    +0.000 A 
ATOM      3  C   UNL     1       1.582   6.280  20.753  0.00  0.00    +0.000 A 
ATOM      4  C   UNL     1       2.417   5.287  20.215  0.00  0.00    +0.000 A 
ATOM      5  C   UNL     1       3.126   5.551  19.031  0.00  0.00    +0.000 A 
ATOM      6  C   UNL     1       2.984   6.803  18.409  0.00  0.00    +0.000 A 
ATOM      7  C   UNL     1       4.059   4.540  18.420  0.00  0.00    +0.000 C 
ATOM      8  N   UNL     1       4.460   4.715  17.187  0.00  0.00    +0.000 NA
ATOM      9  C   UNL     1       4.489   3.396  19.328  0.00  0.00    +0.000 C 
ATOM     10  C   UNL     1       3.276   2.699  19.906  0.00  0.00    +0.000 C 
ATOM     11  S   UNL     1       2.489   3.759  21.136  0.00  0.00    +0.000 S 
ENDROOT
BRANCH   1  13
ATOM     12  C   UNL     1       0.505   9.980  19.061  0.00  0.00    +0.000 C 
ATOM     13  S   UNL     1       1.992   9.398  18.203  0.00  0.00    +0.000 S 
ENDBRANCH   1  13
BRANCH   8  14
ATOM     14  N   UNL     1       5.326   3.819  16.631  0.00  0.00    +0.000 N 
ATOM     15  H   UNL     1       5.139   2.826  16.620  0.00  0.00    +0.000 HD
BRANCH  14  16
ATOM     16  C   UNL     1       6.508   4.188  16.057  0.00  0.00    +0.000 C 
ATOM     17  S   UNL     1       6.649   4.380  14.414  0.00  0.00    +0.000 S 
BRANCH  16  18
ATOM     18  N   UNL     1       7.551   4.382  16.888  0.00  0.00    +0.000 N 
ATOM     19  H   UNL     1       7.361   4.764  17.806  0.00  0.00    +0.000 HD
ATOM     20  H   UNL     1       8.501   4.266  16.563  0.00  0.00    +0.000 HD
ENDBRANCH  16  18
ENDBRANCH  14  16
ENDBRANCH   8  14
TORSDOF 4
ENDMDL
MODEL 4
REMARK VINA RESULT:      -5.8      1.969      4.335
REMARK  Name = 
REMARK  5 active torsions:
REMARK  status: ('A' for Active; 'I' for Inactive)
REMARK    1  A    between atoms: C_1  and  S_2
REMARK    2  A    between atoms: S_2  and  C_3
REMARK    3  A    between atoms: N_10  and  N_11
REMARK    4  A    between atoms: N_11  and  C_12
REMARK    5  A    between atoms: C_12  and  N_13
REMARK                            x       y       z     vdW  Elec       q    Type
REMARK                         _______ _______ _______ _____ _____    ______ ____
ROOT
ATOM      1  C   UNL     1       2.172   3.178  18.981  0.00  0.00    +0.000 A 
ATOM      2  C   UNL     1       3.009   2.258  18.351  0.00  0.00    +0.000 A 
ATOM      3  C   UNL     1       4.028   2.702  17.507  0.00  0.00    +0.000 A 
ATOM      4  C   UNL     1       4.220   4.072  17.270  0.00  0.00    +0.000 A 
ATOM      5  C   UNL     1       3.371   5.004  17.890  0.00  0.00    +0.000 A 
ATOM      6  C   UNL     1       2.345   4.546  18.734  0.00  0.00    +0.000 A 
ATOM      7  C   UNL     1       3.543   6.488  17.700  0.00  0.00    +0.000 C 
ATOM      8  N   UNL     1       2.570   7.287  18.052  0.00  0.00    +0.000 NA
ATOM      9  C   UNL     1       4.884   6.935  17.135  0.00  0.00    +0.000 C 
ATOM     10  C   UNL     1       5.178   6.210  15.839  0.00  0.00    +0.000 C 
ATOM     11  S   UNL     1       5.574   4.483  16.181  0.00  0.00    +0.000 S 
ENDROOT
BRANCH   1  13
ATOM     12  C   UNL     1       1.703   2.844  21.666  0.00  0.00    +0.000 C 
ATOM     13  S   UNL     1       0.893   2.577  20.066  0.00  0.00    +0.000 S 
ENDBRANCH   1  13
BRANCH   8  14
ATOM     14  N   UNL     1       2.725   8.635  17.909  0.00  0.00    +0.000 N 
ATOM     15  H   UNL     1       3.510   9.037  17.415  0.00  0.00    +0.000 HD
BRANCH  14  16
ATOM     16  C   UNL     1       1.843   9.542  18.424  0.00  0.00    +0.000 C 
ATOM     17  S   UNL     1       1.014   9.238  19.830  0.00  0.00    +0.000 S 
BRANCH  16  18
ATOM     18  N   UNL     1       1.677  10.686  17.733  0.00  0.00    +0.000 N 
ATOM     19  H   UNL     1       1.358  10.619  16.775  0.00  0.00    +0.000 HD
ATOM     20  H   UNL     1       1.979  11.572  18.116  0.00  0.00    +0.000 HD
ENDBRANCH  16  18
ENDBRANCH  14  16
ENDBRANCH   8  14
TORSDOF 4
ENDMDL
MODEL 5
REMARK VINA RESULT:      -5.7      3.340      4.830
REMARK  Name = 
REMARK  5 active torsions:
REMARK  status: ('A' for Active; 'I' for Inactive)
REMARK    1  A    between atoms: C_1  and  S_2
REMARK    2  A    between atoms: S_2  and  C_3
REMARK    3  A    between atoms: N_10  and  N_11
REMARK    4  A    between atoms: N_11  and  C_12
REMARK    5  A    between atoms: C_12  and  N_13
REMARK                            x       y       z     vdW  Elec       q    Type
REMARK                         _______ _______ _______ _____ _____    ______ ____
ROOT
ATOM      1  C   UNL     1       5.698   4.125  14.222  0.00  0.00    +0.000 A 
ATOM      2  C   UNL     1       7.009   4.574  14.375  0.00  0.00    +0.000 A 
ATOM      3  C   UNL     1       7.482   4.939  15.636  0.00  0.00    +0.000 A 
ATOM      4  C   UNL     1       6.648   4.871  16.764  0.00  0.00    +0.000 A 
ATOM      5  C   UNL     1       5.322   4.434  16.615  0.00  0.00    +0.000 A 
ATOM      6  C   UNL     1       4.855   4.074  15.339  0.00  0.00    +0.000 A 
ATOM      7  C   UNL     1       4.387   4.311  17.789  0.00  0.00    +0.000 C 
ATOM      8  N   UNL     1       3.105   4.186  17.565  0.00  0.00    +0.000 NA
ATOM      9  C   UNL     1       5.042   4.308  19.163  0.00  0.00    +0.000 C 
ATOM     10  C   UNL     1       5.924   5.527  19.329  0.00  0.00    +0.000 C 
ATOM     11  S   UNL     1       7.403   5.356  18.308  0.00  0.00    +0.000 S 
ENDROOT
BRANCH   1  13
ATOM     12  C   UNL     1       6.715   3.169  11.857  0.00  0.00    +0.000 C 
ATOM     13  S   UNL     1       5.133   3.650  12.601  0.00  0.00    +0.000 S 
ENDBRANCH   1  13
BRANCH   8  14
ATOM     14  N   UNL     1       2.251   4.048  18.621  0.00  0.00    +0.000 N 
ATOM     15  H   UNL     1       1.811   4.842  19.064  0.00  0.00    +0.000 HD
BRANCH  14  16
ATOM     16  C   UNL     1       1.933   2.836  19.164  0.00  0.00    +0.000 C 
ATOM     17  S   UNL     1       1.641   2.668  20.790  0.00  0.00    +0.000 S 
BRANCH  16  18
ATOM     18  N   UNL     1       1.875   1.790  18.318  0.00  0.00    +0.000 N 
ATOM     19  H   UNL     1       1.932   1.979  17.325  0.00  0.00    +0.000 HD
ATOM     20  H   UNL     1       1.657   0.862  18.655  0.00  0.00    +0.000 HD
ENDBRANCH  16  18
ENDBRANCH  14  16
ENDBRANCH   8  14
TORSDOF 4
ENDMDL
MODEL 6
REMARK VINA RESULT:      -5.7      2.789      5.484
REMARK  Name = 
REMARK  5 active torsions:
REMARK  status: ('A' for Active; 'I' for Inactive)
REMARK    1  A    between atoms: C_1  and  S_2
REMARK    2  A    between atoms: S_2  and  C_3
REMARK    3  A    between atoms: N_10  and  N_11
REMARK    4  A    between atoms: N_11  and  C_12
REMARK    5  A    between atoms: C_12  and  N_13
REMARK                            x       y       z     vdW  Elec       q    Type
REMARK                         _______ _______ _______ _____ _____    ______ ____
ROOT
ATOM      1  C   UNL     1       1.907   6.664  19.955  0.00  0.00    +0.000 A 
ATOM      2  C   UNL     1       1.092   5.787  20.670  0.00  0.00    +0.000 A 
ATOM      3  C   UNL     1       1.179   4.412  20.448  0.00  0.00    +0.000 A 
ATOM      4  C   UNL     1       2.075   3.891  19.500  0.00  0.00    +0.000 A 
ATOM      5  C   UNL     1       2.888   4.769  18.765  0.00  0.00    +0.000 A 
ATOM      6  C   UNL     1       2.788   6.153  18.993  0.00  0.00    +0.000 A 
ATOM      7  C   UNL     1       3.889   4.273  17.756  0.00  0.00    +0.000 C 
ATOM      8  N   UNL     1       4.402   5.122  16.904  0.00  0.00    +0.000 NA
ATOM      9  C   UNL     1       4.247   2.796  17.846  0.00  0.00    +0.000 C 
ATOM     10  C   UNL     1       2.996   1.946  17.796  0.00  0.00    +0.000 C 
ATOM     11  S   UNL     1       2.081   2.113  19.343  0.00  0.00    +0.000 S 
ENDROOT
BRANCH   1  13
ATOM     12  C   UNL     1       1.657   9.024  18.574  0.00  0.00    +0.000 C 
ATOM     13  S   UNL     1       1.783   8.412  20.276  0.00  0.00    +0.000 S 
ENDBRANCH   1  13
BRANCH   8  14
ATOM     14  N   UNL     1       5.329   4.688  16.001  0.00  0.00    +0.000 N 
ATOM     15  H   UNL     1       5.075   4.143  15.189  0.00  0.00    +0.000 HD
BRANCH  14  16
ATOM     16  C   UNL     1       6.664   4.946  16.127  0.00  0.00    +0.000 C 
ATOM     17  S   UNL     1       7.438   4.798  17.589  0.00  0.00    +0.000 S 
BRANCH  16  18
ATOM     18  N   UNL     1       7.315   5.330  15.013  0.00  0.00    +0.000 N 
ATOM     19  H   UNL     1       6.897   6.057  14.446  0.00  0.00    +0.000 HD
ATOM     20  H   UNL     1       8.128   4.825  14.687  0.00  0.00    +0.000 HD
ENDBRANCH  16  18
ENDBRANCH  14  16
ENDBRANCH   8  14
TORSDOF 4
ENDMDL
MODEL 7
REMARK VINA RESULT:      -5.7      3.351      5.725
REMARK  Name = 
REMARK  5 active torsions:
REMARK  status: ('A' for Active; 'I' for Inactive)
REMARK    1  A    between atoms: C_1  and  S_2
REMARK    2  A    between atoms: S_2  and  C_3
REMARK    3  A    between atoms: N_10  and  N_11
REMARK    4  A    between atoms: N_11  and  C_12
REMARK    5  A    between atoms: C_12  and  N_13
REMARK                            x       y       z     vdW  Elec       q    Type
REMARK                         _______ _______ _______ _____ _____    ______ ____
ROOT
ATOM      1  C   UNL     1       3.064   4.978  18.870  0.00  0.00    +0.000 A 
ATOM      2  C   UNL     1       2.755   3.816  18.164  0.00  0.00    +0.000 A 
ATOM      3  C   UNL     1       3.555   3.413  17.094  0.00  0.00    +0.000 A 
ATOM      4  C   UNL     1       4.671   4.171  16.705  0.00  0.00    +0.000 A 
ATOM      5  C   UNL     1       4.980   5.351  17.401  0.00  0.00    +0.000 A 
ATOM      6  C   UNL     1       4.164   5.750  18.474  0.00  0.00    +0.000 A 
ATOM      7  C   UNL     1       6.179   6.192  17.052  0.00  0.00    +0.000 C 
ATOM      8  N   UNL     1       6.256   7.409  17.525  0.00  0.00    +0.000 NA
ATOM      9  C   UNL     1       7.235   5.519  16.188  0.00  0.00    +0.000 C 
ATOM     10  C   UNL     1       6.608   4.963  14.927  0.00  0.00    +0.000 C 
ATOM     11  S   UNL     1       5.604   3.518  15.329  0.00  0.00    +0.000 S 
ENDROOT
BRANCH   1  13
ATOM     12  C   UNL     1       0.935   4.012  20.310  0.00  0.00    +0.000 C 
ATOM     13  S   UNL     1       2.032   5.453  20.242  0.00  0.00    +0.000 S 
ENDBRANCH   1  13
BRANCH   8  14
ATOM     14  N   UNL     1       7.351   8.171  17.236  0.00  0.00    +0.000 N 
ATOM     15  H   UNL     1       7.566   8.470  16.295  0.00  0.00    +0.000 HD
BRANCH  14  16
ATOM     16  C   UNL     1       8.241   8.582  18.187  0.00  0.00    +0.000 C 
ATOM     17  S   UNL     1       8.777  10.152  18.249  0.00  0.00    +0.000 S 
BRANCH  16  18
ATOM     18  N   UNL     1       8.664   7.650  19.063  0.00  0.00    +0.000 N 
ATOM     19  H   UNL     1       8.946   7.959  19.985  0.00  0.00    +0.000 HD
ATOM     20  H   UNL     1       8.814   6.694  18.771  0.00  0.00    +0.000 HD
ENDBRANCH  16  18
ENDBRANCH  14  16
ENDBRANCH   8  14
TORSDOF 4
ENDMDL
MODEL 8
REMARK VINA RESULT:      -5.7      3.466      6.196
REMARK  Name = 
REMARK  5 active torsions:
REMARK  status: ('A' for Active; 'I' for Inactive)
REMARK    1  A    between atoms: C_1  and  S_2
REMARK    2  A    between atoms: S_2  and  C_3
REMARK    3  A    between atoms: N_10  and  N_11
REMARK    4  A    between atoms: N_11  and  C_12
REMARK    5  A    between atoms: C_12  and  N_13
REMARK                            x       y       z     vdW  Elec       q    Type
REMARK                         _______ _______ _______ _____ _____    ______ ____
ROOT
ATOM      1  C   UNL     1       2.606   8.073  18.259  0.00  0.00    +0.000 A 
ATOM      2  C   UNL     1       1.921   7.337  19.225  0.00  0.00    +0.000 A 
ATOM      3  C   UNL     1       2.384   6.077  19.604  0.00  0.00    +0.000 A 
ATOM      4  C   UNL     1       3.535   5.527  19.017  0.00  0.00    +0.000 A 
ATOM      5  C   UNL     1       4.222   6.256  18.033  0.00  0.00    +0.000 A 
ATOM      6  C   UNL     1       3.743   7.522  17.654  0.00  0.00    +0.000 A 
ATOM      7  C   UNL     1       5.478   5.734  17.386  0.00  0.00    +0.000 C 
ATOM      8  N   UNL     1       5.907   6.303  16.290  0.00  0.00    +0.000 NA
ATOM      9  C   UNL     1       6.170   4.586  18.107  0.00  0.00    +0.000 C 
ATOM     10  C   UNL     1       5.198   3.450  18.342  0.00  0.00    +0.000 C 
ATOM     11  S   UNL     1       4.010   3.914  19.619  0.00  0.00    +0.000 S 
ENDROOT
BRANCH   1  13
ATOM     12  C   UNL     1       0.633   9.835  18.996  0.00  0.00    +0.000 C 
ATOM     13  S   UNL     1       1.997   9.686  17.812  0.00  0.00    +0.000 S 
ENDBRANCH   1  13
BRANCH   8  14
ATOM     14  N   UNL     1       7.058   5.855  15.709  0.00  0.00    +0.000 N 
ATOM     15  H   UNL     1       7.966   6.010  16.124  0.00  0.00    +0.000 HD
BRANCH  14  16
ATOM     16  C   UNL     1       7.075   5.175  14.525  0.00  0.00    +0.000 C 
ATOM     17  S   UNL     1       6.013   3.934  14.226  0.00  0.00    +0.000 S 
BRANCH  16  18
ATOM     18  N   UNL     1       7.997   5.557  13.620  0.00  0.00    +0.000 N 
ATOM     19  H   UNL     1       8.013   5.077  12.729  0.00  0.00    +0.000 HD
ATOM     20  H   UNL     1       8.726   6.212  13.867  0.00  0.00    +0.000 HD
ENDBRANCH  16  18
ENDBRANCH  14  16
ENDBRANCH   8  14
TORSDOF 4
ENDMDL
MODEL 9
REMARK VINA RESULT:      -5.6      2.875      5.435
REMARK  Name = 
REMARK  5 active torsions:
REMARK  status: ('A' for Active; 'I' for Inactive)
REMARK    1  A    between atoms: C_1  and  S_2
REMARK    2  A    between atoms: S_2  and  C_3
REMARK    3  A    between atoms: N_10  and  N_11
REMARK    4  A    between atoms: N_11  and  C_12
REMARK    5  A    between atoms: C_12  and  N_13
REMARK                            x       y       z     vdW  Elec       q    Type
REMARK                         _______ _______ _______ _____ _____    ______ ____
ROOT
ATOM      1  C   UNL     1       1.884   7.469  19.768  0.00  0.00    +0.000 A 
ATOM      2  C   UNL     1       1.294   6.685  20.759  0.00  0.00    +0.000 A 
ATOM      3  C   UNL     1       1.652   5.344  20.898  0.00  0.00    +0.000 A 
ATOM      4  C   UNL     1       2.599   4.760  20.040  0.00  0.00    +0.000 A 
ATOM      5  C   UNL     1       3.186   5.539  19.030  0.00  0.00    +0.000 A 
ATOM      6  C   UNL     1       2.813   6.888  18.896  0.00  0.00    +0.000 A 
ATOM      7  C   UNL     1       4.228   4.980  18.097  0.00  0.00    +0.000 C 
ATOM      8  N   UNL     1       4.523   5.644  17.010  0.00  0.00    +0.000 NA
ATOM      9  C   UNL     1       4.885   3.679  18.537  0.00  0.00    +0.000 C 
ATOM     10  C   UNL     1       3.833   2.630  18.827  0.00  0.00    +0.000 C 
ATOM     11  S   UNL     1       2.964   3.041  20.354  0.00  0.00    +0.000 S 
ENDROOT
BRANCH   1  13
ATOM     12  C   UNL     1       1.782   9.457  17.877  0.00  0.00    +0.000 C 
ATOM     13  S   UNL     1       1.416   9.182  19.631  0.00  0.00    +0.000 S 
ENDBRANCH   1  13
BRANCH   8  14
ATOM     14  N   UNL     1       5.484   5.160  16.170  0.00  0.00    +0.000 N 
ATOM     15  H   UNL     1       5.307   4.397  15.532  0.00  0.00    +0.000 HD
BRANCH  14  16
ATOM     16  C   UNL     1       6.755   5.658  16.132  0.00  0.00    +0.000 C 
ATOM     17  S   UNL     1       7.325   6.664  17.325  0.00  0.00    +0.000 S 
BRANCH  16  18
ATOM     18  N   UNL     1       7.516   5.299  15.080  0.00  0.00    +0.000 N 
ATOM     19  H   UNL     1       8.164   5.983  14.709  0.00  0.00    +0.000 HD
ATOM     20  H   UNL     1       7.357   4.424  14.600  0.00  0.00    +0.000 HD
ENDBRANCH  16  18
ENDBRANCH  14  16
ENDBRANCH   8  14
TORSDOF 4
ENDMDL
