MODEL 1
REMARK VINA RESULT:      -8.5      0.000      0.000
REMARK  Name = 
REMARK  4 active torsions:
REMARK  status: ('A' for Active; 'I' for Inactive)
REMARK    1  A    between atoms: C_2  and  O_3
REMARK    2  A    between atoms: C_2  and  C_4
REMARK    3  A    between atoms: C_6  and  C_7
REMARK    4  A    between atoms: C_18  and  C_19
REMARK                            x       y       z     vdW  Elec       q    Type
REMARK                         _______ _______ _______ _____ _____    ______ ____
ROOT
ATOM      1  C   UNL     1       4.059   5.383  19.374  0.00  0.00    +0.000 C 
ATOM      2  C   UNL     1       3.293   5.116  20.451  0.00  0.00    +0.000 C 
ATOM      3  C   UNL     1       1.888   5.716  20.736  0.00  0.00    +0.000 C 
ATOM      4  C   UNL     1       1.688   7.092  19.987  0.00  0.00    +0.000 C 
ATOM      5  C   UNL     1       2.469   7.280  18.873  0.00  0.00    +0.000 C 
ATOM      6  C   UNL     1       2.387   8.472  17.939  0.00  0.00    +0.000 C 
ATOM      7  C   UNL     1       1.076   9.175  18.116  0.00  0.00    +0.000 C 
ATOM      8  F   UNL     1       1.036  10.309  17.377  0.00  0.00    +0.000 F 
ATOM      9  C   UNL     1       1.082   9.392  19.588  0.00  0.00    +0.000 C 
ATOM     10  N   UNL     1       1.436  10.554  20.045  0.00  0.00    +0.000 NA
ATOM     11  N   UNL     1       1.434  10.633  21.435  0.00  0.00    +0.000 NA
ATOM     12  C   UNL     1       0.288  10.194  21.866  0.00  0.00    +0.000 C 
ATOM     13  C   UNL     1       0.027   8.646  21.592  0.00  0.00    +0.000 C 
ATOM     14  N   UNL     1       0.842   8.244  20.371  0.00  0.00    +0.000 N 
ATOM     15  C   UNL     1       3.579   6.401  18.449  0.00  0.00    +0.000 C 
ATOM     16  O   UNL     1       4.169   6.583  17.384  0.00  0.00    +0.000 OA
ENDROOT
BRANCH  12  17
ATOM     17  C   UNL     1      -0.647  11.302  22.362  0.00  0.00    +0.000 A 
ATOM     18  C   UNL     1      -0.301  12.632  21.975  0.00  0.00    +0.000 A 
ATOM     19  C   UNL     1      -1.008  13.765  22.390  0.00  0.00    +0.000 A 
ATOM     20  C   UNL     1      -2.121  13.598  23.192  0.00  0.00    +0.000 A 
ATOM     21  C   UNL     1      -2.543  12.299  23.498  0.00  0.00    +0.000 A 
ATOM     22 CL   UNL     1      -3.978  12.118  24.439  0.00  0.00    +0.000 Cl
ATOM     23  C   UNL     1      -1.833  11.148  23.074  0.00  0.00    +0.000 A 
ENDBRANCH  12  17
BRANCH   3  24
ATOM     24  C   UNL     1       0.875   4.622  20.320  0.00  0.00    +0.000 C 
ATOM     25  C   UNL     1       1.192   3.643  19.184  0.00  0.00    +0.000 C 
ATOM     26  C   UNL     1       1.085   3.148  20.591  0.00  0.00    +0.000 C 
ENDBRANCH   3  24
BRANCH   1  28
ATOM     27  O   UNL     1       6.371   4.923  19.661  0.00  0.00    +0.000 OA
ATOM     28  C   UNL     1       5.328   4.651  19.098  0.00  0.00    +0.000 C 
BRANCH  28  29
ATOM     29  O   UNL     1       5.244   3.656  18.177  0.00  0.00    +0.000 OA
ATOM     30  H   UNL     1       5.726   2.822  18.411  0.00  0.00    +0.000 HD
ENDBRANCH  28  29
ENDBRANCH   1  28
TORSDOF 4
ENDMDL
MODEL 2
REMARK VINA RESULT:      -8.4      3.484      4.601
REMARK  Name = 
REMARK  4 active torsions:
REMARK  status: ('A' for Active; 'I' for Inactive)
REMARK    1  A    between atoms: C_2  and  O_3
REMARK    2  A    between atoms: C_2  and  C_4
REMARK    3  A    between atoms: C_6  and  C_7
REMARK    4  A    between atoms: C_18  and  C_19
REMARK                            x       y       z     vdW  Elec       q    Type
REMARK                         _______ _______ _______ _____ _____    ______ ____
ROOT
ATOM      1  C   UNL     1       1.708   3.874  18.657  0.00  0.00    +0.000 C 
ATOM      2  C   UNL     1       2.248   4.545  17.620  0.00  0.00    +0.000 C 
ATOM      3  C   UNL     1       2.894   5.957  17.690  0.00  0.00    +0.000 C 
ATOM      4  C   UNL     1       2.343   6.780  18.920  0.00  0.00    +0.000 C 
ATOM      5  C   UNL     1       1.847   6.033  19.960  0.00  0.00    +0.000 C 
ATOM      6  C   UNL     1       1.355   6.592  21.280  0.00  0.00    +0.000 C 
ATOM      7  C   UNL     1       1.886   7.978  21.483  0.00  0.00    +0.000 C 
ATOM      8  F   UNL     1       1.360   8.536  22.599  0.00  0.00    +0.000 F 
ATOM      9  C   UNL     1       1.462   8.619  20.209  0.00  0.00    +0.000 C 
ATOM     10  N   UNL     1       0.387   9.345  20.204  0.00  0.00    +0.000 NA
ATOM     11  N   UNL     1       0.070   9.868  18.954  0.00  0.00    +0.000 NA
ATOM     12  C   UNL     1       1.131  10.448  18.475  0.00  0.00    +0.000 C 
ATOM     13  C   UNL     1       2.339   9.458  18.157  0.00  0.00    +0.000 C 
ATOM     14  N   UNL     1       2.202   8.246  19.067  0.00  0.00    +0.000 N 
ATOM     15  C   UNL     1       1.625   4.571  19.933  0.00  0.00    +0.000 C 
ATOM     16  O   UNL     1       1.269   3.960  20.940  0.00  0.00    +0.000 OA
ENDROOT
BRANCH  12  17
ATOM     17  C   UNL     1       1.064  11.978  18.509  0.00  0.00    +0.000 A 
ATOM     18  C   UNL     1      -0.215  12.541  18.801  0.00  0.00    +0.000 A 
ATOM     19  C   UNL     1      -0.467  13.917  18.813  0.00  0.00    +0.000 A 
ATOM     20  C   UNL     1       0.575  14.788  18.559  0.00  0.00    +0.000 A 
ATOM     21  C   UNL     1       1.861  14.264  18.374  0.00  0.00    +0.000 A 
ATOM     22 CL   UNL     1       3.157  15.377  18.134  0.00  0.00    +0.000 Cl
ATOM     23  C   UNL     1       2.122  12.871  18.369  0.00  0.00    +0.000 A 
ENDBRANCH  12  17
BRANCH   3  24
ATOM     24  C   UNL     1       4.422   5.715  17.731  0.00  0.00    +0.000 C 
ATOM     25  C   UNL     1       5.252   5.683  16.443  0.00  0.00    +0.000 C 
ATOM     26  C   UNL     1       5.443   6.791  17.430  0.00  0.00    +0.000 C 
ENDBRANCH   3  24
BRANCH   1  28
ATOM     27  O   UNL     1       0.067   2.165  18.501  0.00  0.00    +0.000 OA
ATOM     28  C   UNL     1       1.246   2.462  18.538  0.00  0.00    +0.000 C 
BRANCH  28  29
ATOM     29  O   UNL     1       2.227   1.526  18.470  0.00  0.00    +0.000 OA
ATOM     30  H   UNL     1       2.214   0.847  19.192  0.00  0.00    +0.000 HD
ENDBRANCH  28  29
ENDBRANCH   1  28
TORSDOF 4
ENDMDL
MODEL 3
REMARK VINA RESULT:      -8.3      0.900      1.261
REMARK  Name = 
REMARK  4 active torsions:
REMARK  status: ('A' for Active; 'I' for Inactive)
REMARK    1  A    between atoms: C_2  and  O_3
REMARK    2  A    between atoms: C_2  and  C_4
REMARK    3  A    between atoms: C_6  and  C_7
REMARK    4  A    between atoms: C_18  and  C_19
REMARK                            x       y       z     vdW  Elec       q    Type
REMARK                         _______ _______ _______ _____ _____    ______ ____
ROOT
ATOM      1  C   UNL     1       4.111   5.395  19.351  0.00  0.00    +0.000 C 
ATOM      2  C   UNL     1       3.359   5.150  20.443  0.00  0.00    +0.000 C 
ATOM      3  C   UNL     1       1.957   5.755  20.733  0.00  0.00    +0.000 C 
ATOM      4  C   UNL     1       1.746   7.115  19.958  0.00  0.00    +0.000 C 
ATOM      5  C   UNL     1       2.514   7.280  18.830  0.00  0.00    +0.000 C 
ATOM      6  C   UNL     1       2.419   8.452  17.873  0.00  0.00    +0.000 C 
ATOM      7  C   UNL     1       1.110   9.159  18.052  0.00  0.00    +0.000 C 
ATOM      8  F   UNL     1       1.060  10.277  17.290  0.00  0.00    +0.000 F 
ATOM      9  C   UNL     1       1.134   9.406  19.518  0.00  0.00    +0.000 C 
ATOM     10  N   UNL     1       1.493  10.577  19.947  0.00  0.00    +0.000 NA
ATOM     11  N   UNL     1       1.508  10.686  21.334  0.00  0.00    +0.000 NA
ATOM     12  C   UNL     1       0.367  10.255  21.789  0.00  0.00    +0.000 C 
ATOM     13  C   UNL     1       0.104   8.701  21.550  0.00  0.00    +0.000 C 
ATOM     14  N   UNL     1       0.905   8.274  20.329  0.00  0.00    +0.000 N 
ATOM     15  C   UNL     1       3.620   6.393  18.411  0.00  0.00    +0.000 C 
ATOM     16  O   UNL     1       4.196   6.553  17.336  0.00  0.00    +0.000 OA
ENDROOT
BRANCH  12  17
ATOM     17  C   UNL     1      -0.562  11.372  22.273  0.00  0.00    +0.000 A 
ATOM     18  C   UNL     1      -1.647  10.965  23.107  0.00  0.00    +0.000 A 
ATOM     19  C   UNL     1      -2.624  11.844  23.586  0.00  0.00    +0.000 A 
ATOM     20  C   UNL     1      -2.527  13.185  23.268  0.00  0.00    +0.000 A 
ATOM     21  C   UNL     1      -1.414  13.626  22.541  0.00  0.00    +0.000 A 
ATOM     22 CL   UNL     1      -1.279  15.316  22.222  0.00  0.00    +0.000 Cl
ATOM     23  C   UNL     1      -0.420  12.740  22.059  0.00  0.00    +0.000 A 
ENDBRANCH  12  17
BRANCH   3  24
ATOM     24  C   UNL     1       0.940   4.652  20.352  0.00  0.00    +0.000 C 
ATOM     25  C   UNL     1       1.198   3.715  19.167  0.00  0.00    +0.000 C 
ATOM     26  C   UNL     1       1.197   3.176  20.562  0.00  0.00    +0.000 C 
ENDBRANCH   3  24
BRANCH   1  28
ATOM     27  O   UNL     1       6.401   4.869  19.696  0.00  0.00    +0.000 OA
ATOM     28  C   UNL     1       5.377   4.658  19.075  0.00  0.00    +0.000 C 
BRANCH  28  29
ATOM     29  O   UNL     1       5.313   3.731  18.085  0.00  0.00    +0.000 OA
ATOM     30  H   UNL     1       5.790   3.972  17.249  0.00  0.00    +0.000 HD
ENDBRANCH  28  29
ENDBRANCH   1  28
TORSDOF 4
ENDMDL
MODEL 4
REMARK VINA RESULT:      -8.2      3.230      4.399
REMARK  Name = 
REMARK  4 active torsions:
REMARK  status: ('A' for Active; 'I' for Inactive)
REMARK    1  A    between atoms: C_2  and  O_3
REMARK    2  A    between atoms: C_2  and  C_4
REMARK    3  A    between atoms: C_6  and  C_7
REMARK    4  A    between atoms: C_18  and  C_19
REMARK                            x       y       z     vdW  Elec       q    Type
REMARK                         _______ _______ _______ _____ _____    ______ ____
ROOT
ATOM      1  C   UNL     1       1.673   3.922  18.638  0.00  0.00    +0.000 C 
ATOM      2  C   UNL     1       2.245   4.587  17.614  0.00  0.00    +0.000 C 
ATOM      3  C   UNL     1       2.918   5.985  17.703  0.00  0.00    +0.000 C 
ATOM      4  C   UNL     1       2.362   6.813  18.927  0.00  0.00    +0.000 C 
ATOM      5  C   UNL     1       1.832   6.071  19.954  0.00  0.00    +0.000 C 
ATOM      6  C   UNL     1       1.328   6.633  21.269  0.00  0.00    +0.000 C 
ATOM      7  C   UNL     1       1.884   8.007  21.489  0.00  0.00    +0.000 C 
ATOM      8  F   UNL     1       1.349   8.569  22.599  0.00  0.00    +0.000 F 
ATOM      9  C   UNL     1       1.496   8.662  20.211  0.00  0.00    +0.000 C 
ATOM     10  N   UNL     1       0.435   9.410  20.191  0.00  0.00    +0.000 NA
ATOM     11  N   UNL     1       0.151   9.946  18.939  0.00  0.00    +0.000 NA
ATOM     12  C   UNL     1       1.233  10.507  18.481  0.00  0.00    +0.000 C 
ATOM     13  C   UNL     1       2.426   9.494  18.179  0.00  0.00    +0.000 C 
ATOM     14  N   UNL     1       2.248   8.281  19.080  0.00  0.00    +0.000 N 
ATOM     15  C   UNL     1       1.581   4.614  19.916  0.00  0.00    +0.000 C 
ATOM     16  O   UNL     1       1.195   4.005  20.913  0.00  0.00    +0.000 OA
ENDROOT
BRANCH  12  17
ATOM     17  C   UNL     1       1.196  12.038  18.523  0.00  0.00    +0.000 A 
ATOM     18  C   UNL     1       2.383  12.703  18.091  0.00  0.00    +0.000 A 
ATOM     19  C   UNL     1       2.544  14.092  18.122  0.00  0.00    +0.000 A 
ATOM     20  C   UNL     1       1.493  14.874  18.563  0.00  0.00    +0.000 A 
ATOM     21  C   UNL     1       0.282  14.253  18.892  0.00  0.00    +0.000 A 
ATOM     22 CL   UNL     1      -1.036  15.259  19.367  0.00  0.00    +0.000 Cl
ATOM     23  C   UNL     1       0.114  12.847  18.855  0.00  0.00    +0.000 A 
ENDBRANCH  12  17
BRANCH   3  24
ATOM     24  C   UNL     1       4.439   5.712  17.770  0.00  0.00    +0.000 C 
ATOM     25  C   UNL     1       5.287   5.644  16.494  0.00  0.00    +0.000 C 
ATOM     26  C   UNL     1       5.487   6.761  17.468  0.00  0.00    +0.000 C 
ENDBRANCH   3  24
BRANCH   1  28
ATOM     27  O   UNL     1       0.001   2.248  18.425  0.00  0.00    +0.000 OA
ATOM     28  C   UNL     1       1.184   2.520  18.503  0.00  0.00    +0.000 C 
BRANCH  28  29
ATOM     29  O   UNL     1       2.147   1.563  18.469  0.00  0.00    +0.000 OA
ATOM     30  H   UNL     1       1.964   0.802  17.861  0.00  0.00    +0.000 HD
ENDBRANCH  28  29
ENDBRANCH   1  28
TORSDOF 4
ENDMDL
MODEL 5
REMARK VINA RESULT:      -7.7      4.338      6.436
REMARK  Name = 
REMARK  4 active torsions:
REMARK  status: ('A' for Active; 'I' for Inactive)
REMARK    1  A    between atoms: C_2  and  O_3
REMARK    2  A    between atoms: C_2  and  C_4
REMARK    3  A    between atoms: C_6  and  C_7
REMARK    4  A    between atoms: C_18  and  C_19
REMARK                            x       y       z     vdW  Elec       q    Type
REMARK                         _______ _______ _______ _____ _____    ______ ____
ROOT
ATOM      1  C   UNL     1       0.381  10.178  18.477  0.00  0.00    +0.000 C 
ATOM      2  C   UNL     1      -0.881   9.776  18.227  0.00  0.00    +0.000 C 
ATOM      3  C   UNL     1      -2.148  10.675  18.284  0.00  0.00    +0.000 C 
ATOM      4  C   UNL     1      -1.923  11.926  19.221  0.00  0.00    +0.000 C 
ATOM      5  C   UNL     1      -0.615  12.308  19.398  0.00  0.00    +0.000 C 
ATOM      6  C   UNL     1      -0.159  13.530  20.171  0.00  0.00    +0.000 C 
ATOM      7  C   UNL     1      -1.295  14.495  20.327  0.00  0.00    +0.000 C 
ATOM      8  F   UNL     1      -0.936  15.534  21.117  0.00  0.00    +0.000 F 
ATOM      9  C   UNL     1      -2.331  13.600  20.909  0.00  0.00    +0.000 C 
ATOM     10  N   UNL     1      -2.521  13.619  22.192  0.00  0.00    +0.000 NA
ATOM     11  N   UNL     1      -3.491  12.722  22.629  0.00  0.00    +0.000 NA
ATOM     12  C   UNL     1      -4.560  12.897  21.908  0.00  0.00    +0.000 C 
ATOM     13  C   UNL     1      -4.389  12.523  20.368  0.00  0.00    +0.000 C 
ATOM     14  N   UNL     1      -2.919  12.686  20.009  0.00  0.00    +0.000 N 
ATOM     15  C   UNL     1       0.567  11.545  18.944  0.00  0.00    +0.000 C 
ATOM     16  O   UNL     1       1.704  12.002  19.054  0.00  0.00    +0.000 OA
ENDROOT
BRANCH  12  17
ATOM     17  C   UNL     1      -5.692  13.613  22.651  0.00  0.00    +0.000 A 
ATOM     18  C   UNL     1      -6.408  12.829  23.606  0.00  0.00    +0.000 A 
ATOM     19  C   UNL     1      -7.507  13.306  24.327  0.00  0.00    +0.000 A 
ATOM     20  C   UNL     1      -7.912  14.614  24.137  0.00  0.00    +0.000 A 
ATOM     21  C   UNL     1      -7.161  15.434  23.286  0.00  0.00    +0.000 A 
ATOM     22 CL   UNL     1      -7.644  17.083  23.125  0.00  0.00    +0.000 Cl
ATOM     23  C   UNL     1      -6.043  14.957  22.559  0.00  0.00    +0.000 A 
ENDBRANCH  12  17
BRANCH   3  24
ATOM     24  C   UNL     1      -2.464  11.042  16.814  0.00  0.00    +0.000 C 
ATOM     25  C   UNL     1      -3.136  10.033  15.875  0.00  0.00    +0.000 C 
ATOM     26  C   UNL     1      -3.869  11.266  16.297  0.00  0.00    +0.000 C 
ENDBRANCH   3  24
BRANCH   1  28
ATOM     27  O   UNL     1       1.840   8.382  19.010  0.00  0.00    +0.000 OA
ATOM     28  C   UNL     1       1.558   9.291  18.254  0.00  0.00    +0.000 C 
BRANCH  28  29
ATOM     29  O   UNL     1       2.296   9.562  17.146  0.00  0.00    +0.000 OA
ATOM     30  H   UNL     1       2.148   8.951  16.380  0.00  0.00    +0.000 HD
ENDBRANCH  28  29
ENDBRANCH   1  28
TORSDOF 4
ENDMDL
MODEL 6
REMARK VINA RESULT:      -7.5      6.855      8.974
REMARK  Name = 
REMARK  4 active torsions:
REMARK  status: ('A' for Active; 'I' for Inactive)
REMARK    1  A    between atoms: C_2  and  O_3
REMARK    2  A    between atoms: C_2  and  C_4
REMARK    3  A    between atoms: C_6  and  C_7
REMARK    4  A    between atoms: C_18  and  C_19
REMARK                            x       y       z     vdW  Elec       q    Type
REMARK                         _______ _______ _______ _____ _____    ______ ____
ROOT
ATOM      1  C   UNL     1      -5.746  12.052  19.139  0.00  0.00    +0.000 C 
ATOM      2  C   UNL     1      -5.033  11.952  17.999  0.00  0.00    +0.000 C 
ATOM      3  C   UNL     1      -3.490  11.793  17.905  0.00  0.00    +0.000 C 
ATOM      4  C   UNL     1      -2.775  12.350  19.199  0.00  0.00    +0.000 C 
ATOM      5  C   UNL     1      -3.547  12.385  20.335  0.00  0.00    +0.000 C 
ATOM      6  C   UNL     1      -3.056  12.785  21.712  0.00  0.00    +0.000 C 
ATOM      7  C   UNL     1      -1.561  12.701  21.772  0.00  0.00    +0.000 C 
ATOM      8  F   UNL     1      -1.101  13.169  22.956  0.00  0.00    +0.000 F 
ATOM      9  C   UNL     1      -1.197  13.529  20.591  0.00  0.00    +0.000 C 
ATOM     10  N   UNL     1      -0.845  14.763  20.780  0.00  0.00    +0.000 NA
ATOM     11  N   UNL     1      -0.556  15.450  19.605  0.00  0.00    +0.000 NA
ATOM     12  C   UNL     1       0.281  14.736  18.911  0.00  0.00    +0.000 C 
ATOM     13  C   UNL     1      -0.308  13.351  18.385  0.00  0.00    +0.000 C 
ATOM     14  N   UNL     1      -1.419  12.926  19.335  0.00  0.00    +0.000 N 
ATOM     15  C   UNL     1      -5.001  12.125  20.389  0.00  0.00    +0.000 C 
ATOM     16  O   UNL     1      -5.604  12.079  21.461  0.00  0.00    +0.000 OA
ENDROOT
BRANCH  12  17
ATOM     17  C   UNL     1       1.712  15.284  18.920  0.00  0.00    +0.000 A 
ATOM     18  C   UNL     1       1.906  16.512  19.621  0.00  0.00    +0.000 A 
ATOM     19  C   UNL     1       3.132  17.183  19.678  0.00  0.00    +0.000 A 
ATOM     20  C   UNL     1       4.228  16.621  19.051  0.00  0.00    +0.000 A 
ATOM     21  C   UNL     1       4.088  15.365  18.447  0.00  0.00    +0.000 A 
ATOM     22 CL   UNL     1       5.490  14.652  17.738  0.00  0.00    +0.000 Cl
ATOM     23  C   UNL     1       2.850  14.680  18.394  0.00  0.00    +0.000 A 
ENDBRANCH  12  17
BRANCH   3  24
ATOM     24  C   UNL     1      -3.240  10.287  17.650  0.00  0.00    +0.000 C 
ATOM     25  C   UNL     1      -2.900   9.769  16.248  0.00  0.00    +0.000 C 
ATOM     26  C   UNL     1      -1.876   9.711  17.337  0.00  0.00    +0.000 C 
ENDBRANCH   3  24
BRANCH   1  28
ATOM     27  O   UNL     1      -7.892  12.933  18.631  0.00  0.00    +0.000 OA
ATOM     28  C   UNL     1      -7.237  12.049  19.149  0.00  0.00    +0.000 C 
BRANCH  28  29
ATOM     29  O   UNL     1      -7.818  10.992  19.772  0.00  0.00    +0.000 OA
ATOM     30  H   UNL     1      -7.196  10.274  20.055  0.00  0.00    +0.000 HD
ENDBRANCH  28  29
ENDBRANCH   1  28
TORSDOF 4
ENDMDL
MODEL 7
REMARK VINA RESULT:      -7.4      6.755      8.931
REMARK  Name = 
REMARK  4 active torsions:
REMARK  status: ('A' for Active; 'I' for Inactive)
REMARK    1  A    between atoms: C_2  and  O_3
REMARK    2  A    between atoms: C_2  and  C_4
REMARK    3  A    between atoms: C_6  and  C_7
REMARK    4  A    between atoms: C_18  and  C_19
REMARK                            x       y       z     vdW  Elec       q    Type
REMARK                         _______ _______ _______ _____ _____    ______ ____
ROOT
ATOM      1  C   UNL     1      -5.717  12.061  19.146  0.00  0.00    +0.000 C 
ATOM      2  C   UNL     1      -4.995  11.968  18.011  0.00  0.00    +0.000 C 
ATOM      3  C   UNL     1      -3.450  11.819  17.927  0.00  0.00    +0.000 C 
ATOM      4  C   UNL     1      -2.748  12.378  19.227  0.00  0.00    +0.000 C 
ATOM      5  C   UNL     1      -3.528  12.405  20.358  0.00  0.00    +0.000 C 
ATOM      6  C   UNL     1      -3.049  12.805  21.739  0.00  0.00    +0.000 C 
ATOM      7  C   UNL     1      -1.554  12.731  21.809  0.00  0.00    +0.000 C 
ATOM      8  F   UNL     1      -1.105  13.200  22.997  0.00  0.00    +0.000 F 
ATOM      9  C   UNL     1      -1.187  13.564  20.632  0.00  0.00    +0.000 C 
ATOM     10  N   UNL     1      -0.845  14.801  20.827  0.00  0.00    +0.000 NA
ATOM     11  N   UNL     1      -0.553  15.492  19.655  0.00  0.00    +0.000 NA
ATOM     12  C   UNL     1       0.294  14.785  18.965  0.00  0.00    +0.000 C 
ATOM     13  C   UNL     1      -0.283  13.398  18.432  0.00  0.00    +0.000 C 
ATOM     14  N   UNL     1      -1.397  12.963  19.373  0.00  0.00    +0.000 N 
ATOM     15  C   UNL     1      -4.981  12.136  20.401  0.00  0.00    +0.000 C 
ATOM     16  O   UNL     1      -5.590  12.084  21.469  0.00  0.00    +0.000 OA
ENDROOT
BRANCH  12  17
ATOM     17  C   UNL     1       1.721  15.342  18.985  0.00  0.00    +0.000 A 
ATOM     18  C   UNL     1       2.627  14.773  18.041  0.00  0.00    +0.000 A 
ATOM     19  C   UNL     1       3.980  15.121  17.964  0.00  0.00    +0.000 A 
ATOM     20  C   UNL     1       4.469  16.087  18.821  0.00  0.00    +0.000 A 
ATOM     21  C   UNL     1       3.577  16.736  19.684  0.00  0.00    +0.000 A 
ATOM     22 CL   UNL     1       4.199  17.992  20.690  0.00  0.00    +0.000 Cl
ATOM     23  C   UNL     1       2.205  16.392  19.760  0.00  0.00    +0.000 A 
ENDBRANCH  12  17
BRANCH   3  24
ATOM     24  C   UNL     1      -3.189  10.316  17.671  0.00  0.00    +0.000 C 
ATOM     25  C   UNL     1      -2.709   9.820  16.302  0.00  0.00    +0.000 C 
ATOM     26  C   UNL     1      -1.805   9.731  17.490  0.00  0.00    +0.000 C 
ENDBRANCH   3  24
BRANCH   1  28
ATOM     27  O   UNL     1      -7.865  12.886  18.559  0.00  0.00    +0.000 OA
ATOM     28  C   UNL     1      -7.207  12.048  19.146  0.00  0.00    +0.000 C 
BRANCH  28  29
ATOM     29  O   UNL     1      -7.786  11.036  19.842  0.00  0.00    +0.000 OA
ATOM     30  H   UNL     1      -7.199  10.258  20.023  0.00  0.00    +0.000 HD
ENDBRANCH  28  29
ENDBRANCH   1  28
TORSDOF 4
ENDMDL
MODEL 8
REMARK VINA RESULT:      -7.2      3.510      5.403
REMARK  Name = 
REMARK  4 active torsions:
REMARK  status: ('A' for Active; 'I' for Inactive)
REMARK    1  A    between atoms: C_2  and  O_3
REMARK    2  A    between atoms: C_2  and  C_4
REMARK    3  A    between atoms: C_6  and  C_7
REMARK    4  A    between atoms: C_18  and  C_19
REMARK                            x       y       z     vdW  Elec       q    Type
REMARK                         _______ _______ _______ _____ _____    ______ ____
ROOT
ATOM      1  C   UNL     1       6.172   4.664  14.626  0.00  0.00    +0.000 C 
ATOM      2  C   UNL     1       6.445   5.967  14.842  0.00  0.00    +0.000 C 
ATOM      3  C   UNL     1       6.173   6.744  16.160  0.00  0.00    +0.000 C 
ATOM      4  C   UNL     1       5.025   6.062  17.003  0.00  0.00    +0.000 C 
ATOM      5  C   UNL     1       4.828   4.723  16.763  0.00  0.00    +0.000 C 
ATOM      6  C   UNL     1       3.856   3.835  17.514  0.00  0.00    +0.000 C 
ATOM      7  C   UNL     1       3.478   4.471  18.818  0.00  0.00    +0.000 C 
ATOM      8  F   UNL     1       2.520   3.748  19.445  0.00  0.00    +0.000 F 
ATOM      9  C   UNL     1       3.037   5.811  18.346  0.00  0.00    +0.000 C 
ATOM     10  N   UNL     1       1.767   6.034  18.202  0.00  0.00    +0.000 NA
ATOM     11  N   UNL     1       1.472   7.309  17.728  0.00  0.00    +0.000 NA
ATOM     12  C   UNL     1       2.106   8.174  18.465  0.00  0.00    +0.000 C 
ATOM     13  C   UNL     1       3.695   8.103  18.349  0.00  0.00    +0.000 C 
ATOM     14  N   UNL     1       4.071   6.685  17.947  0.00  0.00    +0.000 N 
ATOM     15  C   UNL     1       5.462   3.947  15.676  0.00  0.00    +0.000 C 
ATOM     16  O   UNL     1       5.310   2.729  15.587  0.00  0.00    +0.000 OA
ENDROOT
BRANCH  12  17
ATOM     17  C   UNL     1       1.199   8.936  19.436  0.00  0.00    +0.000 A 
ATOM     18  C   UNL     1       0.335   9.910  18.849  0.00  0.00    +0.000 A 
ATOM     19  C   UNL     1      -0.513  10.737  19.594  0.00  0.00    +0.000 A 
ATOM     20  C   UNL     1      -0.546  10.592  20.968  0.00  0.00    +0.000 A 
ATOM     21  C   UNL     1       0.213   9.573  21.557  0.00  0.00    +0.000 A 
ATOM     22 CL   UNL     1       0.095   9.366  23.265  0.00  0.00    +0.000 Cl
ATOM     23  C   UNL     1       1.067   8.729  20.805  0.00  0.00    +0.000 A 
ENDBRANCH  12  17
BRANCH   3  24
ATOM     24  C   UNL     1       7.534   6.812  16.893  0.00  0.00    +0.000 C 
ATOM     25  C   UNL     1       7.883   7.995  17.803  0.00  0.00    +0.000 C 
ATOM     26  C   UNL     1       7.682   6.634  18.389  0.00  0.00    +0.000 C 
ENDBRANCH   3  24
BRANCH   1  28
ATOM     27  O   UNL     1       7.494   4.375  12.675  0.00  0.00    +0.000 OA
ATOM     28  C   UNL     1       6.602   3.955  13.387  0.00  0.00    +0.000 C 
BRANCH  28  29
ATOM     29  O   UNL     1       5.936   2.806  13.107  0.00  0.00    +0.000 OA
ATOM     30  H   UNL     1       5.373   2.453  13.843  0.00  0.00    +0.000 HD
ENDBRANCH  28  29
ENDBRANCH   1  28
TORSDOF 4
ENDMDL
MODEL 9
REMARK VINA RESULT:      -7.2      4.819      8.488
REMARK  Name = 
REMARK  4 active torsions:
REMARK  status: ('A' for Active; 'I' for Inactive)
REMARK    1  A    between atoms: C_2  and  O_3
REMARK    2  A    between atoms: C_2  and  C_4
REMARK    3  A    between atoms: C_6  and  C_7
REMARK    4  A    between atoms: C_18  and  C_19
REMARK                            x       y       z     vdW  Elec       q    Type
REMARK                         _______ _______ _______ _____ _____    ______ ____
ROOT
ATOM      1  C   UNL     1       0.224  13.695  20.930  0.00  0.00    +0.000 C 
ATOM      2  C   UNL     1       0.403  13.543  19.602  0.00  0.00    +0.000 C 
ATOM      3  C   UNL     1       0.118  12.249  18.790  0.00  0.00    +0.000 C 
ATOM      4  C   UNL     1       0.173  10.968  19.713  0.00  0.00    +0.000 C 
ATOM      5  C   UNL     1      -0.060  11.188  21.049  0.00  0.00    +0.000 C 
ATOM      6  C   UNL     1      -0.155  10.109  22.109  0.00  0.00    +0.000 C 
ATOM      7  C   UNL     1      -0.411   8.779  21.468  0.00  0.00    +0.000 C 
ATOM      8  F   UNL     1      -0.379   7.788  22.391  0.00  0.00    +0.000 F 
ATOM      9  C   UNL     1       0.696   8.740  20.475  0.00  0.00    +0.000 C 
ATOM     10  N   UNL     1       1.768   8.069  20.763  0.00  0.00    +0.000 NA
ATOM     11  N   UNL     1       2.748   8.127  19.776  0.00  0.00    +0.000 NA
ATOM     12  C   UNL     1       2.195   7.827  18.637  0.00  0.00    +0.000 C 
ATOM     13  C   UNL     1       1.109   8.877  18.131  0.00  0.00    +0.000 C 
ATOM     14  N   UNL     1       0.533   9.579  19.352  0.00  0.00    +0.000 N 
ATOM     15  C   UNL     1      -0.168  12.516  21.691  0.00  0.00    +0.000 C 
ATOM     16  O   UNL     1      -0.476  12.631  22.876  0.00  0.00    +0.000 OA
ENDROOT
BRANCH  12  17
ATOM     17  C   UNL     1       2.560   6.429  18.127  0.00  0.00    +0.000 A 
ATOM     18  C   UNL     1       1.502   5.470  18.120  0.00  0.00    +0.000 A 
ATOM     19  C   UNL     1       1.674   4.134  17.744  0.00  0.00    +0.000 A 
ATOM     20  C   UNL     1       2.923   3.715  17.327  0.00  0.00    +0.000 A 
ATOM     21  C   UNL     1       3.951   4.660  17.224  0.00  0.00    +0.000 A 
ATOM     22 CL   UNL     1       5.479   4.126  16.628  0.00  0.00    +0.000 Cl
ATOM     23  C   UNL     1       3.778   6.016  17.597  0.00  0.00    +0.000 A 
ENDBRANCH  12  17
BRANCH   3  24
ATOM     24  C   UNL     1      -1.254  12.475  18.113  0.00  0.00    +0.000 C 
ATOM     25  C   UNL     1      -1.879  11.400  17.215  0.00  0.00    +0.000 C 
ATOM     26  C   UNL     1      -2.515  11.745  18.524  0.00  0.00    +0.000 C 
ENDBRANCH   3  24
BRANCH   1  28
ATOM     27  O   UNL     1      -0.270  15.991  21.282  0.00  0.00    +0.000 OA
ATOM     28  C   UNL     1       0.376  15.014  21.608  0.00  0.00    +0.000 C 
BRANCH  28  29
ATOM     29  O   UNL     1       1.282  15.054  22.619  0.00  0.00    +0.000 OA
ATOM     30  H   UNL     1       0.947  14.744  23.499  0.00  0.00    +0.000 HD
ENDBRANCH  28  29
ENDBRANCH   1  28
TORSDOF 4
ENDMDL
