MODEL 1
REMARK VINA RESULT:      -6.4      0.000      0.000
REMARK  Name = 
REMARK  3 active torsions:
REMARK  status: ('A' for Active; 'I' for Inactive)
REMARK    1  A    between atoms: C_1  and  C_2
REMARK    2  A    between atoms: C_2  and  C_3
REMARK    3  A    between atoms: C_6  and  C_7
REMARK                            x       y       z     vdW  Elec       q    Type
REMARK                         _______ _______ _______ _____ _____    ______ ____
ROOT
ATOM      1  C   UNL     1       2.136   3.604  18.260  0.00  0.00    +0.000 A 
ATOM      2  C   UNL     1       3.112   2.743  17.742  0.00  0.00    +0.000 A 
ATOM      3  C   UNL     1       4.288   3.257  17.186  0.00  0.00    +0.000 A 
ATOM      4  C   UNL     1       4.508   4.639  17.131  0.00  0.00    +0.000 A 
ATOM      5  C   UNL     1       3.536   5.498  17.662  0.00  0.00    +0.000 A 
ATOM      6  C   UNL     1       2.363   4.984  18.225  0.00  0.00    +0.000 A 
ENDROOT
BRANCH   4   7
ATOM      7  C   UNL     1       5.731   5.152  16.547  0.00  0.00    +0.000 A 
ATOM      8  C   UNL     1       6.483   6.213  17.002  0.00  0.00    +0.000 A 
ATOM      9  N   UNL     1       7.510   6.289  16.110  0.00  0.00    +0.000 N 
ATOM     10  N   UNL     1       7.408   5.352  15.158  0.00  0.00    +0.000 NA
ATOM     11  N   UNL     1       6.310   4.650  15.409  0.00  0.00    +0.000 NA
ATOM     12  H   UNL     1       8.292   6.933  16.077  0.00  0.00    +0.000 HD
ENDBRANCH   4   7
BRANCH   1  14
ATOM     13  C   UNL     1       0.829   3.186  20.372  0.00  0.00    +0.000 C 
ATOM     14  C   UNL     1       0.867   3.053  18.857  0.00  0.00    +0.000 C 
ENDBRANCH   1  14
TORSDOF 2
ENDMDL
MODEL 2
REMARK VINA RESULT:      -6.4      1.081      1.460
REMARK  Name = 
REMARK  3 active torsions:
REMARK  status: ('A' for Active; 'I' for Inactive)
REMARK    1  A    between atoms: C_1  and  C_2
REMARK    2  A    between atoms: C_2  and  C_3
REMARK    3  A    between atoms: C_6  and  C_7
REMARK                            x       y       z     vdW  Elec       q    Type
REMARK                         _______ _______ _______ _____ _____    ______ ____
ROOT
ATOM      1  C   UNL     1       2.241   4.073  19.214  0.00  0.00    +0.000 A 
ATOM      2  C   UNL     1       2.460   3.662  17.894  0.00  0.00    +0.000 A 
ATOM      3  C   UNL     1       3.603   4.075  17.202  0.00  0.00    +0.000 A 
ATOM      4  C   UNL     1       4.544   4.913  17.813  0.00  0.00    +0.000 A 
ATOM      5  C   UNL     1       4.329   5.314  19.139  0.00  0.00    +0.000 A 
ATOM      6  C   UNL     1       3.190   4.893  19.834  0.00  0.00    +0.000 A 
ENDROOT
BRANCH   4   7
ATOM      7  C   UNL     1       5.719   5.335  17.078  0.00  0.00    +0.000 A 
ATOM      8  C   UNL     1       6.354   4.644  16.068  0.00  0.00    +0.000 A 
ATOM      9  N   UNL     1       7.392   5.456  15.722  0.00  0.00    +0.000 N 
ATOM     10  N   UNL     1       7.416   6.570  16.465  0.00  0.00    +0.000 NA
ATOM     11  N   UNL     1       6.397   6.504  17.312  0.00  0.00    +0.000 NA
ATOM     12  H   UNL     1       8.109   5.325  15.018  0.00  0.00    +0.000 HD
ENDBRANCH   4   7
BRANCH   1  14
ATOM     13  C   UNL     1       1.341   2.927  21.268  0.00  0.00    +0.000 C 
ATOM     14  C   UNL     1       1.009   3.631  19.961  0.00  0.00    +0.000 C 
ENDBRANCH   1  14
TORSDOF 2
ENDMDL
MODEL 3
REMARK VINA RESULT:      -6.3      1.095      1.149
REMARK  Name = 
REMARK  3 active torsions:
REMARK  status: ('A' for Active; 'I' for Inactive)
REMARK    1  A    between atoms: C_1  and  C_2
REMARK    2  A    between atoms: C_2  and  C_3
REMARK    3  A    between atoms: C_6  and  C_7
REMARK                            x       y       z     vdW  Elec       q    Type
REMARK                         _______ _______ _______ _____ _____    ______ ____
ROOT
ATOM      1  C   UNL     1       2.335   3.511  19.302  0.00  0.00    +0.000 A 
ATOM      2  C   UNL     1       3.634   3.263  19.763  0.00  0.00    +0.000 A 
ATOM      3  C   UNL     1       4.742   3.714  19.039  0.00  0.00    +0.000 A 
ATOM      4  C   UNL     1       4.574   4.414  17.838  0.00  0.00    +0.000 A 
ATOM      5  C   UNL     1       3.274   4.673  17.385  0.00  0.00    +0.000 A 
ATOM      6  C   UNL     1       2.165   4.229  18.113  0.00  0.00    +0.000 A 
ENDROOT
BRANCH   4   7
ATOM      7  C   UNL     1       5.736   4.869  17.101  0.00  0.00    +0.000 A 
ATOM      8  C   UNL     1       6.339   6.105  17.189  0.00  0.00    +0.000 A 
ATOM      9  N   UNL     1       7.368   6.028  16.298  0.00  0.00    +0.000 N 
ATOM     10  N   UNL     1       7.404   4.836  15.687  0.00  0.00    +0.000 NA
ATOM     11  N   UNL     1       6.397   4.116  16.164  0.00  0.00    +0.000 NA
ATOM     12  H   UNL     1       8.064   6.722  16.052  0.00  0.00    +0.000 HD
ENDBRANCH   4   7
BRANCH   1  14
ATOM     13  C   UNL     1       1.477   2.701  21.527  0.00  0.00    +0.000 C 
ATOM     14  C   UNL     1       1.139   3.023  20.079  0.00  0.00    +0.000 C 
ENDBRANCH   1  14
TORSDOF 2
ENDMDL
MODEL 4
REMARK VINA RESULT:      -6.3      0.813      1.771
REMARK  Name = 
REMARK  3 active torsions:
REMARK  status: ('A' for Active; 'I' for Inactive)
REMARK    1  A    between atoms: C_1  and  C_2
REMARK    2  A    between atoms: C_2  and  C_3
REMARK    3  A    between atoms: C_6  and  C_7
REMARK                            x       y       z     vdW  Elec       q    Type
REMARK                         _______ _______ _______ _____ _____    ______ ____
ROOT
ATOM      1  C   UNL     1       2.096   4.059  18.834  0.00  0.00    +0.000 A 
ATOM      2  C   UNL     1       2.435   5.395  18.582  0.00  0.00    +0.000 A 
ATOM      3  C   UNL     1       3.523   5.708  17.761  0.00  0.00    +0.000 A 
ATOM      4  C   UNL     1       4.296   4.694  17.181  0.00  0.00    +0.000 A 
ATOM      5  C   UNL     1       3.948   3.359  17.424  0.00  0.00    +0.000 A 
ATOM      6  C   UNL     1       2.855   3.045  18.239  0.00  0.00    +0.000 A 
ENDROOT
BRANCH   4   7
ATOM      7  C   UNL     1       5.422   5.040  16.338  0.00  0.00    +0.000 A 
ATOM      8  C   UNL     1       5.580   4.733  15.003  0.00  0.00    +0.000 A 
ATOM      9  N   UNL     1       6.792   5.269  14.688  0.00  0.00    +0.000 N 
ATOM     10  N   UNL     1       7.361   5.861  15.747  0.00  0.00    +0.000 NA
ATOM     11  N   UNL     1       6.533   5.718  16.773  0.00  0.00    +0.000 NA
ATOM     12  H   UNL     1       7.290   5.270  13.805  0.00  0.00    +0.000 HD
ENDBRANCH   4   7
BRANCH   1  14
ATOM     13  C   UNL     1       1.349   3.001  20.993  0.00  0.00    +0.000 C 
ATOM     14  C   UNL     1       0.926   3.719  19.721  0.00  0.00    +0.000 C 
ENDBRANCH   1  14
TORSDOF 2
ENDMDL
MODEL 5
REMARK VINA RESULT:      -6.3      1.189      1.614
REMARK  Name = 
REMARK  3 active torsions:
REMARK  status: ('A' for Active; 'I' for Inactive)
REMARK    1  A    between atoms: C_1  and  C_2
REMARK    2  A    between atoms: C_2  and  C_3
REMARK    3  A    between atoms: C_6  and  C_7
REMARK                            x       y       z     vdW  Elec       q    Type
REMARK                         _______ _______ _______ _____ _____    ______ ____
ROOT
ATOM      1  C   UNL     1       2.667   3.013  18.978  0.00  0.00    +0.000 A 
ATOM      2  C   UNL     1       3.828   3.432  19.640  0.00  0.00    +0.000 A 
ATOM      3  C   UNL     1       4.872   4.034  18.931  0.00  0.00    +0.000 A 
ATOM      4  C   UNL     1       4.779   4.223  17.546  0.00  0.00    +0.000 A 
ATOM      5  C   UNL     1       3.612   3.815  16.887  0.00  0.00    +0.000 A 
ATOM      6  C   UNL     1       2.564   3.220  17.597  0.00  0.00    +0.000 A 
ENDROOT
BRANCH   4   7
ATOM      7  C   UNL     1       5.874   4.844  16.829  0.00  0.00    +0.000 A 
ATOM      8  C   UNL     1       6.508   4.358  15.706  0.00  0.00    +0.000 A 
ATOM      9  N   UNL     1       7.456   5.298  15.436  0.00  0.00    +0.000 N 
ATOM     10  N   UNL     1       7.429   6.297  16.327  0.00  0.00    +0.000 NA
ATOM     11  N   UNL     1       6.466   6.025  17.198  0.00  0.00    +0.000 NA
ATOM     12  H   UNL     1       8.143   5.330  14.690  0.00  0.00    +0.000 HD
ENDBRANCH   4   7
BRANCH   1  14
ATOM     13  C   UNL     1       1.345   2.968  21.121  0.00  0.00    +0.000 C 
ATOM     14  C   UNL     1       1.542   2.362  19.740  0.00  0.00    +0.000 C 
ENDBRANCH   1  14
TORSDOF 2
ENDMDL
MODEL 6
REMARK VINA RESULT:      -6.3      1.132      1.616
REMARK  Name = 
REMARK  3 active torsions:
REMARK  status: ('A' for Active; 'I' for Inactive)
REMARK    1  A    between atoms: C_1  and  C_2
REMARK    2  A    between atoms: C_2  and  C_3
REMARK    3  A    between atoms: C_6  and  C_7
REMARK                            x       y       z     vdW  Elec       q    Type
REMARK                         _______ _______ _______ _____ _____    ______ ____
ROOT
ATOM      1  C   UNL     1       2.827   4.854  18.703  0.00  0.00    +0.000 A 
ATOM      2  C   UNL     1       3.252   3.682  18.063  0.00  0.00    +0.000 A 
ATOM      3  C   UNL     1       4.234   3.733  17.069  0.00  0.00    +0.000 A 
ATOM      4  C   UNL     1       4.805   4.954  16.690  0.00  0.00    +0.000 A 
ATOM      5  C   UNL     1       4.388   6.124  17.339  0.00  0.00    +0.000 A 
ATOM      6  C   UNL     1       3.411   6.073  18.340  0.00  0.00    +0.000 A 
ENDROOT
BRANCH   4   7
ATOM      7  C   UNL     1       5.817   4.986  15.654  0.00  0.00    +0.000 A 
ATOM      8  C   UNL     1       5.760   4.369  14.423  0.00  0.00    +0.000 A 
ATOM      9  N   UNL     1       6.947   4.696  13.840  0.00  0.00    +0.000 N 
ATOM     10  N   UNL     1       7.701   5.455  14.646  0.00  0.00    +0.000 NA
ATOM     11  N   UNL     1       7.022   5.632  15.772  0.00  0.00    +0.000 NA
ATOM     12  H   UNL     1       7.310   4.447  12.927  0.00  0.00    +0.000 HD
ENDBRANCH   4   7
BRANCH   1  14
ATOM     13  C   UNL     1       1.017   3.480  19.787  0.00  0.00    +0.000 C 
ATOM     14  C   UNL     1       1.767   4.803  19.773  0.00  0.00    +0.000 C 
ENDBRANCH   1  14
TORSDOF 2
ENDMDL
MODEL 7
REMARK VINA RESULT:      -6.3      1.178      1.666
REMARK  Name = 
REMARK  3 active torsions:
REMARK  status: ('A' for Active; 'I' for Inactive)
REMARK    1  A    between atoms: C_1  and  C_2
REMARK    2  A    between atoms: C_2  and  C_3
REMARK    3  A    between atoms: C_6  and  C_7
REMARK                            x       y       z     vdW  Elec       q    Type
REMARK                         _______ _______ _______ _____ _____    ______ ____
ROOT
ATOM      1  C   UNL     1       2.253   3.678  19.443  0.00  0.00    +0.000 A 
ATOM      2  C   UNL     1       2.075   4.554  18.365  0.00  0.00    +0.000 A 
ATOM      3  C   UNL     1       3.155   4.905  17.549  0.00  0.00    +0.000 A 
ATOM      4  C   UNL     1       4.435   4.394  17.799  0.00  0.00    +0.000 A 
ATOM      5  C   UNL     1       4.609   3.508  18.871  0.00  0.00    +0.000 A 
ATOM      6  C   UNL     1       3.527   3.150  19.682  0.00  0.00    +0.000 A 
ENDROOT
BRANCH   4   7
ATOM      7  C   UNL     1       5.542   4.774  16.946  0.00  0.00    +0.000 A 
ATOM      8  C   UNL     1       6.879   4.518  17.163  0.00  0.00    +0.000 A 
ATOM      9  N   UNL     1       7.496   5.083  16.087  0.00  0.00    +0.000 N 
ATOM     10  N   UNL     1       6.616   5.659  15.259  0.00  0.00    +0.000 NA
ATOM     11  N   UNL     1       5.408   5.486  15.781  0.00  0.00    +0.000 NA
ATOM     12  H   UNL     1       8.482   5.122  15.854  0.00  0.00    +0.000 HD
ENDBRANCH   4   7
BRANCH   1  14
ATOM     13  C   UNL     1       1.535   2.702  21.651  0.00  0.00    +0.000 C 
ATOM     14  C   UNL     1       1.091   3.301  20.325  0.00  0.00    +0.000 C 
ENDBRANCH   1  14
TORSDOF 2
ENDMDL
MODEL 8
REMARK VINA RESULT:      -6.2      1.167      1.570
REMARK  Name = 
REMARK  3 active torsions:
REMARK  status: ('A' for Active; 'I' for Inactive)
REMARK    1  A    between atoms: C_1  and  C_2
REMARK    2  A    between atoms: C_2  and  C_3
REMARK    3  A    between atoms: C_6  and  C_7
REMARK                            x       y       z     vdW  Elec       q    Type
REMARK                         _______ _______ _______ _____ _____    ______ ____
ROOT
ATOM      1  C   UNL     1       2.936   2.970  18.986  0.00  0.00    +0.000 A 
ATOM      2  C   UNL     1       2.830   3.069  17.593  0.00  0.00    +0.000 A 
ATOM      3  C   UNL     1       3.840   3.684  16.847  0.00  0.00    +0.000 A 
ATOM      4  C   UNL     1       4.971   4.218  17.478  0.00  0.00    +0.000 A 
ATOM      5  C   UNL     1       5.081   4.107  18.870  0.00  0.00    +0.000 A 
ATOM      6  C   UNL     1       4.074   3.485  19.617  0.00  0.00    +0.000 A 
ENDROOT
BRANCH   4   7
ATOM      7  C   UNL     1       6.003   4.856  16.687  0.00  0.00    +0.000 A 
ATOM      8  C   UNL     1       6.482   4.441  15.462  0.00  0.00    +0.000 A 
ATOM      9  N   UNL     1       7.434   5.365  15.156  0.00  0.00    +0.000 N 
ATOM     10  N   UNL     1       7.555   6.288  16.119  0.00  0.00    +0.000 NA
ATOM     11  N   UNL     1       6.687   5.981  17.074  0.00  0.00    +0.000 NA
ATOM     12  H   UNL     1       8.032   5.432  14.340  0.00  0.00    +0.000 HD
ENDBRANCH   4   7
BRANCH   1  14
ATOM     13  C   UNL     1       0.858   3.313  20.367  0.00  0.00    +0.000 C 
ATOM     14  C   UNL     1       1.847   2.310  19.793  0.00  0.00    +0.000 C 
ENDBRANCH   1  14
TORSDOF 2
ENDMDL
MODEL 9
REMARK VINA RESULT:      -6.1      3.816      5.754
REMARK  Name = 
REMARK  3 active torsions:
REMARK  status: ('A' for Active; 'I' for Inactive)
REMARK    1  A    between atoms: C_1  and  C_2
REMARK    2  A    between atoms: C_2  and  C_3
REMARK    3  A    between atoms: C_6  and  C_7
REMARK                            x       y       z     vdW  Elec       q    Type
REMARK                         _______ _______ _______ _____ _____    ______ ____
ROOT
ATOM      1  C   UNL     1       4.651   5.167  16.653  0.00  0.00    +0.000 A 
ATOM      2  C   UNL     1       4.020   5.997  17.588  0.00  0.00    +0.000 A 
ATOM      3  C   UNL     1       3.308   5.447  18.659  0.00  0.00    +0.000 A 
ATOM      4  C   UNL     1       3.205   4.058  18.811  0.00  0.00    +0.000 A 
ATOM      5  C   UNL     1       3.848   3.230  17.881  0.00  0.00    +0.000 A 
ATOM      6  C   UNL     1       4.567   3.779  16.815  0.00  0.00    +0.000 A 
ENDROOT
BRANCH   4   7
ATOM      7  C   UNL     1       2.458   3.509  19.924  0.00  0.00    +0.000 A 
ATOM      8  C   UNL     1       1.091   3.530  20.092  0.00  0.00    +0.000 A 
ATOM      9  N   UNL     1       0.900   2.899  21.285  0.00  0.00    +0.000 N 
ATOM     10  N   UNL     1       2.062   2.518  21.832  0.00  0.00    +0.000 NA
ATOM     11  N   UNL     1       3.031   2.897  21.010  0.00  0.00    +0.000 NA
ATOM     12  H   UNL     1       0.040   2.700  21.781  0.00  0.00    +0.000 HD
ENDBRANCH   4   7
BRANCH   1  14
ATOM     13  C   UNL     1       6.176   4.705  14.703  0.00  0.00    +0.000 C 
ATOM     14  C   UNL     1       5.417   5.757  15.497  0.00  0.00    +0.000 C 
ENDBRANCH   1  14
TORSDOF 2
ENDMDL
