MODEL 1
REMARK VINA RESULT:      -8.0      0.000      0.000
REMARK  Name = 
REMARK  6 active torsions:
REMARK  status: ('A' for Active; 'I' for Inactive)
REMARK    1  A    between atoms: C_1  and  O_2
REMARK    2  A    between atoms: O_2  and  C_3
REMARK    3  A    between atoms: C_6  and  C_7
REMARK    4  A    between atoms: C_7  and  C_8
REMARK    5  A    between atoms: C_10  and  C_11
REMARK    6  A    between atoms: C_15  and  C_17
REMARK                            x       y       z     vdW  Elec       q    Type
REMARK                         _______ _______ _______ _____ _____    ______ ____
ROOT
ATOM      1  C   UNL     1       0.589  11.705  18.817  0.00  0.00    +0.000 C 
ATOM      2  C   UNL     1       1.231  12.593  19.897  0.00  0.00    +0.000 C 
ATOM      3  C   UNL     1       0.753  12.225  21.299  0.00  0.00    +0.000 C 
ATOM      4  N   UNL     1      -0.704  12.298  21.390  0.00  0.00    +0.000 N 
ATOM      5  C   UNL     1      -1.253  12.920  22.528  0.00  0.00    +0.000 C 
ATOM      6  O   UNL     1      -0.577  13.544  23.344  0.00  0.00    +0.000 OA
ATOM      7  C   UNL     1      -1.427  11.521  20.369  0.00  0.00    +0.000 C 
ATOM      8  C   UNL     1      -0.933  11.779  18.949  0.00  0.00    +0.000 C 
ENDROOT
BRANCH   5   9
ATOM      9  C   UNL     1      -2.726  12.926  22.727  0.00  0.00    +0.000 A 
ATOM     10  C   UNL     1      -3.245  12.225  23.842  0.00  0.00    +0.000 A 
ATOM     11  C   UNL     1      -4.547  12.469  24.288  0.00  0.00    +0.000 A 
ATOM     12  C   UNL     1      -5.247  13.458  23.637  0.00  0.00    +0.000 A 
ATOM     13  C   UNL     1      -4.774  14.047  22.483  0.00  0.00    +0.000 A 
ATOM     14  C   UNL     1      -3.557  13.722  21.941  0.00  0.00    +0.000 A 
ATOM     15  O   UNL     1      -5.561  15.082  22.077  0.00  0.00    +0.000 OA
ATOM     16  C   UNL     1      -6.332  15.265  23.281  0.00  0.00    +0.000 C 
ATOM     17  O   UNL     1      -6.387  14.059  24.077  0.00  0.00    +0.000 OA
ENDBRANCH   5   9
BRANCH   1  20
ATOM     18  C   UNL     1       2.279   8.494  18.277  0.00  0.00    +0.000 A 
ATOM     19  C   UNL     1       1.926   9.722  17.785  0.00  0.00    +0.000 A 
ATOM     20  C   UNL     1       1.164  10.316  18.818  0.00  0.00    +0.000 A 
ATOM     21  N   UNL     1       1.001   9.465  19.839  0.00  0.00    +0.000 NA
ATOM     22  O   UNL     1       1.710   8.324  19.499  0.00  0.00    +0.000 OA
BRANCH  18  23
ATOM     23  C   UNL     1       3.136   7.403  17.771  0.00  0.00    +0.000 C 
BRANCH  23  27
ATOM     24  C   UNL     1       2.129   3.664  19.709  0.00  0.00    +0.000 A 
ATOM     25  C   UNL     1       1.491   4.046  18.528  0.00  0.00    +0.000 A 
ATOM     26  C   UNL     1       1.832   5.240  17.889  0.00  0.00    +0.000 A 
ATOM     27  C   UNL     1       2.814   6.078  18.431  0.00  0.00    +0.000 A 
ATOM     28  C   UNL     1       3.438   5.699  19.630  0.00  0.00    +0.000 A 
ATOM     29  C   UNL     1       3.098   4.499  20.263  0.00  0.00    +0.000 A 
BRANCH  24  31
ATOM     30  C   UNL     1       1.545   2.468  21.667  0.00  0.00    +0.000 C 
ATOM     31  O   UNL     1       1.692   2.488  20.252  0.00  0.00    +0.000 OA
ENDBRANCH  24  31
ENDBRANCH  23  27
ENDBRANCH  18  23
ENDBRANCH   1  20
TORSDOF 5
ENDMDL
MODEL 2
REMARK VINA RESULT:      -8.0      4.126      9.967
REMARK  Name = 
REMARK  6 active torsions:
REMARK  status: ('A' for Active; 'I' for Inactive)
REMARK    1  A    between atoms: C_1  and  O_2
REMARK    2  A    between atoms: O_2  and  C_3
REMARK    3  A    between atoms: C_6  and  C_7
REMARK    4  A    between atoms: C_7  and  C_8
REMARK    5  A    between atoms: C_10  and  C_11
REMARK    6  A    between atoms: C_15  and  C_17
REMARK                            x       y       z     vdW  Elec       q    Type
REMARK                         _______ _______ _______ _____ _____    ______ ____
ROOT
ATOM      1  C   UNL     1       0.176  10.727  19.375  0.00  0.00    +0.000 C 
ATOM      2  C   UNL     1      -0.132   9.796  20.560  0.00  0.00    +0.000 C 
ATOM      3  C   UNL     1       1.085   8.971  20.970  0.00  0.00    +0.000 C 
ATOM      4  N   UNL     1       1.594   8.194  19.841  0.00  0.00    +0.000 N 
ATOM      5  C   UNL     1       1.942   6.851  20.081  0.00  0.00    +0.000 C 
ATOM      6  O   UNL     1       1.677   6.267  21.129  0.00  0.00    +0.000 OA
ATOM      7  C   UNL     1       1.879   8.981  18.629  0.00  0.00    +0.000 C 
ATOM      8  C   UNL     1       0.730   9.895  18.217  0.00  0.00    +0.000 C 
ENDROOT
BRANCH   5   9
ATOM      9  C   UNL     1       2.567   6.046  18.999  0.00  0.00    +0.000 A 
ATOM     10  C   UNL     1       3.959   6.192  18.786  0.00  0.00    +0.000 A 
ATOM     11  C   UNL     1       4.666   5.240  18.048  0.00  0.00    +0.000 A 
ATOM     12  C   UNL     1       3.956   4.144  17.614  0.00  0.00    +0.000 A 
ATOM     13  C   UNL     1       2.584   4.074  17.726  0.00  0.00    +0.000 A 
ATOM     14  C   UNL     1       1.846   5.066  18.321  0.00  0.00    +0.000 A 
ATOM     15  O   UNL     1       2.100   2.857  17.349  0.00  0.00    +0.000 OA
ATOM     16  C   UNL     1       3.337   2.116  17.342  0.00  0.00    +0.000 C 
ATOM     17  O   UNL     1       4.483   2.977  17.150  0.00  0.00    +0.000 OA
ENDBRANCH   5   9
BRANCH   1  20
ATOM     18  C   UNL     1       2.128  13.805  19.793  0.00  0.00    +0.000 A 
ATOM     19  C   UNL     1       1.449  12.960  18.956  0.00  0.00    +0.000 A 
ATOM     20  C   UNL     1       1.025  11.897  19.786  0.00  0.00    +0.000 A 
ATOM     21  N   UNL     1       1.489  12.053  21.033  0.00  0.00    +0.000 NA
ATOM     22  O   UNL     1       2.175  13.256  21.035  0.00  0.00    +0.000 OA
BRANCH  18  23
ATOM     23  C   UNL     1       2.750  15.132  19.614  0.00  0.00    +0.000 C 
BRANCH  23  27
ATOM     24  C   UNL     1       6.983  14.719  18.798  0.00  0.00    +0.000 A 
ATOM     25  C   UNL     1       6.046  14.603  17.769  0.00  0.00    +0.000 A 
ATOM     26  C   UNL     1       4.683  14.760  18.027  0.00  0.00    +0.000 A 
ATOM     27  C   UNL     1       4.234  15.027  19.326  0.00  0.00    +0.000 A 
ATOM     28  C   UNL     1       5.178  15.122  20.360  0.00  0.00    +0.000 A 
ATOM     29  C   UNL     1       6.543  14.971  20.097  0.00  0.00    +0.000 A 
BRANCH  24  31
ATOM     30  C   UNL     1       8.778  13.195  18.561  0.00  0.00    +0.000 C 
ATOM     31  O   UNL     1       8.283  14.521  18.425  0.00  0.00    +0.000 OA
ENDBRANCH  24  31
ENDBRANCH  23  27
ENDBRANCH  18  23
ENDBRANCH   1  20
TORSDOF 5
ENDMDL
MODEL 3
REMARK VINA RESULT:      -8.0      3.003      3.913
REMARK  Name = 
REMARK  6 active torsions:
REMARK  status: ('A' for Active; 'I' for Inactive)
REMARK    1  A    between atoms: C_1  and  O_2
REMARK    2  A    between atoms: O_2  and  C_3
REMARK    3  A    between atoms: C_6  and  C_7
REMARK    4  A    between atoms: C_7  and  C_8
REMARK    5  A    between atoms: C_10  and  C_11
REMARK    6  A    between atoms: C_15  and  C_17
REMARK                            x       y       z     vdW  Elec       q    Type
REMARK                         _______ _______ _______ _____ _____    ______ ____
ROOT
ATOM      1  C   UNL     1       1.082   9.834  18.171  0.00  0.00    +0.000 C 
ATOM      2  C   UNL     1       1.330  11.189  18.857  0.00  0.00    +0.000 C 
ATOM      3  C   UNL     1       0.329  11.454  19.978  0.00  0.00    +0.000 C 
ATOM      4  N   UNL     1      -1.043  11.389  19.479  0.00  0.00    +0.000 N 
ATOM      5  C   UNL     1      -1.935  12.395  19.898  0.00  0.00    +0.000 C 
ATOM      6  O   UNL     1      -1.575  13.400  20.508  0.00  0.00    +0.000 OA
ATOM      7  C   UNL     1      -1.380  10.149  18.759  0.00  0.00    +0.000 C 
ATOM      8  C   UNL     1      -0.367   9.780  17.681  0.00  0.00    +0.000 C 
ENDROOT
BRANCH   5   9
ATOM      9  C   UNL     1      -3.368  12.319  19.511  0.00  0.00    +0.000 A 
ATOM     10  C   UNL     1      -3.677  11.904  18.193  0.00  0.00    +0.000 A 
ATOM     11  C   UNL     1      -4.967  11.478  17.869  0.00  0.00    +0.000 A 
ATOM     12  C   UNL     1      -5.876  11.420  18.900  0.00  0.00    +0.000 A 
ATOM     13  C   UNL     1      -5.596  11.937  20.148  0.00  0.00    +0.000 A 
ATOM     14  C   UNL     1      -4.380  12.494  20.454  0.00  0.00    +0.000 A 
ATOM     15  O   UNL     1      -6.581  11.664  21.049  0.00  0.00    +0.000 OA
ATOM     16  C   UNL     1      -7.287  10.649  20.308  0.00  0.00    +0.000 C 
ATOM     17  O   UNL     1      -7.071  10.769  18.884  0.00  0.00    +0.000 OA
ENDBRANCH   5   9
BRANCH   1  20
ATOM     18  C   UNL     1       2.396   6.795  19.753  0.00  0.00    +0.000 A 
ATOM     19  C   UNL     1       2.149   7.498  18.603  0.00  0.00    +0.000 A 
ATOM     20  C   UNL     1       1.507   8.681  19.036  0.00  0.00    +0.000 A 
ATOM     21  N   UNL     1       1.307   8.656  20.361  0.00  0.00    +0.000 NA
ATOM     22  O   UNL     1       1.874   7.474  20.808  0.00  0.00    +0.000 OA
BRANCH  18  23
ATOM     23  C   UNL     1       3.107   5.534  20.041  0.00  0.00    +0.000 C 
BRANCH  23  27
ATOM     24  C   UNL     1       5.255   4.172  16.537  0.00  0.00    +0.000 A 
ATOM     25  C   UNL     1       5.850   5.061  17.435  0.00  0.00    +0.000 A 
ATOM     26  C   UNL     1       5.167   5.481  18.577  0.00  0.00    +0.000 A 
ATOM     27  C   UNL     1       3.869   5.025  18.835  0.00  0.00    +0.000 A 
ATOM     28  C   UNL     1       3.268   4.148  17.919  0.00  0.00    +0.000 A 
ATOM     29  C   UNL     1       3.957   3.723  16.779  0.00  0.00    +0.000 A 
BRANCH  24  31
ATOM     30  C   UNL     1       6.985   4.818  15.056  0.00  0.00    +0.000 C 
ATOM     31  O   UNL     1       6.014   3.854  15.445  0.00  0.00    +0.000 OA
ENDBRANCH  24  31
ENDBRANCH  23  27
ENDBRANCH  18  23
ENDBRANCH   1  20
TORSDOF 5
ENDMDL
MODEL 4
REMARK VINA RESULT:      -8.0      4.297     10.028
REMARK  Name = 
REMARK  6 active torsions:
REMARK  status: ('A' for Active; 'I' for Inactive)
REMARK    1  A    between atoms: C_1  and  O_2
REMARK    2  A    between atoms: O_2  and  C_3
REMARK    3  A    between atoms: C_6  and  C_7
REMARK    4  A    between atoms: C_7  and  C_8
REMARK    5  A    between atoms: C_10  and  C_11
REMARK    6  A    between atoms: C_15  and  C_17
REMARK                            x       y       z     vdW  Elec       q    Type
REMARK                         _______ _______ _______ _____ _____    ______ ____
ROOT
ATOM      1  C   UNL     1       0.389  10.301  19.102  0.00  0.00    +0.000 C 
ATOM      2  C   UNL     1      -0.091   9.380  20.237  0.00  0.00    +0.000 C 
ATOM      3  C   UNL     1       1.063   8.609  20.873  0.00  0.00    +0.000 C 
ATOM      4  N   UNL     1       1.789   7.832  19.871  0.00  0.00    +0.000 N 
ATOM      5  C   UNL     1       2.134   6.507  20.200  0.00  0.00    +0.000 C 
ATOM      6  O   UNL     1       1.709   5.932  21.200  0.00  0.00    +0.000 OA
ATOM      7  C   UNL     1       2.256   8.607  18.709  0.00  0.00    +0.000 C 
ATOM      8  C   UNL     1       1.167   9.470  18.079  0.00  0.00    +0.000 C 
ENDROOT
BRANCH   5   9
ATOM      9  C   UNL     1       2.966   5.707  19.264  0.00  0.00    +0.000 A 
ATOM     10  C   UNL     1       2.300   4.885  18.324  0.00  0.00    +0.000 A 
ATOM     11  C   UNL     1       2.981   4.388  17.210  0.00  0.00    +0.000 A 
ATOM     12  C   UNL     1       4.285   4.796  17.052  0.00  0.00    +0.000 A 
ATOM     13  C   UNL     1       4.954   5.497  18.033  0.00  0.00    +0.000 A 
ATOM     14  C   UNL     1       4.348   5.876  19.204  0.00  0.00    +0.000 A 
ATOM     15  O   UNL     1       6.187   5.906  17.621  0.00  0.00    +0.000 OA
ATOM     16  C   UNL     1       6.035   5.684  16.205  0.00  0.00    +0.000 C 
ATOM     17  O   UNL     1       5.030   4.686  15.917  0.00  0.00    +0.000 OA
ENDBRANCH   5   9
BRANCH   1  20
ATOM     18  C   UNL     1       2.074  13.486  19.796  0.00  0.00    +0.000 A 
ATOM     19  C   UNL     1       1.536  12.628  18.873  0.00  0.00    +0.000 A 
ATOM     20  C   UNL     1       1.113  11.509  19.627  0.00  0.00    +0.000 A 
ATOM     21  N   UNL     1       1.448  11.650  20.917  0.00  0.00    +0.000 NA
ATOM     22  O   UNL     1       2.044  12.895  21.020  0.00  0.00    +0.000 OA
BRANCH  18  23
ATOM     23  C   UNL     1       2.615  14.857  19.717  0.00  0.00    +0.000 C 
BRANCH  23  27
ATOM     24  C   UNL     1       6.847  14.762  18.806  0.00  0.00    +0.000 A 
ATOM     25  C   UNL     1       5.898  14.611  17.793  0.00  0.00    +0.000 A 
ATOM     26  C   UNL     1       4.534  14.666  18.082  0.00  0.00    +0.000 A 
ATOM     27  C   UNL     1       4.096  14.863  19.397  0.00  0.00    +0.000 A 
ATOM     28  C   UNL     1       5.053  14.993  20.415  0.00  0.00    +0.000 A 
ATOM     29  C   UNL     1       6.419  14.945  20.121  0.00  0.00    +0.000 A 
BRANCH  24  31
ATOM     30  C   UNL     1       8.609  13.358  18.081  0.00  0.00    +0.000 C 
ATOM     31  O   UNL     1       8.150  14.665  18.402  0.00  0.00    +0.000 OA
ENDBRANCH  24  31
ENDBRANCH  23  27
ENDBRANCH  18  23
ENDBRANCH   1  20
TORSDOF 5
ENDMDL
MODEL 5
REMARK VINA RESULT:      -7.9      2.612      3.373
REMARK  Name = 
REMARK  6 active torsions:
REMARK  status: ('A' for Active; 'I' for Inactive)
REMARK    1  A    between atoms: C_1  and  O_2
REMARK    2  A    between atoms: O_2  and  C_3
REMARK    3  A    between atoms: C_6  and  C_7
REMARK    4  A    between atoms: C_7  and  C_8
REMARK    5  A    between atoms: C_10  and  C_11
REMARK    6  A    between atoms: C_15  and  C_17
REMARK                            x       y       z     vdW  Elec       q    Type
REMARK                         _______ _______ _______ _____ _____    ______ ____
ROOT
ATOM      1  C   UNL     1       1.101   9.854  18.252  0.00  0.00    +0.000 C 
ATOM      2  C   UNL     1       1.827  11.043  18.907  0.00  0.00    +0.000 C 
ATOM      3  C   UNL     1       1.438  11.211  20.374  0.00  0.00    +0.000 C 
ATOM      4  N   UNL     1      -0.007  11.367  20.517  0.00  0.00    +0.000 N 
ATOM      5  C   UNL     1      -0.470  12.370  21.390  0.00  0.00    +0.000 C 
ATOM      6  O   UNL     1       0.268  13.216  21.890  0.00  0.00    +0.000 OA
ATOM      7  C   UNL     1      -0.808  10.306  19.882  0.00  0.00    +0.000 C 
ATOM      8  C   UNL     1      -0.407  10.027  18.437  0.00  0.00    +0.000 C 
ENDROOT
BRANCH   5   9
ATOM      9  C   UNL     1      -1.926  12.501  21.658  0.00  0.00    +0.000 A 
ATOM     10  C   UNL     1      -2.395  12.150  22.947  0.00  0.00    +0.000 A 
ATOM     11  C   UNL     1      -3.656  12.568  23.379  0.00  0.00    +0.000 A 
ATOM     12  C   UNL     1      -4.364  13.379  22.524  0.00  0.00    +0.000 A 
ATOM     13  C   UNL     1      -3.948  13.614  21.230  0.00  0.00    +0.000 A 
ATOM     14  C   UNL     1      -2.779  13.097  20.732  0.00  0.00    +0.000 A 
ATOM     15  O   UNL     1      -4.726  14.540  20.602  0.00  0.00    +0.000 OA
ATOM     16  C   UNL     1      -5.411  15.075  21.751  0.00  0.00    +0.000 C 
ATOM     17  O   UNL     1      -5.453  14.132  22.845  0.00  0.00    +0.000 OA
ENDBRANCH   5   9
BRANCH   1  20
ATOM     18  C   UNL     1       2.574   6.532  18.758  0.00  0.00    +0.000 A 
ATOM     19  C   UNL     1       2.094   7.475  17.887  0.00  0.00    +0.000 A 
ATOM     20  C   UNL     1       1.655   8.535  18.713  0.00  0.00    +0.000 A 
ATOM     21  N   UNL     1       1.789   8.217  20.007  0.00  0.00    +0.000 NA
ATOM     22  O   UNL     1       2.374   6.962  20.031  0.00  0.00    +0.000 OA
BRANCH  18  23
ATOM     23  C   UNL     1       3.254   5.234  18.579  0.00  0.00    +0.000 C 
BRANCH  23  27
ATOM     24  C   UNL     1       6.587   5.422  15.822  0.00  0.00    +0.000 A 
ATOM     25  C   UNL     1       5.608   4.435  15.687  0.00  0.00    +0.000 A 
ATOM     26  C   UNL     1       4.520   4.389  16.561  0.00  0.00    +0.000 A 
ATOM     27  C   UNL     1       4.400   5.327  17.594  0.00  0.00    +0.000 A 
ATOM     28  C   UNL     1       5.398   6.303  17.738  0.00  0.00    +0.000 A 
ATOM     29  C   UNL     1       6.483   6.351  16.856  0.00  0.00    +0.000 A 
BRANCH  24  31
ATOM     30  C   UNL     1       7.275   4.876  13.624  0.00  0.00    +0.000 C 
ATOM     31  O   UNL     1       7.614   5.348  14.922  0.00  0.00    +0.000 OA
ENDBRANCH  24  31
ENDBRANCH  23  27
ENDBRANCH  18  23
ENDBRANCH   1  20
TORSDOF 5
ENDMDL
MODEL 6
REMARK VINA RESULT:      -7.9      4.871     11.942
REMARK  Name = 
REMARK  6 active torsions:
REMARK  status: ('A' for Active; 'I' for Inactive)
REMARK    1  A    between atoms: C_1  and  O_2
REMARK    2  A    between atoms: O_2  and  C_3
REMARK    3  A    between atoms: C_6  and  C_7
REMARK    4  A    between atoms: C_7  and  C_8
REMARK    5  A    between atoms: C_10  and  C_11
REMARK    6  A    between atoms: C_15  and  C_17
REMARK                            x       y       z     vdW  Elec       q    Type
REMARK                         _______ _______ _______ _____ _____    ______ ____
ROOT
ATOM      1  C   UNL     1       3.141   3.322  19.002  0.00  0.00    +0.000 C 
ATOM      2  C   UNL     1       4.607   3.182  19.448  0.00  0.00    +0.000 C 
ATOM      3  C   UNL     1       5.488   4.286  18.868  0.00  0.00    +0.000 C 
ATOM      4  N   UNL     1       5.407   4.308  17.409  0.00  0.00    +0.000 N 
ATOM      5  C   UNL     1       6.612   4.446  16.694  0.00  0.00    +0.000 C 
ATOM      6  O   UNL     1       7.719   4.375  17.224  0.00  0.00    +0.000 OA
ATOM      7  C   UNL     1       4.040   4.391  16.868  0.00  0.00    +0.000 C 
ATOM      8  C   UNL     1       3.085   3.368  17.474  0.00  0.00    +0.000 C 
ENDROOT
BRANCH   5   9
ATOM      9  C   UNL     1       6.580   4.585  15.214  0.00  0.00    +0.000 A 
ATOM     10  C   UNL     1       7.565   5.398  14.605  0.00  0.00    +0.000 A 
ATOM     11  C   UNL     1       7.815   5.300  13.233  0.00  0.00    +0.000 A 
ATOM     12  C   UNL     1       7.111   4.340  12.545  0.00  0.00    +0.000 A 
ATOM     13  C   UNL     1       6.075   3.639  13.126  0.00  0.00    +0.000 A 
ATOM     14  C   UNL     1       5.713   3.819  14.437  0.00  0.00    +0.000 A 
ATOM     15  O   UNL     1       5.601   2.656  12.311  0.00  0.00    +0.000 OA
ATOM     16  C   UNL     1       6.678   2.619  11.353  0.00  0.00    +0.000 C 
ATOM     17  O   UNL     1       7.397   3.871  11.299  0.00  0.00    +0.000 OA
ENDBRANCH   5   9
BRANCH   1  20
ATOM     18  C   UNL     1       2.004   6.404  20.638  0.00  0.00    +0.000 A 
ATOM     19  C   UNL     1       3.042   5.668  20.130  0.00  0.00    +0.000 A 
ATOM     20  C   UNL     1       2.448   4.458  19.702  0.00  0.00    +0.000 A 
ATOM     21  N   UNL     1       1.144   4.435  20.007  0.00  0.00    +0.000 NA
ATOM     22  O   UNL     1       0.868   5.661  20.588  0.00  0.00    +0.000 OA
BRANCH  18  23
ATOM     23  C   UNL     1       1.895   7.778  21.167  0.00  0.00    +0.000 C 
BRANCH  23  27
ATOM     24  C   UNL     1      -0.382  10.286  18.469  0.00  0.00    +0.000 A 
ATOM     25  C   UNL     1      -0.764  10.150  19.806  0.00  0.00    +0.000 A 
ATOM     26  C   UNL     1      -0.016   9.361  20.682  0.00  0.00    +0.000 A 
ATOM     27  C   UNL     1       1.124   8.685  20.230  0.00  0.00    +0.000 A 
ATOM     28  C   UNL     1       1.491   8.808  18.881  0.00  0.00    +0.000 A 
ATOM     29  C   UNL     1       0.743   9.605  18.008  0.00  0.00    +0.000 A 
BRANCH  24  31
ATOM     30  C   UNL     1      -2.167  10.373  16.917  0.00  0.00    +0.000 C 
ATOM     31  O   UNL     1      -1.207  11.065  17.706  0.00  0.00    +0.000 OA
ENDBRANCH  24  31
ENDBRANCH  23  27
ENDBRANCH  18  23
ENDBRANCH   1  20
TORSDOF 5
ENDMDL
MODEL 7
REMARK VINA RESULT:      -7.9      4.468     11.533
REMARK  Name = 
REMARK  6 active torsions:
REMARK  status: ('A' for Active; 'I' for Inactive)
REMARK    1  A    between atoms: C_1  and  O_2
REMARK    2  A    between atoms: O_2  and  C_3
REMARK    3  A    between atoms: C_6  and  C_7
REMARK    4  A    between atoms: C_7  and  C_8
REMARK    5  A    between atoms: C_10  and  C_11
REMARK    6  A    between atoms: C_15  and  C_17
REMARK                            x       y       z     vdW  Elec       q    Type
REMARK                         _______ _______ _______ _____ _____    ______ ____
ROOT
ATOM      1  C   UNL     1       2.385   5.500  19.073  0.00  0.00    +0.000 C 
ATOM      2  C   UNL     1       3.584   5.104  19.953  0.00  0.00    +0.000 C 
ATOM      3  C   UNL     1       4.900   5.647  19.404  0.00  0.00    +0.000 C 
ATOM      4  N   UNL     1       5.118   5.200  18.030  0.00  0.00    +0.000 N 
ATOM      5  C   UNL     1       6.405   4.739  17.692  0.00  0.00    +0.000 C 
ATOM      6  O   UNL     1       7.285   4.536  18.527  0.00  0.00    +0.000 OA
ATOM      7  C   UNL     1       4.008   5.485  17.105  0.00  0.00    +0.000 C 
ATOM      8  C   UNL     1       2.648   5.044  17.636  0.00  0.00    +0.000 C 
ENDROOT
BRANCH   5   9
ATOM      9  C   UNL     1       6.714   4.376  16.285  0.00  0.00    +0.000 A 
ATOM     10  C   UNL     1       5.788   3.555  15.596  0.00  0.00    +0.000 A 
ATOM     11  C   UNL     1       5.826   3.462  14.202  0.00  0.00    +0.000 A 
ATOM     12  C   UNL     1       6.748   4.252  13.555  0.00  0.00    +0.000 A 
ATOM     13  C   UNL     1       7.717   4.953  14.242  0.00  0.00    +0.000 A 
ATOM     14  C   UNL     1       7.792   4.947  15.612  0.00  0.00    +0.000 A 
ATOM     15  O   UNL     1       8.442   5.763  13.421  0.00  0.00    +0.000 OA
ATOM     16  C   UNL     1       7.585   5.735  12.263  0.00  0.00    +0.000 C 
ATOM     17  O   UNL     1       6.764   4.546  12.226  0.00  0.00    +0.000 OA
ENDBRANCH   5   9
BRANCH   1  20
ATOM     18  C   UNL     1       1.479   9.046  18.814  0.00  0.00    +0.000 A 
ATOM     19  C   UNL     1       1.866   7.893  18.185  0.00  0.00    +0.000 A 
ATOM     20  C   UNL     1       2.031   6.953  19.228  0.00  0.00    +0.000 A 
ATOM     21  N   UNL     1       1.834   7.527  20.422  0.00  0.00    +0.000 NA
ATOM     22  O   UNL     1       1.479   8.840  20.158  0.00  0.00    +0.000 OA
BRANCH  18  23
ATOM     23  C   UNL     1       1.058  10.377  18.332  0.00  0.00    +0.000 C 
BRANCH  23  27
ATOM     24  C   UNL     1      -3.241  10.795  18.036  0.00  0.00    +0.000 A 
ATOM     25  C   UNL     1      -2.575   9.789  17.334  0.00  0.00    +0.000 A 
ATOM     26  C   UNL     1      -1.192   9.638  17.448  0.00  0.00    +0.000 A 
ATOM     27  C   UNL     1      -0.450  10.502  18.262  0.00  0.00    +0.000 A 
ATOM     28  C   UNL     1      -1.122  11.525  18.949  0.00  0.00    +0.000 A 
ATOM     29  C   UNL     1      -2.508  11.669  18.838  0.00  0.00    +0.000 A 
BRANCH  24  31
ATOM     30  C   UNL     1      -5.079  12.062  17.249  0.00  0.00    +0.000 C 
ATOM     31  O   UNL     1      -4.591  10.856  17.824  0.00  0.00    +0.000 OA
ENDBRANCH  24  31
ENDBRANCH  23  27
ENDBRANCH  18  23
ENDBRANCH   1  20
TORSDOF 5
ENDMDL
MODEL 8
REMARK VINA RESULT:      -7.8      1.460      1.990
REMARK  Name = 
REMARK  6 active torsions:
REMARK  status: ('A' for Active; 'I' for Inactive)
REMARK    1  A    between atoms: C_1  and  O_2
REMARK    2  A    between atoms: O_2  and  C_3
REMARK    3  A    between atoms: C_6  and  C_7
REMARK    4  A    between atoms: C_7  and  C_8
REMARK    5  A    between atoms: C_10  and  C_11
REMARK    6  A    between atoms: C_15  and  C_17
REMARK                            x       y       z     vdW  Elec       q    Type
REMARK                         _______ _______ _______ _____ _____    ______ ____
ROOT
ATOM      1  C   UNL     1       0.753  12.650  18.750  0.00  0.00    +0.000 C 
ATOM      2  C   UNL     1       1.268  12.984  20.161  0.00  0.00    +0.000 C 
ATOM      3  C   UNL     1       0.383  12.381  21.250  0.00  0.00    +0.000 C 
ATOM      4  N   UNL     1      -1.001  12.825  21.103  0.00  0.00    +0.000 N 
ATOM      5  C   UNL     1      -1.682  13.226  22.269  0.00  0.00    +0.000 C 
ATOM      6  O   UNL     1      -1.122  13.382  23.352  0.00  0.00    +0.000 OA
ATOM      7  C   UNL     1      -1.585  12.599  19.770  0.00  0.00    +0.000 C 
ATOM      8  C   UNL     1      -0.704  13.101  18.631  0.00  0.00    +0.000 C 
ENDROOT
BRANCH   5   9
ATOM      9  C   UNL     1      -3.123  13.582  22.197  0.00  0.00    +0.000 A 
ATOM     10  C   UNL     1      -3.465  14.848  21.663  0.00  0.00    +0.000 A 
ATOM     11  C   UNL     1      -4.773  15.110  21.245  0.00  0.00    +0.000 A 
ATOM     12  C   UNL     1      -5.665  14.065  21.317  0.00  0.00    +0.000 A 
ATOM     13  C   UNL     1      -5.349  12.879  21.947  0.00  0.00    +0.000 A 
ATOM     14  C   UNL     1      -4.113  12.648  22.496  0.00  0.00    +0.000 A 
ATOM     15  O   UNL     1      -6.326  11.942  21.795  0.00  0.00    +0.000 OA
ATOM     16  C   UNL     1      -7.073  12.567  20.733  0.00  0.00    +0.000 C 
ATOM     17  O   UNL     1      -6.878  13.999  20.703  0.00  0.00    +0.000 OA
ENDBRANCH   5   9
BRANCH   1  20
ATOM     18  C   UNL     1       1.997   9.297  17.931  0.00  0.00    +0.000 A 
ATOM     19  C   UNL     1       2.273  10.620  18.159  0.00  0.00    +0.000 A 
ATOM     20  C   UNL     1       1.010  11.215  18.384  0.00  0.00    +0.000 A 
ATOM     21  N   UNL     1       0.026  10.320  18.222  0.00  0.00    +0.000 NA
ATOM     22  O   UNL     1       0.651   9.115  17.946  0.00  0.00    +0.000 OA
BRANCH  18  23
ATOM     23  C   UNL     1       2.841   8.104  17.718  0.00  0.00    +0.000 C 
BRANCH  23  27
ATOM     24  C   UNL     1       1.631   4.726  20.142  0.00  0.00    +0.000 A 
ATOM     25  C   UNL     1       1.804   5.987  20.716  0.00  0.00    +0.000 A 
ATOM     26  C   UNL     1       2.170   7.082  19.931  0.00  0.00    +0.000 A 
ATOM     27  C   UNL     1       2.380   6.929  18.555  0.00  0.00    +0.000 A 
ATOM     28  C   UNL     1       2.226   5.655  17.987  0.00  0.00    +0.000 A 
ATOM     29  C   UNL     1       1.852   4.562  18.775  0.00  0.00    +0.000 A 
BRANCH  24  31
ATOM     30  C   UNL     1       1.840   2.446  20.740  0.00  0.00    +0.000 C 
ATOM     31  O   UNL     1       1.296   3.730  21.017  0.00  0.00    +0.000 OA
ENDBRANCH  24  31
ENDBRANCH  23  27
ENDBRANCH  18  23
ENDBRANCH   1  20
TORSDOF 5
ENDMDL
MODEL 9
REMARK VINA RESULT:      -7.7      4.482     10.594
REMARK  Name = 
REMARK  6 active torsions:
REMARK  status: ('A' for Active; 'I' for Inactive)
REMARK    1  A    between atoms: C_1  and  O_2
REMARK    2  A    between atoms: O_2  and  C_3
REMARK    3  A    between atoms: C_6  and  C_7
REMARK    4  A    between atoms: C_7  and  C_8
REMARK    5  A    between atoms: C_10  and  C_11
REMARK    6  A    between atoms: C_15  and  C_17
REMARK                            x       y       z     vdW  Elec       q    Type
REMARK                         _______ _______ _______ _____ _____    ______ ____
ROOT
ATOM      1  C   UNL     1       0.569  10.083  18.622  0.00  0.00    +0.000 C 
ATOM      2  C   UNL     1       0.069   9.272  19.831  0.00  0.00    +0.000 C 
ATOM      3  C   UNL     1       1.209   8.545  20.541  0.00  0.00    +0.000 C 
ATOM      4  N   UNL     1       1.929   7.673  19.615  0.00  0.00    +0.000 N 
ATOM      5  C   UNL     1       2.253   6.377  20.062  0.00  0.00    +0.000 C 
ATOM      6  O   UNL     1       1.815   5.899  21.106  0.00  0.00    +0.000 OA
ATOM      7  C   UNL     1       2.413   8.335  18.392  0.00  0.00    +0.000 C 
ATOM      8  C   UNL     1       1.339   9.154  17.682  0.00  0.00    +0.000 C 
ENDROOT
BRANCH   5   9
ATOM      9  C   UNL     1       3.079   5.486  19.206  0.00  0.00    +0.000 A 
ATOM     10  C   UNL     1       2.419   4.730  18.208  0.00  0.00    +0.000 A 
ATOM     11  C   UNL     1       3.143   4.154  17.161  0.00  0.00    +0.000 A 
ATOM     12  C   UNL     1       4.492   4.422  17.124  0.00  0.00    +0.000 A 
ATOM     13  C   UNL     1       5.138   5.059  18.162  0.00  0.00    +0.000 A 
ATOM     14  C   UNL     1       4.471   5.509  19.274  0.00  0.00    +0.000 A 
ATOM     15  O   UNL     1       6.439   5.333  17.866  0.00  0.00    +0.000 OA
ATOM     16  C   UNL     1       6.395   5.115  16.442  0.00  0.00    +0.000 C 
ATOM     17  O   UNL     1       5.322   4.225  16.062  0.00  0.00    +0.000 OA
ENDBRANCH   5   9
BRANCH   1  20
ATOM     18  C   UNL     1       2.045  13.050  20.197  0.00  0.00    +0.000 A 
ATOM     19  C   UNL     1       1.090  12.067  20.226  0.00  0.00    +0.000 A 
ATOM     20  C   UNL     1       1.307  11.322  19.043  0.00  0.00    +0.000 A 
ATOM     21  N   UNL     1       2.282  11.872  18.307  0.00  0.00    +0.000 NA
ATOM     22  O   UNL     1       2.748  12.951  19.038  0.00  0.00    +0.000 OA
BRANCH  18  23
ATOM     23  C   UNL     1       2.445  14.107  21.146  0.00  0.00    +0.000 C 
BRANCH  23  27
ATOM     24  C   UNL     1       5.355  16.749  19.329  0.00  0.00    +0.000 A 
ATOM     25  C   UNL     1       4.005  16.834  18.983  0.00  0.00    +0.000 A 
ATOM     26  C   UNL     1       3.063  15.999  19.587  0.00  0.00    +0.000 A 
ATOM     27  C   UNL     1       3.460  15.055  20.542  0.00  0.00    +0.000 A 
ATOM     28  C   UNL     1       4.821  14.960  20.870  0.00  0.00    +0.000 A 
ATOM     29  C   UNL     1       5.762  15.803  20.268  0.00  0.00    +0.000 A 
BRANCH  24  31
ATOM     30  C   UNL     1       7.548  17.212  18.568  0.00  0.00    +0.000 C 
ATOM     31  O   UNL     1       6.183  17.602  18.652  0.00  0.00    +0.000 OA
ENDBRANCH  24  31
ENDBRANCH  23  27
ENDBRANCH  18  23
ENDBRANCH   1  20
TORSDOF 5
ENDMDL
