MODEL 1
REMARK VINA RESULT:      -7.1      0.000      0.000
REMARK  Name = 
REMARK  24 active torsions:
REMARK  status: ('A' for Active; 'I' for Inactive)
REMARK    1  A    between atoms: C_1  and  O_2
REMARK    2  A    between atoms: O_2  and  C_3
REMARK    3  A    between atoms: C_4  and  C_5
REMARK    4  A    between atoms: C_7  and  O_8
REMARK    5  A    between atoms: C_10  and  C_11
REMARK    6  A    between atoms: C_11  and  C_12
REMARK    7  A    between atoms: C_13  and  C_14
REMARK    8  A    between atoms: C_13  and  C_15
REMARK    9  A    between atoms: C_15  and  C_16
REMARK   10  A    between atoms: C_16  and  C_18
REMARK   11  A    between atoms: C_19  and  C_20
REMARK   12  A    between atoms: C_19  and  C_21
REMARK   13  A    between atoms: C_21  and  O_22
REMARK   14  A    between atoms: C_21  and  C_23
REMARK   15  A    between atoms: C_23  and  C_24
REMARK   16  A    between atoms: C_24  and  C_25
REMARK   17  A    between atoms: C_25  and  C_26
REMARK   18  A    between atoms: C_25  and  O_27
REMARK   19  A    between atoms: C_25  and  C_28
REMARK   20  A    between atoms: C_28  and  C_30
REMARK   21  A    between atoms: C_31  and  C_32
REMARK   22  A    between atoms: C_32  and  C_33
REMARK   23  A    between atoms: C_32  and  C_34
REMARK   24  A    between atoms: C_32  and  O_35
REMARK                            x       y       z     vdW  Elec       q    Type
REMARK                         _______ _______ _______ _____ _____    ______ ____
ROOT
ATOM      1  C   UNL     1       1.501   9.152  18.211  0.00  0.00    +0.000 C 
ATOM      2  C   UNL     1       1.863   8.047  18.898  0.00  0.00    +0.000 C 
ATOM      3  C   UNL     1       1.891   7.938  20.405  0.00  0.00    +0.000 C 
ENDROOT
BRANCH   1   4
ATOM      4  C   UNL     1       1.109  10.477  18.789  0.00  0.00    +0.000 C 
ATOM      5  O   UNL     1       1.844  11.460  18.726  0.00  0.00    +0.000 OA
BRANCH   4   6
ATOM      6  C   UNL     1      -0.254  10.557  19.455  0.00  0.00    +0.000 C 
BRANCH   6   8
ATOM      7  C   UNL     1      -0.803  12.428  20.982  0.00  0.00    +0.000 C 
ATOM      8  C   UNL     1      -0.178  11.247  20.797  0.00  0.00    +0.000 C 
ATOM      9  C   UNL     1       0.567  10.507  21.877  0.00  0.00    +0.000 C 
BRANCH   7  10
ATOM     10  C   UNL     1      -0.820  13.258  22.238  0.00  0.00    +0.000 C 
BRANCH  10  17
ATOM     11  C   UNL     1      -2.903  14.787  22.565  0.00  0.00    +0.000 A 
ATOM     12  C   UNL     1      -4.170  14.977  23.168  0.00  0.00    +0.000 A 
ATOM     13  C   UNL     1      -4.951  16.261  23.052  0.00  0.00    +0.000 C 
ATOM     14  C   UNL     1      -4.754  13.943  23.922  0.00  0.00    +0.000 A 
ATOM     15  C   UNL     1      -4.091  12.739  24.071  0.00  0.00    +0.000 A 
ATOM     16  C   UNL     1      -2.842  12.549  23.499  0.00  0.00    +0.000 A 
ATOM     17  C   UNL     1      -2.210  13.569  22.754  0.00  0.00    +0.000 A 
BRANCH  11  19
ATOM     18  C   UNL     1      -2.483  15.902  20.491  0.00  0.00    +0.000 C 
ATOM     19  O   UNL     1      -2.403  15.884  21.911  0.00  0.00    +0.000 OA
ENDBRANCH  11  19
BRANCH  15  20
ATOM     20  O   UNL     1      -4.627  11.707  24.782  0.00  0.00    +0.000 OA
ATOM     21  H   UNL     1      -5.478  11.466  24.384  0.00  0.00    +0.000 HD
ENDBRANCH  15  20
ENDBRANCH  10  17
ENDBRANCH   7  10
ENDBRANCH   6   8
ENDBRANCH   4   6
ENDBRANCH   1   4
BRANCH   2  22
ATOM     22  C   UNL     1       2.307   6.827  18.111  0.00  0.00    +0.000 C 
BRANCH  22  23
ATOM     23  O   UNL     1       3.704   6.989  17.839  0.00  0.00    +0.000 OA
ATOM     24  H   UNL     1       4.133   6.124  17.964  0.00  0.00    +0.000 HD
ENDBRANCH  22  23
BRANCH  22  25
ATOM     25  C   UNL     1       2.133   5.462  18.784  0.00  0.00    +0.000 C 
BRANCH  25  26
ATOM     26  C   UNL     1       1.945   4.304  17.799  0.00  0.00    +0.000 C 
BRANCH  26  27
ATOM     27  C   UNL     1       2.328   2.939  18.398  0.00  0.00    +0.000 C 
ATOM     28  C   UNL     1       1.492   2.606  19.639  0.00  0.00    +0.000 C 
BRANCH  27  29
ATOM     29  C   UNL     1       3.826   2.994  18.800  0.00  0.00    +0.000 C 
ATOM     30  O   UNL     1       4.222   2.641  19.913  0.00  0.00    +0.000 OA
BRANCH  29  31
ATOM     31  C   UNL     1       4.787   3.564  17.803  0.00  0.00    +0.000 C 
ATOM     32  C   UNL     1       5.844   4.292  18.177  0.00  0.00    +0.000 C 
BRANCH  32  33
ATOM     33  C   UNL     1       6.881   4.848  17.231  0.00  0.00    +0.000 C 
ATOM     34  C   UNL     1       6.433   4.727  15.773  0.00  0.00    +0.000 C 
ATOM     35  C   UNL     1       7.177   6.307  17.579  0.00  0.00    +0.000 C 
BRANCH  33  36
ATOM     36  O   UNL     1       8.096   4.112  17.379  0.00  0.00    +0.000 OA
ATOM     37  H   UNL     1       8.320   3.747  16.505  0.00  0.00    +0.000 HD
ENDBRANCH  33  36
ENDBRANCH  32  33
ENDBRANCH  29  31
ENDBRANCH  27  29
BRANCH  27  38
ATOM     38  O   UNL     1       2.104   1.925  17.413  0.00  0.00    +0.000 OA
ATOM     39  H   UNL     1       2.559   1.111  17.690  0.00  0.00    +0.000 HD
ENDBRANCH  27  38
ENDBRANCH  26  27
ENDBRANCH  25  26
ENDBRANCH  22  25
ENDBRANCH   2  22
TORSDOF 17
ENDMDL
MODEL 2
REMARK VINA RESULT:      -7.1      2.342      4.306
REMARK  Name = 
REMARK  24 active torsions:
REMARK  status: ('A' for Active; 'I' for Inactive)
REMARK    1  A    between atoms: C_1  and  O_2
REMARK    2  A    between atoms: O_2  and  C_3
REMARK    3  A    between atoms: C_4  and  C_5
REMARK    4  A    between atoms: C_7  and  O_8
REMARK    5  A    between atoms: C_10  and  C_11
REMARK    6  A    between atoms: C_11  and  C_12
REMARK    7  A    between atoms: C_13  and  C_14
REMARK    8  A    between atoms: C_13  and  C_15
REMARK    9  A    between atoms: C_15  and  C_16
REMARK   10  A    between atoms: C_16  and  C_18
REMARK   11  A    between atoms: C_19  and  C_20
REMARK   12  A    between atoms: C_19  and  C_21
REMARK   13  A    between atoms: C_21  and  O_22
REMARK   14  A    between atoms: C_21  and  C_23
REMARK   15  A    between atoms: C_23  and  C_24
REMARK   16  A    between atoms: C_24  and  C_25
REMARK   17  A    between atoms: C_25  and  C_26
REMARK   18  A    between atoms: C_25  and  O_27
REMARK   19  A    between atoms: C_25  and  C_28
REMARK   20  A    between atoms: C_28  and  C_30
REMARK   21  A    between atoms: C_31  and  C_32
REMARK   22  A    between atoms: C_32  and  C_33
REMARK   23  A    between atoms: C_32  and  C_34
REMARK   24  A    between atoms: C_32  and  O_35
REMARK                            x       y       z     vdW  Elec       q    Type
REMARK                         _______ _______ _______ _____ _____    ______ ____
ROOT
ATOM      1  C   UNL     1       3.062   6.097  19.650  0.00  0.00    +0.000 C 
ATOM      2  C   UNL     1       2.726   4.835  19.305  0.00  0.00    +0.000 C 
ATOM      3  C   UNL     1       1.383   4.420  18.753  0.00  0.00    +0.000 C 
ENDROOT
BRANCH   1   4
ATOM      4  C   UNL     1       2.176   7.305  19.600  0.00  0.00    +0.000 C 
ATOM      5  O   UNL     1       1.454   7.624  20.541  0.00  0.00    +0.000 OA
BRANCH   4   6
ATOM      6  C   UNL     1       2.217   8.131  18.326  0.00  0.00    +0.000 C 
BRANCH   6   8
ATOM      7  C   UNL     1       1.768  10.449  19.073  0.00  0.00    +0.000 C 
ATOM      8  C   UNL     1       1.330   9.350  18.424  0.00  0.00    +0.000 C 
ATOM      9  C   UNL     1       0.004   9.260  17.716  0.00  0.00    +0.000 C 
BRANCH   7  10
ATOM     10  C   UNL     1       1.018  11.738  19.280  0.00  0.00    +0.000 C 
BRANCH  10  17
ATOM     11  C   UNL     1      -1.105  12.507  20.577  0.00  0.00    +0.000 A 
ATOM     12  C   UNL     1      -1.877  12.443  21.763  0.00  0.00    +0.000 A 
ATOM     13  C   UNL     1      -3.103  13.289  21.991  0.00  0.00    +0.000 C 
ATOM     14  C   UNL     1      -1.508  11.565  22.797  0.00  0.00    +0.000 A 
ATOM     15  C   UNL     1      -0.391  10.762  22.654  0.00  0.00    +0.000 A 
ATOM     16  C   UNL     1       0.380  10.830  21.505  0.00  0.00    +0.000 A 
ATOM     17  C   UNL     1       0.058  11.714  20.452  0.00  0.00    +0.000 A 
BRANCH  11  19
ATOM     18  C   UNL     1      -0.848  14.698  19.652  0.00  0.00    +0.000 C 
ATOM     19  O   UNL     1      -1.520  13.445  19.666  0.00  0.00    +0.000 OA
ENDBRANCH  11  19
BRANCH  15  20
ATOM     20  O   UNL     1      -0.006   9.889  23.627  0.00  0.00    +0.000 OA
ATOM     21  H   UNL     1       0.883   9.562  23.416  0.00  0.00    +0.000 HD
ENDBRANCH  15  20
ENDBRANCH  10  17
ENDBRANCH   7  10
ENDBRANCH   6   8
ENDBRANCH   4   6
ENDBRANCH   1   4
BRANCH   2  22
ATOM     22  C   UNL     1       3.754   3.738  19.514  0.00  0.00    +0.000 C 
BRANCH  22  23
ATOM     23  O   UNL     1       3.032   2.512  19.683  0.00  0.00    +0.000 OA
ATOM     24  H   UNL     1       2.875   2.390  20.636  0.00  0.00    +0.000 HD
ENDBRANCH  22  23
BRANCH  22  25
ATOM     25  C   UNL     1       4.770   3.512  18.390  0.00  0.00    +0.000 C 
BRANCH  25  26
ATOM     26  C   UNL     1       4.498   4.341  17.131  0.00  0.00    +0.000 C 
BRANCH  26  27
ATOM     27  C   UNL     1       5.574   5.411  16.873  0.00  0.00    +0.000 C 
ATOM     28  C   UNL     1       4.977   6.683  16.262  0.00  0.00    +0.000 C 
BRANCH  27  29
ATOM     29  C   UNL     1       6.615   4.819  15.886  0.00  0.00    +0.000 C 
ATOM     30  O   UNL     1       7.766   4.543  16.230  0.00  0.00    +0.000 OA
BRANCH  29  31
ATOM     31  C   UNL     1       6.193   4.653  14.458  0.00  0.00    +0.000 C 
ATOM     32  C   UNL     1       6.707   3.698  13.677  0.00  0.00    +0.000 C 
BRANCH  32  33
ATOM     33  C   UNL     1       6.289   3.439  12.250  0.00  0.00    +0.000 C 
ATOM     34  C   UNL     1       4.776   3.595  12.072  0.00  0.00    +0.000 C 
ATOM     35  C   UNL     1       7.036   4.382  11.306  0.00  0.00    +0.000 C 
BRANCH  33  36
ATOM     36  O   UNL     1       6.637   2.101  11.891  0.00  0.00    +0.000 OA
ATOM     37  H   UNL     1       7.564   2.114  11.597  0.00  0.00    +0.000 HD
ENDBRANCH  33  36
ENDBRANCH  32  33
ENDBRANCH  29  31
ENDBRANCH  27  29
BRANCH  27  38
ATOM     38  O   UNL     1       6.193   5.751  18.118  0.00  0.00    +0.000 OA
ATOM     39  H   UNL     1       5.726   6.513  18.504  0.00  0.00    +0.000 HD
ENDBRANCH  27  38
ENDBRANCH  26  27
ENDBRANCH  25  26
ENDBRANCH  22  25
ENDBRANCH   2  22
TORSDOF 17
ENDMDL
MODEL 3
REMARK VINA RESULT:      -7.1      2.150      2.813
REMARK  Name = 
REMARK  24 active torsions:
REMARK  status: ('A' for Active; 'I' for Inactive)
REMARK    1  A    between atoms: C_1  and  O_2
REMARK    2  A    between atoms: O_2  and  C_3
REMARK    3  A    between atoms: C_4  and  C_5
REMARK    4  A    between atoms: C_7  and  O_8
REMARK    5  A    between atoms: C_10  and  C_11
REMARK    6  A    between atoms: C_11  and  C_12
REMARK    7  A    between atoms: C_13  and  C_14
REMARK    8  A    between atoms: C_13  and  C_15
REMARK    9  A    between atoms: C_15  and  C_16
REMARK   10  A    between atoms: C_16  and  C_18
REMARK   11  A    between atoms: C_19  and  C_20
REMARK   12  A    between atoms: C_19  and  C_21
REMARK   13  A    between atoms: C_21  and  O_22
REMARK   14  A    between atoms: C_21  and  C_23
REMARK   15  A    between atoms: C_23  and  C_24
REMARK   16  A    between atoms: C_24  and  C_25
REMARK   17  A    between atoms: C_25  and  C_26
REMARK   18  A    between atoms: C_25  and  O_27
REMARK   19  A    between atoms: C_25  and  C_28
REMARK   20  A    between atoms: C_28  and  C_30
REMARK   21  A    between atoms: C_31  and  C_32
REMARK   22  A    between atoms: C_32  and  C_33
REMARK   23  A    between atoms: C_32  and  C_34
REMARK   24  A    between atoms: C_32  and  O_35
REMARK                            x       y       z     vdW  Elec       q    Type
REMARK                         _______ _______ _______ _____ _____    ______ ____
ROOT
ATOM      1  C   UNL     1       1.184   8.654  20.058  0.00  0.00    +0.000 C 
ATOM      2  C   UNL     1       1.902   8.458  18.931  0.00  0.00    +0.000 C 
ATOM      3  C   UNL     1       1.917   9.393  17.744  0.00  0.00    +0.000 C 
ENDROOT
BRANCH   1   4
ATOM      4  C   UNL     1       0.242   9.786  20.335  0.00  0.00    +0.000 C 
ATOM      5  O   UNL     1      -0.771   9.971  19.664  0.00  0.00    +0.000 OA
BRANCH   4   6
ATOM      6  C   UNL     1       0.593  10.699  21.497  0.00  0.00    +0.000 C 
BRANCH   6   8
ATOM      7  C   UNL     1      -1.496  11.813  22.224  0.00  0.00    +0.000 C 
ATOM      8  C   UNL     1      -0.326  11.898  21.560  0.00  0.00    +0.000 C 
ATOM      9  C   UNL     1       0.183  13.154  20.902  0.00  0.00    +0.000 C 
BRANCH   7  10
ATOM     10  C   UNL     1      -2.533  12.894  22.376  0.00  0.00    +0.000 C 
BRANCH  10  17
ATOM     11  C   UNL     1      -5.088  12.571  21.995  0.00  0.00    +0.000 A 
ATOM     12  C   UNL     1      -6.143  12.310  21.086  0.00  0.00    +0.000 A 
ATOM     13  C   UNL     1      -7.573  12.119  21.522  0.00  0.00    +0.000 C 
ATOM     14  C   UNL     1      -5.880  12.214  19.708  0.00  0.00    +0.000 A 
ATOM     15  C   UNL     1      -4.588  12.376  19.241  0.00  0.00    +0.000 A 
ATOM     16  C   UNL     1      -3.546  12.614  20.123  0.00  0.00    +0.000 A 
ATOM     17  C   UNL     1      -3.764  12.695  21.517  0.00  0.00    +0.000 A 
BRANCH  11  19
ATOM     18  C   UNL     1      -5.611  13.840  23.954  0.00  0.00    +0.000 C 
ATOM     19  O   UNL     1      -5.451  12.577  23.317  0.00  0.00    +0.000 OA
ENDBRANCH  11  19
BRANCH  15  20
ATOM     20  O   UNL     1      -4.291  12.303  17.913  0.00  0.00    +0.000 OA
ATOM     21  H   UNL     1      -4.794  11.569  17.523  0.00  0.00    +0.000 HD
ENDBRANCH  15  20
ENDBRANCH  10  17
ENDBRANCH   7  10
ENDBRANCH   6   8
ENDBRANCH   4   6
ENDBRANCH   1   4
BRANCH   2  22
ATOM     22  C   UNL     1       2.735   7.194  18.823  0.00  0.00    +0.000 C 
BRANCH  22  23
ATOM     23  O   UNL     1       2.883   6.674  20.149  0.00  0.00    +0.000 OA
ATOM     24  H   UNL     1       2.485   5.784  20.165  0.00  0.00    +0.000 HD
ENDBRANCH  22  23
BRANCH  22  25
ATOM     25  C   UNL     1       2.177   6.064  17.954  0.00  0.00    +0.000 C 
BRANCH  25  26
ATOM     26  C   UNL     1       1.831   4.792  18.735  0.00  0.00    +0.000 C 
BRANCH  26  27
ATOM     27  C   UNL     1       2.631   3.563  18.265  0.00  0.00    +0.000 C 
ATOM     28  C   UNL     1       1.803   2.277  18.354  0.00  0.00    +0.000 C 
BRANCH  27  29
ATOM     29  C   UNL     1       3.878   3.424  19.178  0.00  0.00    +0.000 C 
ATOM     30  O   UNL     1       3.787   3.195  20.386  0.00  0.00    +0.000 OA
BRANCH  29  31
ATOM     31  C   UNL     1       5.220   3.649  18.551  0.00  0.00    +0.000 C 
ATOM     32  C   UNL     1       5.696   4.878  18.325  0.00  0.00    +0.000 C 
BRANCH  32  33
ATOM     33  C   UNL     1       7.060   5.177  17.751  0.00  0.00    +0.000 C 
ATOM     34  C   UNL     1       7.000   5.361  16.232  0.00  0.00    +0.000 C 
ATOM     35  C   UNL     1       7.645   6.423  18.416  0.00  0.00    +0.000 C 
BRANCH  33  36
ATOM     36  O   UNL     1       7.937   4.085  18.026  0.00  0.00    +0.000 OA
ATOM     37  H   UNL     1       7.745   3.782  18.930  0.00  0.00    +0.000 HD
ENDBRANCH  33  36
ENDBRANCH  32  33
ENDBRANCH  29  31
ENDBRANCH  27  29
BRANCH  27  38
ATOM     38  O   UNL     1       3.020   3.761  16.902  0.00  0.00    +0.000 OA
ATOM     39  H   UNL     1       3.489   4.610  16.828  0.00  0.00    +0.000 HD
ENDBRANCH  27  38
ENDBRANCH  26  27
ENDBRANCH  25  26
ENDBRANCH  22  25
ENDBRANCH   2  22
TORSDOF 17
ENDMDL
MODEL 4
REMARK VINA RESULT:      -7.1      2.719      4.360
REMARK  Name = 
REMARK  24 active torsions:
REMARK  status: ('A' for Active; 'I' for Inactive)
REMARK    1  A    between atoms: C_1  and  O_2
REMARK    2  A    between atoms: O_2  and  C_3
REMARK    3  A    between atoms: C_4  and  C_5
REMARK    4  A    between atoms: C_7  and  O_8
REMARK    5  A    between atoms: C_10  and  C_11
REMARK    6  A    between atoms: C_11  and  C_12
REMARK    7  A    between atoms: C_13  and  C_14
REMARK    8  A    between atoms: C_13  and  C_15
REMARK    9  A    between atoms: C_15  and  C_16
REMARK   10  A    between atoms: C_16  and  C_18
REMARK   11  A    between atoms: C_19  and  C_20
REMARK   12  A    between atoms: C_19  and  C_21
REMARK   13  A    between atoms: C_21  and  O_22
REMARK   14  A    between atoms: C_21  and  C_23
REMARK   15  A    between atoms: C_23  and  C_24
REMARK   16  A    between atoms: C_24  and  C_25
REMARK   17  A    between atoms: C_25  and  C_26
REMARK   18  A    between atoms: C_25  and  O_27
REMARK   19  A    between atoms: C_25  and  C_28
REMARK   20  A    between atoms: C_28  and  C_30
REMARK   21  A    between atoms: C_31  and  C_32
REMARK   22  A    between atoms: C_32  and  C_33
REMARK   23  A    between atoms: C_32  and  C_34
REMARK   24  A    between atoms: C_32  and  O_35
REMARK                            x       y       z     vdW  Elec       q    Type
REMARK                         _______ _______ _______ _____ _____    ______ ____
ROOT
ATOM      1  C   UNL     1       1.800   7.792  20.320  0.00  0.00    +0.000 C 
ATOM      2  C   UNL     1       2.163   7.804  19.019  0.00  0.00    +0.000 C 
ATOM      3  C   UNL     1       1.616   8.755  17.980  0.00  0.00    +0.000 C 
ENDROOT
BRANCH   1   4
ATOM      4  C   UNL     1       0.772   8.665  20.972  0.00  0.00    +0.000 C 
ATOM      5  O   UNL     1      -0.345   8.248  21.269  0.00  0.00    +0.000 OA
BRANCH   4   6
ATOM      6  C   UNL     1       1.177  10.101  21.258  0.00  0.00    +0.000 C 
BRANCH   6   8
ATOM      7  C   UNL     1      -0.582  10.706  19.623  0.00  0.00    +0.000 C 
ATOM      8  C   UNL     1       0.537  11.064  20.284  0.00  0.00    +0.000 C 
ATOM      9  C   UNL     1       1.190  12.417  20.170  0.00  0.00    +0.000 C 
BRANCH   7  10
ATOM     10  C   UNL     1      -1.340  11.526  18.613  0.00  0.00    +0.000 C 
BRANCH  10  17
ATOM     11  C   UNL     1      -3.926  11.327  18.373  0.00  0.00    +0.000 A 
ATOM     12  C   UNL     1      -5.207  11.755  18.799  0.00  0.00    +0.000 A 
ATOM     13  C   UNL     1      -6.485  11.300  18.142  0.00  0.00    +0.000 C 
ATOM     14  C   UNL     1      -5.330  12.649  19.877  0.00  0.00    +0.000 A 
ATOM     15  C   UNL     1      -4.197  13.109  20.524  0.00  0.00    +0.000 A 
ATOM     16  C   UNL     1      -2.938  12.710  20.104  0.00  0.00    +0.000 A 
ATOM     17  C   UNL     1      -2.769  11.832  19.011  0.00  0.00    +0.000 A 
BRANCH  11  19
ATOM     18  C   UNL     1      -3.678  11.104  16.005  0.00  0.00    +0.000 C 
ATOM     19  O   UNL     1      -3.924  10.509  17.273  0.00  0.00    +0.000 OA
ENDBRANCH  11  19
BRANCH  15  20
ATOM     20  O   UNL     1      -4.273  13.966  21.581  0.00  0.00    +0.000 OA
ATOM     21  H   UNL     1      -4.418  14.864  21.241  0.00  0.00    +0.000 HD
ENDBRANCH  15  20
ENDBRANCH  10  17
ENDBRANCH   7  10
ENDBRANCH   6   8
ENDBRANCH   4   6
ENDBRANCH   1   4
BRANCH   2  22
ATOM     22  C   UNL     1       3.170   6.771  18.546  0.00  0.00    +0.000 C 
BRANCH  22  23
ATOM     23  O   UNL     1       2.450   5.552  18.331  0.00  0.00    +0.000 OA
ATOM     24  H   UNL     1       2.972   4.827  18.718  0.00  0.00    +0.000 HD
ENDBRANCH  22  23
BRANCH  22  25
ATOM     25  C   UNL     1       3.931   7.081  17.253  0.00  0.00    +0.000 C 
BRANCH  25  26
ATOM     26  C   UNL     1       5.430   7.317  17.457  0.00  0.00    +0.000 C 
BRANCH  26  27
ATOM     27  C   UNL     1       6.298   6.159  16.932  0.00  0.00    +0.000 C 
ATOM     28  C   UNL     1       5.592   5.380  15.817  0.00  0.00    +0.000 C 
BRANCH  27  29
ATOM     29  C   UNL     1       6.584   5.197  18.115  0.00  0.00    +0.000 C 
ATOM     30  O   UNL     1       7.511   5.384  18.905  0.00  0.00    +0.000 OA
BRANCH  29  31
ATOM     31  C   UNL     1       5.727   3.974  18.232  0.00  0.00    +0.000 C 
ATOM     32  C   UNL     1       5.077   3.673  19.361  0.00  0.00    +0.000 C 
BRANCH  32  33
ATOM     33  C   UNL     1       4.155   2.490  19.530  0.00  0.00    +0.000 C 
ATOM     34  C   UNL     1       3.080   2.763  20.585  0.00  0.00    +0.000 C 
ATOM     35  C   UNL     1       3.509   2.135  18.190  0.00  0.00    +0.000 C 
BRANCH  33  36
ATOM     36  O   UNL     1       4.913   1.358  19.959  0.00  0.00    +0.000 OA
ATOM     37  H   UNL     1       4.472   0.566  19.606  0.00  0.00    +0.000 HD
ENDBRANCH  33  36
ENDBRANCH  32  33
ENDBRANCH  29  31
ENDBRANCH  27  29
BRANCH  27  38
ATOM     38  O   UNL     1       7.516   6.697  16.409  0.00  0.00    +0.000 OA
ATOM     39  H   UNL     1       7.704   7.542  16.854  0.00  0.00    +0.000 HD
ENDBRANCH  27  38
ENDBRANCH  26  27
ENDBRANCH  25  26
ENDBRANCH  22  25
ENDBRANCH   2  22
TORSDOF 17
ENDMDL
MODEL 5
REMARK VINA RESULT:      -7.0      1.985      3.497
REMARK  Name = 
REMARK  24 active torsions:
REMARK  status: ('A' for Active; 'I' for Inactive)
REMARK    1  A    between atoms: C_1  and  O_2
REMARK    2  A    between atoms: O_2  and  C_3
REMARK    3  A    between atoms: C_4  and  C_5
REMARK    4  A    between atoms: C_7  and  O_8
REMARK    5  A    between atoms: C_10  and  C_11
REMARK    6  A    between atoms: C_11  and  C_12
REMARK    7  A    between atoms: C_13  and  C_14
REMARK    8  A    between atoms: C_13  and  C_15
REMARK    9  A    between atoms: C_15  and  C_16
REMARK   10  A    between atoms: C_16  and  C_18
REMARK   11  A    between atoms: C_19  and  C_20
REMARK   12  A    between atoms: C_19  and  C_21
REMARK   13  A    between atoms: C_21  and  O_22
REMARK   14  A    between atoms: C_21  and  C_23
REMARK   15  A    between atoms: C_23  and  C_24
REMARK   16  A    between atoms: C_24  and  C_25
REMARK   17  A    between atoms: C_25  and  C_26
REMARK   18  A    between atoms: C_25  and  O_27
REMARK   19  A    between atoms: C_25  and  C_28
REMARK   20  A    between atoms: C_28  and  C_30
REMARK   21  A    between atoms: C_31  and  C_32
REMARK   22  A    between atoms: C_32  and  C_33
REMARK   23  A    between atoms: C_32  and  C_34
REMARK   24  A    between atoms: C_32  and  O_35
REMARK                            x       y       z     vdW  Elec       q    Type
REMARK                         _______ _______ _______ _____ _____    ______ ____
ROOT
ATOM      1  C   UNL     1       1.773   8.962  18.306  0.00  0.00    +0.000 C 
ATOM      2  C   UNL     1       2.144   7.905  19.060  0.00  0.00    +0.000 C 
ATOM      3  C   UNL     1       1.818   7.734  20.525  0.00  0.00    +0.000 C 
ENDROOT
BRANCH   1   4
ATOM      4  C   UNL     1       1.020  10.172  18.768  0.00  0.00    +0.000 C 
ATOM      5  O   UNL     1       1.575  11.250  18.967  0.00  0.00    +0.000 OA
BRANCH   4   6
ATOM      6  C   UNL     1      -0.476  10.009  18.976  0.00  0.00    +0.000 C 
BRANCH   6   8
ATOM      7  C   UNL     1      -1.464  11.813  20.356  0.00  0.00    +0.000 C 
ATOM      8  C   UNL     1      -1.166  11.346  19.127  0.00  0.00    +0.000 C 
ATOM      9  C   UNL     1      -1.422  12.103  17.850  0.00  0.00    +0.000 C 
BRANCH   7  10
ATOM     10  C   UNL     1      -2.157  13.107  20.691  0.00  0.00    +0.000 C 
BRANCH  10  17
ATOM     11  C   UNL     1      -4.738  12.847  20.918  0.00  0.00    +0.000 A 
ATOM     12  C   UNL     1      -5.866  12.765  21.771  0.00  0.00    +0.000 A 
ATOM     13  C   UNL     1      -7.282  12.714  21.257  0.00  0.00    +0.000 C 
ATOM     14  C   UNL     1      -5.695  12.734  23.166  0.00  0.00    +0.000 A 
ATOM     15  C   UNL     1      -4.422  12.781  23.706  0.00  0.00    +0.000 A 
ATOM     16  C   UNL     1      -3.313  12.879  22.880  0.00  0.00    +0.000 A 
ATOM     17  C   UNL     1      -3.442  12.935  21.475  0.00  0.00    +0.000 A 
BRANCH  11  19
ATOM     18  C   UNL     1      -4.885  11.762  18.792  0.00  0.00    +0.000 C 
ATOM     19  O   UNL     1      -5.028  12.936  19.581  0.00  0.00    +0.000 OA
ENDBRANCH  11  19
BRANCH  15  20
ATOM     20  O   UNL     1      -4.211  12.742  25.052  0.00  0.00    +0.000 OA
ATOM     21  H   UNL     1      -4.422  11.850  25.372  0.00  0.00    +0.000 HD
ENDBRANCH  15  20
ENDBRANCH  10  17
ENDBRANCH   7  10
ENDBRANCH   6   8
ENDBRANCH   4   6
ENDBRANCH   1   4
BRANCH   2  22
ATOM     22  C   UNL     1       2.979   6.818  18.409  0.00  0.00    +0.000 C 
BRANCH  22  23
ATOM     23  O   UNL     1       2.088   5.748  18.073  0.00  0.00    +0.000 OA
ATOM     24  H   UNL     1       2.532   4.911  18.297  0.00  0.00    +0.000 HD
ENDBRANCH  22  23
BRANCH  22  25
ATOM     25  C   UNL     1       3.737   7.192  17.132  0.00  0.00    +0.000 C 
BRANCH  25  26
ATOM     26  C   UNL     1       5.229   7.461  17.351  0.00  0.00    +0.000 C 
BRANCH  26  27
ATOM     27  C   UNL     1       6.119   6.268  16.957  0.00  0.00    +0.000 C 
ATOM     28  C   UNL     1       5.444   5.377  15.908  0.00  0.00    +0.000 C 
BRANCH  27  29
ATOM     29  C   UNL     1       6.388   5.428  18.233  0.00  0.00    +0.000 C 
ATOM     30  O   UNL     1       7.186   5.787  19.102  0.00  0.00    +0.000 OA
BRANCH  29  31
ATOM     31  C   UNL     1       5.691   4.107  18.349  0.00  0.00    +0.000 C 
ATOM     32  C   UNL     1       4.841   3.843  19.348  0.00  0.00    +0.000 C 
BRANCH  32  33
ATOM     33  C   UNL     1       4.063   2.558  19.494  0.00  0.00    +0.000 C 
ATOM     34  C   UNL     1       2.935   2.699  20.519  0.00  0.00    +0.000 C 
ATOM     35  C   UNL     1       3.501   2.130  18.138  0.00  0.00    +0.000 C 
BRANCH  33  36
ATOM     36  O   UNL     1       4.939   1.525  19.946  0.00  0.00    +0.000 OA
ATOM     37  H   UNL     1       5.742   1.956  20.287  0.00  0.00    +0.000 HD
ENDBRANCH  33  36
ENDBRANCH  32  33
ENDBRANCH  29  31
ENDBRANCH  27  29
BRANCH  27  38
ATOM     38  O   UNL     1       7.343   6.768  16.411  0.00  0.00    +0.000 OA
ATOM     39  H   UNL     1       7.137   7.388  15.690  0.00  0.00    +0.000 HD
ENDBRANCH  27  38
ENDBRANCH  26  27
ENDBRANCH  25  26
ENDBRANCH  22  25
ENDBRANCH   2  22
TORSDOF 17
ENDMDL
MODEL 6
REMARK VINA RESULT:      -7.0      3.345      5.929
REMARK  Name = 
REMARK  24 active torsions:
REMARK  status: ('A' for Active; 'I' for Inactive)
REMARK    1  A    between atoms: C_1  and  O_2
REMARK    2  A    between atoms: O_2  and  C_3
REMARK    3  A    between atoms: C_4  and  C_5
REMARK    4  A    between atoms: C_7  and  O_8
REMARK    5  A    between atoms: C_10  and  C_11
REMARK    6  A    between atoms: C_11  and  C_12
REMARK    7  A    between atoms: C_13  and  C_14
REMARK    8  A    between atoms: C_13  and  C_15
REMARK    9  A    between atoms: C_15  and  C_16
REMARK   10  A    between atoms: C_16  and  C_18
REMARK   11  A    between atoms: C_19  and  C_20
REMARK   12  A    between atoms: C_19  and  C_21
REMARK   13  A    between atoms: C_21  and  O_22
REMARK   14  A    between atoms: C_21  and  C_23
REMARK   15  A    between atoms: C_23  and  C_24
REMARK   16  A    between atoms: C_24  and  C_25
REMARK   17  A    between atoms: C_25  and  C_26
REMARK   18  A    between atoms: C_25  and  O_27
REMARK   19  A    between atoms: C_25  and  C_28
REMARK   20  A    between atoms: C_28  and  C_30
REMARK   21  A    between atoms: C_31  and  C_32
REMARK   22  A    between atoms: C_32  and  C_33
REMARK   23  A    between atoms: C_32  and  C_34
REMARK   24  A    between atoms: C_32  and  O_35
REMARK                            x       y       z     vdW  Elec       q    Type
REMARK                         _______ _______ _______ _____ _____    ______ ____
ROOT
ATOM      1  C   UNL     1       3.010   7.369  17.844  0.00  0.00    +0.000 C 
ATOM      2  C   UNL     1       3.073   6.023  17.931  0.00  0.00    +0.000 C 
ATOM      3  C   UNL     1       2.168   5.170  18.789  0.00  0.00    +0.000 C 
ENDROOT
BRANCH   1   4
ATOM      4  C   UNL     1       2.082   8.273  18.597  0.00  0.00    +0.000 C 
ATOM      5  O   UNL     1       2.000   8.250  19.822  0.00  0.00    +0.000 OA
BRANCH   4   6
ATOM      6  C   UNL     1       1.243   9.234  17.771  0.00  0.00    +0.000 C 
BRANCH   6   8
ATOM      7  C   UNL     1       1.536  11.520  18.676  0.00  0.00    +0.000 C 
ATOM      8  C   UNL     1       0.774  10.411  18.594  0.00  0.00    +0.000 C 
ATOM      9  C   UNL     1      -0.583  10.270  19.233  0.00  0.00    +0.000 C 
BRANCH   7  10
ATOM     10  C   UNL     1       1.235  12.772  19.456  0.00  0.00    +0.000 C 
BRANCH  10  17
ATOM     11  C   UNL     1       1.267  15.285  18.771  0.00  0.00    +0.000 A 
ATOM     12  C   UNL     1       1.967  16.354  18.160  0.00  0.00    +0.000 A 
ATOM     13  C   UNL     1       1.361  17.716  17.945  0.00  0.00    +0.000 C 
ATOM     14  C   UNL     1       3.289  16.169  17.716  0.00  0.00    +0.000 A 
ATOM     15  C   UNL     1       3.905  14.941  17.879  0.00  0.00    +0.000 A 
ATOM     16  C   UNL     1       3.223  13.884  18.459  0.00  0.00    +0.000 A 
ATOM     17  C   UNL     1       1.887  14.021  18.898  0.00  0.00    +0.000 A 
BRANCH  11  19
ATOM     18  C   UNL     1      -0.325  15.839  20.468  0.00  0.00    +0.000 C 
ATOM     19  O   UNL     1      -0.034  15.560  19.103  0.00  0.00    +0.000 OA
ENDBRANCH  11  19
BRANCH  15  20
ATOM     20  O   UNL     1       5.188  14.724  17.474  0.00  0.00    +0.000 OA
ATOM     21  H   UNL     1       5.673  15.563  17.515  0.00  0.00    +0.000 HD
ENDBRANCH  15  20
ENDBRANCH  10  17
ENDBRANCH   7  10
ENDBRANCH   6   8
ENDBRANCH   4   6
ENDBRANCH   1   4
BRANCH   2  22
ATOM     22  C   UNL     1       4.150   5.303  17.140  0.00  0.00    +0.000 C 
BRANCH  22  23
ATOM     23  O   UNL     1       4.781   6.281  16.304  0.00  0.00    +0.000 OA
ATOM     24  H   UNL     1       4.485   7.160  16.601  0.00  0.00    +0.000 HD
ENDBRANCH  22  23
BRANCH  22  25
ATOM     25  C   UNL     1       5.257   4.610  17.939  0.00  0.00    +0.000 C 
BRANCH  25  26
ATOM     26  C   UNL     1       5.991   5.536  18.915  0.00  0.00    +0.000 C 
BRANCH  26  27
ATOM     27  C   UNL     1       7.501   5.631  18.630  0.00  0.00    +0.000 C 
ATOM     28  C   UNL     1       8.316   5.755  19.922  0.00  0.00    +0.000 C 
BRANCH  27  29
ATOM     29  C   UNL     1       7.747   6.890  17.757  0.00  0.00    +0.000 C 
ATOM     30  O   UNL     1       7.605   6.879  16.532  0.00  0.00    +0.000 OA
BRANCH  29  31
ATOM     31  C   UNL     1       8.240   8.124  18.448  0.00  0.00    +0.000 C 
ATOM     32  C   UNL     1       8.659   9.196  17.768  0.00  0.00    +0.000 C 
BRANCH  32  33
ATOM     33  C   UNL     1       9.114  10.489  18.399  0.00  0.00    +0.000 C 
ATOM     34  C   UNL     1       9.214  10.365  19.921  0.00  0.00    +0.000 C 
ATOM     35  C   UNL     1      10.458  10.914  17.808  0.00  0.00    +0.000 C 
BRANCH  33  36
ATOM     36  O   UNL     1       8.166  11.516  18.104  0.00  0.00    +0.000 OA
ATOM     37  H   UNL     1       8.444  11.933  17.270  0.00  0.00    +0.000 HD
ENDBRANCH  33  36
ENDBRANCH  32  33
ENDBRANCH  29  31
ENDBRANCH  27  29
BRANCH  27  38
ATOM     38  O   UNL     1       7.916   4.447  17.943  0.00  0.00    +0.000 OA
ATOM     39  H   UNL     1       8.859   4.527  17.716  0.00  0.00    +0.000 HD
ENDBRANCH  27  38
ENDBRANCH  26  27
ENDBRANCH  25  26
ENDBRANCH  22  25
ENDBRANCH   2  22
TORSDOF 17
ENDMDL
MODEL 7
REMARK VINA RESULT:      -7.0      1.956      2.252
REMARK  Name = 
REMARK  24 active torsions:
REMARK  status: ('A' for Active; 'I' for Inactive)
REMARK    1  A    between atoms: C_1  and  O_2
REMARK    2  A    between atoms: O_2  and  C_3
REMARK    3  A    between atoms: C_4  and  C_5
REMARK    4  A    between atoms: C_7  and  O_8
REMARK    5  A    between atoms: C_10  and  C_11
REMARK    6  A    between atoms: C_11  and  C_12
REMARK    7  A    between atoms: C_13  and  C_14
REMARK    8  A    between atoms: C_13  and  C_15
REMARK    9  A    between atoms: C_15  and  C_16
REMARK   10  A    between atoms: C_16  and  C_18
REMARK   11  A    between atoms: C_19  and  C_20
REMARK   12  A    between atoms: C_19  and  C_21
REMARK   13  A    between atoms: C_21  and  O_22
REMARK   14  A    between atoms: C_21  and  C_23
REMARK   15  A    between atoms: C_23  and  C_24
REMARK   16  A    between atoms: C_24  and  C_25
REMARK   17  A    between atoms: C_25  and  C_26
REMARK   18  A    between atoms: C_25  and  O_27
REMARK   19  A    between atoms: C_25  and  C_28
REMARK   20  A    between atoms: C_28  and  C_30
REMARK   21  A    between atoms: C_31  and  C_32
REMARK   22  A    between atoms: C_32  and  C_33
REMARK   23  A    between atoms: C_32  and  C_34
REMARK   24  A    between atoms: C_32  and  O_35
REMARK                            x       y       z     vdW  Elec       q    Type
REMARK                         _______ _______ _______ _____ _____    ______ ____
ROOT
ATOM      1  C   UNL     1       1.243   9.027  19.656  0.00  0.00    +0.000 C 
ATOM      2  C   UNL     1       1.995   7.990  19.227  0.00  0.00    +0.000 C 
ATOM      3  C   UNL     1       2.601   7.877  17.848  0.00  0.00    +0.000 C 
ENDROOT
BRANCH   1   4
ATOM      4  C   UNL     1       0.828  10.224  18.857  0.00  0.00    +0.000 C 
ATOM      5  O   UNL     1       1.645  11.017  18.395  0.00  0.00    +0.000 OA
BRANCH   4   6
ATOM      6  C   UNL     1      -0.663  10.413  18.633  0.00  0.00    +0.000 C 
BRANCH   6   8
ATOM      7  C   UNL     1      -1.761  11.886  20.294  0.00  0.00    +0.000 C 
ATOM      8  C   UNL     1      -1.129  11.770  19.108  0.00  0.00    +0.000 C 
ATOM      9  C   UNL     1      -0.787  12.935  18.216  0.00  0.00    +0.000 C 
BRANCH   7  10
ATOM     10  C   UNL     1      -2.303  13.146  20.913  0.00  0.00    +0.000 C 
BRANCH  10  17
ATOM     11  C   UNL     1      -4.845  12.715  21.279  0.00  0.00    +0.000 A 
ATOM     12  C   UNL     1      -5.927  12.610  22.187  0.00  0.00    +0.000 A 
ATOM     13  C   UNL     1      -7.355  12.421  21.745  0.00  0.00    +0.000 C 
ATOM     14  C   UNL     1      -5.695  12.687  23.572  0.00  0.00    +0.000 A 
ATOM     15  C   UNL     1      -4.407  12.863  24.046  0.00  0.00    +0.000 A 
ATOM     16  C   UNL     1      -3.345  12.985  23.165  0.00  0.00    +0.000 A 
ATOM     17  C   UNL     1      -3.537  12.936  21.766  0.00  0.00    +0.000 A 
BRANCH  11  19
ATOM     18  C   UNL     1      -5.678  13.899  19.374  0.00  0.00    +0.000 C 
ATOM     19  O   UNL     1      -5.198  12.692  19.953  0.00  0.00    +0.000 OA
ENDBRANCH  11  19
BRANCH  15  20
ATOM     20  O   UNL     1      -4.138  12.932  25.380  0.00  0.00    +0.000 OA
ATOM     21  H   UNL     1      -3.178  12.857  25.507  0.00  0.00    +0.000 HD
ENDBRANCH  15  20
ENDBRANCH  10  17
ENDBRANCH   7  10
ENDBRANCH   6   8
ENDBRANCH   4   6
ENDBRANCH   1   4
BRANCH   2  22
ATOM     22  C   UNL     1       2.229   6.832  20.180  0.00  0.00    +0.000 C 
BRANCH  22  23
ATOM     23  O   UNL     1       1.783   7.256  21.474  0.00  0.00    +0.000 OA
ATOM     24  H   UNL     1       1.220   8.041  21.350  0.00  0.00    +0.000 HD
ENDBRANCH  22  23
BRANCH  22  25
ATOM     25  C   UNL     1       1.515   5.515  19.865  0.00  0.00    +0.000 C 
BRANCH  25  26
ATOM     26  C   UNL     1       2.463   4.351  19.562  0.00  0.00    +0.000 C 
BRANCH  26  27
ATOM     27  C   UNL     1       2.009   3.505  18.359  0.00  0.00    +0.000 C 
ATOM     28  C   UNL     1       1.101   2.348  18.787  0.00  0.00    +0.000 C 
BRANCH  27  29
ATOM     29  C   UNL     1       3.275   2.925  17.674  0.00  0.00    +0.000 C 
ATOM     30  O   UNL     1       3.629   1.754  17.830  0.00  0.00    +0.000 OA
BRANCH  29  31
ATOM     31  C   UNL     1       4.110   3.864  16.859  0.00  0.00    +0.000 C 
ATOM     32  C   UNL     1       5.298   4.305  17.286  0.00  0.00    +0.000 C 
BRANCH  32  33
ATOM     33  C   UNL     1       6.214   5.205  16.493  0.00  0.00    +0.000 C 
ATOM     34  C   UNL     1       5.762   5.323  15.036  0.00  0.00    +0.000 C 
ATOM     35  C   UNL     1       6.281   6.587  17.144  0.00  0.00    +0.000 C 
BRANCH  33  36
ATOM     36  O   UNL     1       7.533   4.659  16.500  0.00  0.00    +0.000 OA
ATOM     37  H   UNL     1       7.688   4.270  15.621  0.00  0.00    +0.000 HD
ENDBRANCH  33  36
ENDBRANCH  32  33
ENDBRANCH  29  31
ENDBRANCH  27  29
BRANCH  27  38
ATOM     38  O   UNL     1       1.283   4.343  17.455  0.00  0.00    +0.000 OA
ATOM     39  H   UNL     1       0.366   4.023  17.396  0.00  0.00    +0.000 HD
ENDBRANCH  27  38
ENDBRANCH  26  27
ENDBRANCH  25  26
ENDBRANCH  22  25
ENDBRANCH   2  22
TORSDOF 17
ENDMDL
MODEL 8
REMARK VINA RESULT:      -7.0      2.595      4.171
REMARK  Name = 
REMARK  24 active torsions:
REMARK  status: ('A' for Active; 'I' for Inactive)
REMARK    1  A    between atoms: C_1  and  O_2
REMARK    2  A    between atoms: O_2  and  C_3
REMARK    3  A    between atoms: C_4  and  C_5
REMARK    4  A    between atoms: C_7  and  O_8
REMARK    5  A    between atoms: C_10  and  C_11
REMARK    6  A    between atoms: C_11  and  C_12
REMARK    7  A    between atoms: C_13  and  C_14
REMARK    8  A    between atoms: C_13  and  C_15
REMARK    9  A    between atoms: C_15  and  C_16
REMARK   10  A    between atoms: C_16  and  C_18
REMARK   11  A    between atoms: C_19  and  C_20
REMARK   12  A    between atoms: C_19  and  C_21
REMARK   13  A    between atoms: C_21  and  O_22
REMARK   14  A    between atoms: C_21  and  C_23
REMARK   15  A    between atoms: C_23  and  C_24
REMARK   16  A    between atoms: C_24  and  C_25
REMARK   17  A    between atoms: C_25  and  C_26
REMARK   18  A    between atoms: C_25  and  O_27
REMARK   19  A    between atoms: C_25  and  C_28
REMARK   20  A    between atoms: C_28  and  C_30
REMARK   21  A    between atoms: C_31  and  C_32
REMARK   22  A    between atoms: C_32  and  C_33
REMARK   23  A    between atoms: C_32  and  C_34
REMARK   24  A    between atoms: C_32  and  O_35
REMARK                            x       y       z     vdW  Elec       q    Type
REMARK                         _______ _______ _______ _____ _____    ______ ____
ROOT
ATOM      1  C   UNL     1       1.728   8.679  20.079  0.00  0.00    +0.000 C 
ATOM      2  C   UNL     1       2.079   7.480  19.564  0.00  0.00    +0.000 C 
ATOM      3  C   UNL     1       2.036   6.172  20.317  0.00  0.00    +0.000 C 
ENDROOT
BRANCH   1   4
ATOM      4  C   UNL     1       1.281   8.955  21.482  0.00  0.00    +0.000 C 
ATOM      5  O   UNL     1       2.077   9.201  22.384  0.00  0.00    +0.000 OA
BRANCH   4   6
ATOM      6  C   UNL     1      -0.216   8.923  21.740  0.00  0.00    +0.000 C 
BRANCH   6   8
ATOM      7  C   UNL     1      -1.019  10.965  20.591  0.00  0.00    +0.000 C 
ATOM      8  C   UNL     1      -0.807  10.315  21.753  0.00  0.00    +0.000 C 
ATOM      9  C   UNL     1      -1.180  10.860  23.107  0.00  0.00    +0.000 C 
BRANCH   7  10
ATOM     10  C   UNL     1      -1.582  12.351  20.417  0.00  0.00    +0.000 C 
BRANCH  10  17
ATOM     11  C   UNL     1      -4.103  13.001  20.383  0.00  0.00    +0.000 A 
ATOM     12  C   UNL     1      -5.363  12.892  19.744  0.00  0.00    +0.000 A 
ATOM     13  C   UNL     1      -6.627  13.481  20.315  0.00  0.00    +0.000 C 
ATOM     14  C   UNL     1      -5.477  12.203  18.523  0.00  0.00    +0.000 A 
ATOM     15  C   UNL     1      -4.356  11.635  17.945  0.00  0.00    +0.000 A 
ATOM     16  C   UNL     1      -3.123  11.722  18.570  0.00  0.00    +0.000 A 
ATOM     17  C   UNL     1      -2.969  12.384  19.809  0.00  0.00    +0.000 A 
BRANCH  11  19
ATOM     18  C   UNL     1      -4.242  12.829  22.765  0.00  0.00    +0.000 C 
ATOM     19  O   UNL     1      -4.123  13.635  21.598  0.00  0.00    +0.000 OA
ENDBRANCH  11  19
BRANCH  15  20
ATOM     20  O   UNL     1      -4.421  10.970  16.757  0.00  0.00    +0.000 OA
ATOM     21  H   UNL     1      -3.971  10.116  16.855  0.00  0.00    +0.000 HD
ENDBRANCH  15  20
ENDBRANCH  10  17
ENDBRANCH   7  10
ENDBRANCH   6   8
ENDBRANCH   4   6
ENDBRANCH   1   4
BRANCH   2  22
ATOM     22  C   UNL     1       2.587   7.436  18.134  0.00  0.00    +0.000 C 
BRANCH  22  23
ATOM     23  O   UNL     1       2.202   8.668  17.513  0.00  0.00    +0.000 OA
ATOM     24  H   UNL     1       1.347   8.937  17.894  0.00  0.00    +0.000 HD
ENDBRANCH  22  23
BRANCH  22  25
ATOM     25  C   UNL     1       4.098   7.283  17.935  0.00  0.00    +0.000 C 
BRANCH  25  26
ATOM     26  C   UNL     1       4.481   6.427  16.724  0.00  0.00    +0.000 C 
BRANCH  26  27
ATOM     27  C   UNL     1       5.931   5.914  16.787  0.00  0.00    +0.000 C 
ATOM     28  C   UNL     1       6.345   5.216  15.487  0.00  0.00    +0.000 C 
BRANCH  27  29
ATOM     29  C   UNL     1       6.032   4.900  17.957  0.00  0.00    +0.000 C 
ATOM     30  O   UNL     1       7.114   4.483  18.375  0.00  0.00    +0.000 OA
BRANCH  29  31
ATOM     31  C   UNL     1       4.750   4.378  18.529  0.00  0.00    +0.000 C 
ATOM     32  C   UNL     1       4.247   3.193  18.168  0.00  0.00    +0.000 C 
BRANCH  32  33
ATOM     33  C   UNL     1       2.993   2.582  18.745  0.00  0.00    +0.000 C 
ATOM     34  C   UNL     1       2.960   2.703  20.270  0.00  0.00    +0.000 C 
ATOM     35  C   UNL     1       1.759   3.243  18.130  0.00  0.00    +0.000 C 
BRANCH  33  36
ATOM     36  O   UNL     1       2.950   1.193  18.415  0.00  0.00    +0.000 OA
ATOM     37  H   UNL     1       2.291   1.085  17.707  0.00  0.00    +0.000 HD
ENDBRANCH  33  36
ENDBRANCH  32  33
ENDBRANCH  29  31
ENDBRANCH  27  29
BRANCH  27  38
ATOM     38  O   UNL     1       6.804   7.026  17.003  0.00  0.00    +0.000 OA
ATOM     39  H   UNL     1       6.279   7.784  17.316  0.00  0.00    +0.000 HD
ENDBRANCH  27  38
ENDBRANCH  26  27
ENDBRANCH  25  26
ENDBRANCH  22  25
ENDBRANCH   2  22
TORSDOF 17
ENDMDL
MODEL 9
REMARK VINA RESULT:      -6.9      2.036      3.816
REMARK  Name = 
REMARK  24 active torsions:
REMARK  status: ('A' for Active; 'I' for Inactive)
REMARK    1  A    between atoms: C_1  and  O_2
REMARK    2  A    between atoms: O_2  and  C_3
REMARK    3  A    between atoms: C_4  and  C_5
REMARK    4  A    between atoms: C_7  and  O_8
REMARK    5  A    between atoms: C_10  and  C_11
REMARK    6  A    between atoms: C_11  and  C_12
REMARK    7  A    between atoms: C_13  and  C_14
REMARK    8  A    between atoms: C_13  and  C_15
REMARK    9  A    between atoms: C_15  and  C_16
REMARK   10  A    between atoms: C_16  and  C_18
REMARK   11  A    between atoms: C_19  and  C_20
REMARK   12  A    between atoms: C_19  and  C_21
REMARK   13  A    between atoms: C_21  and  O_22
REMARK   14  A    between atoms: C_21  and  C_23
REMARK   15  A    between atoms: C_23  and  C_24
REMARK   16  A    between atoms: C_24  and  C_25
REMARK   17  A    between atoms: C_25  and  C_26
REMARK   18  A    between atoms: C_25  and  O_27
REMARK   19  A    between atoms: C_25  and  C_28
REMARK   20  A    between atoms: C_28  and  C_30
REMARK   21  A    between atoms: C_31  and  C_32
REMARK   22  A    between atoms: C_32  and  C_33
REMARK   23  A    between atoms: C_32  and  C_34
REMARK   24  A    between atoms: C_32  and  O_35
REMARK                            x       y       z     vdW  Elec       q    Type
REMARK                         _______ _______ _______ _____ _____    ______ ____
ROOT
ATOM      1  C   UNL     1       1.454   8.290  20.013  0.00  0.00    +0.000 C 
ATOM      2  C   UNL     1       2.140   8.171  18.856  0.00  0.00    +0.000 C 
ATOM      3  C   UNL     1       2.097   9.168  17.722  0.00  0.00    +0.000 C 
ENDROOT
BRANCH   1   4
ATOM      4  C   UNL     1       0.498   9.384  20.380  0.00  0.00    +0.000 C 
ATOM      5  O   UNL     1      -0.535   9.587  19.747  0.00  0.00    +0.000 OA
BRANCH   4   6
ATOM      6  C   UNL     1       0.862  10.235  21.585  0.00  0.00    +0.000 C 
BRANCH   6   8
ATOM      7  C   UNL     1      -0.947  11.744  22.346  0.00  0.00    +0.000 C 
ATOM      8  C   UNL     1       0.138  11.562  21.568  0.00  0.00    +0.000 C 
ATOM      9  C   UNL     1       0.743  12.631  20.696  0.00  0.00    +0.000 C 
BRANCH   7  10
ATOM     10  C   UNL     1      -1.793  12.986  22.445  0.00  0.00    +0.000 C 
BRANCH  10  17
ATOM     11  C   UNL     1      -4.395  13.032  22.340  0.00  0.00    +0.000 A 
ATOM     12  C   UNL     1      -5.570  12.835  21.573  0.00  0.00    +0.000 A 
ATOM     13  C   UNL     1      -6.956  12.930  22.155  0.00  0.00    +0.000 C 
ATOM     14  C   UNL     1      -5.475  12.530  20.204  0.00  0.00    +0.000 A 
ATOM     15  C   UNL     1      -4.232  12.425  19.605  0.00  0.00    +0.000 A 
ATOM     16  C   UNL     1      -3.077  12.598  20.351  0.00  0.00    +0.000 A 
ATOM     17  C   UNL     1      -3.127  12.884  21.733  0.00  0.00    +0.000 A 
BRANCH  11  19
ATOM     18  C   UNL     1      -4.256  12.225  24.587  0.00  0.00    +0.000 C 
ATOM     19  O   UNL     1      -4.607  13.259  23.676  0.00  0.00    +0.000 OA
ENDBRANCH  11  19
BRANCH  15  20
ATOM     20  O   UNL     1      -4.096  12.143  18.279  0.00  0.00    +0.000 OA
ATOM     21  H   UNL     1      -3.546  12.830  17.871  0.00  0.00    +0.000 HD
ENDBRANCH  15  20
ENDBRANCH  10  17
ENDBRANCH   7  10
ENDBRANCH   6   8
ENDBRANCH   4   6
ENDBRANCH   1   4
BRANCH   2  22
ATOM     22  C   UNL     1       2.995   6.933  18.653  0.00  0.00    +0.000 C 
BRANCH  22  23
ATOM     23  O   UNL     1       2.103   5.814  18.583  0.00  0.00    +0.000 OA
ATOM     24  H   UNL     1       1.250   6.091  18.961  0.00  0.00    +0.000 HD
ENDBRANCH  22  23
BRANCH  22  25
ATOM     25  C   UNL     1       3.873   6.891  17.400  0.00  0.00    +0.000 C 
BRANCH  25  26
ATOM     26  C   UNL     1       5.376   6.937  17.693  0.00  0.00    +0.000 C 
BRANCH  26  27
ATOM     27  C   UNL     1       6.177   5.897  16.888  0.00  0.00    +0.000 C 
ATOM     28  C   UNL     1       5.369   5.345  15.709  0.00  0.00    +0.000 C 
BRANCH  27  29
ATOM     29  C   UNL     1       6.541   4.728  17.841  0.00  0.00    +0.000 C 
ATOM     30  O   UNL     1       7.705   4.365  18.022  0.00  0.00    +0.000 OA
BRANCH  29  31
ATOM     31  C   UNL     1       5.411   3.993  18.493  0.00  0.00    +0.000 C 
ATOM     32  C   UNL     1       4.707   3.059  17.844  0.00  0.00    +0.000 C 
BRANCH  32  33
ATOM     33  C   UNL     1       3.595   2.242  18.457  0.00  0.00    +0.000 C 
ATOM     34  C   UNL     1       3.397   2.584  19.935  0.00  0.00    +0.000 C 
ATOM     35  C   UNL     1       2.297   2.461  17.680  0.00  0.00    +0.000 C 
BRANCH  33  36
ATOM     36  O   UNL     1       3.925   0.856  18.368  0.00  0.00    +0.000 OA
ATOM     37  H   UNL     1       3.440   0.398  19.076  0.00  0.00    +0.000 HD
ENDBRANCH  33  36
ENDBRANCH  32  33
ENDBRANCH  29  31
ENDBRANCH  27  29
BRANCH  27  38
ATOM     38  O   UNL     1       7.358   6.522  16.377  0.00  0.00    +0.000 OA
ATOM     39  H   UNL     1       7.288   6.585  15.408  0.00  0.00    +0.000 HD
ENDBRANCH  27  38
ENDBRANCH  26  27
ENDBRANCH  25  26
ENDBRANCH  22  25
ENDBRANCH   2  22
TORSDOF 17
ENDMDL
