MODEL 1
REMARK VINA RESULT:      -7.6      0.000      0.000
REMARK  Name = 
REMARK  11 active torsions:
REMARK  status: ('A' for Active; 'I' for Inactive)
REMARK    1  A    between atoms: C_1  and  O_2
REMARK    2  A    between atoms: O_2  and  C_3
REMARK    3  A    between atoms: C_6  and  C_7
REMARK    4  A    between atoms: C_13  and  O_14
REMARK    5  A    between atoms: O_14  and  C_15
REMARK    6  A    between atoms: C_16  and  O_17
REMARK    7  A    between atoms: O_17  and  C_18
REMARK    8  A    between atoms: C_19  and  O_20
REMARK    9  A    between atoms: O_20  and  C_21
REMARK   10  A    between atoms: C_25  and  O_26
REMARK   11  A    between atoms: O_26  and  C_27
REMARK                            x       y       z     vdW  Elec       q    Type
REMARK                         _______ _______ _______ _____ _____    ______ ____
ROOT
ATOM      1  C   UNL     1       3.860   4.896  18.680  0.00  0.00    +0.000 C 
ATOM      2  C   UNL     1       3.164   5.955  19.116  0.00  0.00    +0.000 C 
ATOM      3  C   UNL     1       3.087   7.300  18.447  0.00  0.00    +0.000 C 
ATOM      4  C   UNL     1       2.013   8.012  19.201  0.00  0.00    +0.000 A 
ATOM      5  C   UNL     1       1.625   7.323  20.342  0.00  0.00    +0.000 A 
ATOM      6  C   UNL     1       0.734   7.877  21.252  0.00  0.00    +0.000 A 
ATOM      7  C   UNL     1       0.187   9.142  20.965  0.00  0.00    +0.000 A 
ATOM      8  C   UNL     1       0.515   9.805  19.744  0.00  0.00    +0.000 A 
ATOM      9  C   UNL     1       1.459   9.236  18.867  0.00  0.00    +0.000 A 
ATOM     10  C   UNL     1       2.298   6.001  20.346  0.00  0.00    +0.000 C 
ATOM     11  O   UNL     1       2.158   5.134  21.184  0.00  0.00    +0.000 OA
ENDROOT
BRANCH   1  15
ATOM     12  C   UNL     1       6.433   5.103  15.241  0.00  0.00    +0.000 A 
ATOM     13  C   UNL     1       5.349   4.212  15.292  0.00  0.00    +0.000 A 
ATOM     14  C   UNL     1       4.493   4.175  16.399  0.00  0.00    +0.000 A 
ATOM     15  C   UNL     1       4.724   5.004  17.495  0.00  0.00    +0.000 A 
ATOM     16  C   UNL     1       5.843   5.841  17.476  0.00  0.00    +0.000 A 
ATOM     17  C   UNL     1       6.703   5.904  16.363  0.00  0.00    +0.000 A 
BRANCH  12  19
ATOM     18  C   UNL     1       6.895   4.384  13.018  0.00  0.00    +0.000 C 
ATOM     19  O   UNL     1       7.257   5.174  14.149  0.00  0.00    +0.000 OA
ENDBRANCH  12  19
BRANCH  17  20
ATOM     20  O   UNL     1       7.742   6.774  16.566  0.00  0.00    +0.000 OA
ATOM     21  C   UNL     1       7.632   7.768  17.574  0.00  0.00    +0.000 C 
ENDBRANCH  17  20
ENDBRANCH   1  15
BRANCH   7  22
ATOM     22  O   UNL     1      -0.655   9.811  21.813  0.00  0.00    +0.000 OA
ATOM     23  C   UNL     1      -0.370   9.819  23.204  0.00  0.00    +0.000 C 
ENDBRANCH   7  22
BRANCH   8  24
ATOM     24  O   UNL     1      -0.136  10.918  19.271  0.00  0.00    +0.000 OA
ATOM     25  C   UNL     1      -1.304  10.735  18.485  0.00  0.00    +0.000 C 
ENDBRANCH   8  24
BRANCH   9  26
ATOM     26  O   UNL     1       1.893   9.715  17.662  0.00  0.00    +0.000 OA
ATOM     27  C   UNL     1       2.560  10.966  17.649  0.00  0.00    +0.000 C 
ENDBRANCH   9  26
TORSDOF 6
ENDMDL
MODEL 2
REMARK VINA RESULT:      -6.4      2.844      5.083
REMARK  Name = 
REMARK  11 active torsions:
REMARK  status: ('A' for Active; 'I' for Inactive)
REMARK    1  A    between atoms: C_1  and  O_2
REMARK    2  A    between atoms: O_2  and  C_3
REMARK    3  A    between atoms: C_6  and  C_7
REMARK    4  A    between atoms: C_13  and  O_14
REMARK    5  A    between atoms: O_14  and  C_15
REMARK    6  A    between atoms: C_16  and  O_17
REMARK    7  A    between atoms: O_17  and  C_18
REMARK    8  A    between atoms: C_19  and  O_20
REMARK    9  A    between atoms: O_20  and  C_21
REMARK   10  A    between atoms: C_25  and  O_26
REMARK   11  A    between atoms: O_26  and  C_27
REMARK                            x       y       z     vdW  Elec       q    Type
REMARK                         _______ _______ _______ _____ _____    ______ ____
ROOT
ATOM      1  C   UNL     1       1.458   8.246  21.108  0.00  0.00    +0.000 C 
ATOM      2  C   UNL     1       0.589   9.189  20.717  0.00  0.00    +0.000 C 
ATOM      3  C   UNL     1      -0.120   9.244  19.392  0.00  0.00    +0.000 C 
ATOM      4  C   UNL     1      -1.125  10.334  19.570  0.00  0.00    +0.000 A 
ATOM      5  C   UNL     1      -0.929  11.042  20.748  0.00  0.00    +0.000 A 
ATOM      6  C   UNL     1      -1.673  12.179  21.038  0.00  0.00    +0.000 A 
ATOM      7  C   UNL     1      -2.675  12.571  20.130  0.00  0.00    +0.000 A 
ATOM      8  C   UNL     1      -2.937  11.785  18.968  0.00  0.00    +0.000 A 
ATOM      9  C   UNL     1      -2.131  10.667  18.679  0.00  0.00    +0.000 A 
ATOM     10  C   UNL     1       0.128  10.363  21.537  0.00  0.00    +0.000 C 
ATOM     11  O   UNL     1       0.525  10.701  22.633  0.00  0.00    +0.000 OA
ENDROOT
BRANCH   1  15
ATOM     12  C   UNL     1       2.600   5.176  18.322  0.00  0.00    +0.000 A 
ATOM     13  C   UNL     1       2.867   6.531  18.069  0.00  0.00    +0.000 A 
ATOM     14  C   UNL     1       2.525   7.522  18.996  0.00  0.00    +0.000 A 
ATOM     15  C   UNL     1       1.877   7.183  20.182  0.00  0.00    +0.000 A 
ATOM     16  C   UNL     1       1.549   5.843  20.406  0.00  0.00    +0.000 A 
ATOM     17  C   UNL     1       1.901   4.832  19.492  0.00  0.00    +0.000 A 
BRANCH  12  19
ATOM     18  C   UNL     1       4.239   3.592  17.634  0.00  0.00    +0.000 C 
ATOM     19  O   UNL     1       2.961   4.192  17.440  0.00  0.00    +0.000 OA
ENDBRANCH  12  19
BRANCH  17  20
ATOM     20  O   UNL     1       1.466   3.598  19.899  0.00  0.00    +0.000 OA
ATOM     21  C   UNL     1       1.960   3.049  21.112  0.00  0.00    +0.000 C 
ENDBRANCH  17  20
ENDBRANCH   1  15
BRANCH   7  22
ATOM     22  O   UNL     1      -3.430  13.703  20.282  0.00  0.00    +0.000 OA
ATOM     23  C   UNL     1      -3.350  14.428  21.499  0.00  0.00    +0.000 C 
ENDBRANCH   7  22
BRANCH   8  24
ATOM     24  O   UNL     1      -4.031  11.952  18.154  0.00  0.00    +0.000 OA
ATOM     25  C   UNL     1      -5.247  11.319  18.518  0.00  0.00    +0.000 C 
ENDBRANCH   8  24
BRANCH   9  26
ATOM     26  O   UNL     1      -2.230   9.798  17.628  0.00  0.00    +0.000 OA
ATOM     27  C   UNL     1      -2.235  10.343  16.319  0.00  0.00    +0.000 C 
ENDBRANCH   9  26
TORSDOF 6
ENDMDL
MODEL 3
REMARK VINA RESULT:      -6.3      3.196      5.496
REMARK  Name = 
REMARK  11 active torsions:
REMARK  status: ('A' for Active; 'I' for Inactive)
REMARK    1  A    between atoms: C_1  and  O_2
REMARK    2  A    between atoms: O_2  and  C_3
REMARK    3  A    between atoms: C_6  and  C_7
REMARK    4  A    between atoms: C_13  and  O_14
REMARK    5  A    between atoms: O_14  and  C_15
REMARK    6  A    between atoms: C_16  and  O_17
REMARK    7  A    between atoms: O_17  and  C_18
REMARK    8  A    between atoms: C_19  and  O_20
REMARK    9  A    between atoms: O_20  and  C_21
REMARK   10  A    between atoms: C_25  and  O_26
REMARK   11  A    between atoms: O_26  and  C_27
REMARK                            x       y       z     vdW  Elec       q    Type
REMARK                         _______ _______ _______ _____ _____    ______ ____
ROOT
ATOM      1  C   UNL     1       2.405   7.993  18.425  0.00  0.00    +0.000 C 
ATOM      2  C   UNL     1       1.697   9.022  18.911  0.00  0.00    +0.000 C 
ATOM      3  C   UNL     1       0.679   8.952  20.016  0.00  0.00    +0.000 C 
ATOM      4  C   UNL     1       0.380  10.383  20.317  0.00  0.00    +0.000 A 
ATOM      5  C   UNL     1       0.937  11.245  19.381  0.00  0.00    +0.000 A 
ATOM      6  C   UNL     1       0.666  12.607  19.404  0.00  0.00    +0.000 A 
ATOM      7  C   UNL     1      -0.148  13.108  20.437  0.00  0.00    +0.000 A 
ATOM      8  C   UNL     1      -0.639  12.234  21.452  0.00  0.00    +0.000 A 
ATOM      9  C   UNL     1      -0.387  10.851  21.371  0.00  0.00    +0.000 A 
ATOM     10  C   UNL     1       1.801  10.456  18.470  0.00  0.00    +0.000 C 
ATOM     11  O   UNL     1       2.462  10.901  17.554  0.00  0.00    +0.000 OA
ENDROOT
BRANCH   1  15
ATOM     12  C   UNL     1       1.798   3.982  19.854  0.00  0.00    +0.000 A 
ATOM     13  C   UNL     1       1.951   5.060  20.740  0.00  0.00    +0.000 A 
ATOM     14  C   UNL     1       2.112   6.369  20.269  0.00  0.00    +0.000 A 
ATOM     15  C   UNL     1       2.158   6.623  18.900  0.00  0.00    +0.000 A 
ATOM     16  C   UNL     1       2.076   5.543  18.016  0.00  0.00    +0.000 A 
ATOM     17  C   UNL     1       1.896   4.223  18.473  0.00  0.00    +0.000 A 
BRANCH  12  19
ATOM     18  C   UNL     1       1.574   2.513  21.715  0.00  0.00    +0.000 C 
ATOM     19  O   UNL     1       1.605   2.702  20.302  0.00  0.00    +0.000 OA
ENDBRANCH  12  19
BRANCH  17  20
ATOM     20  O   UNL     1       1.861   3.323  17.441  0.00  0.00    +0.000 OA
ATOM     21  C   UNL     1       3.036   2.601  17.104  0.00  0.00    +0.000 C 
ENDBRANCH  17  20
ENDBRANCH   1  15
BRANCH   7  22
ATOM     22  O   UNL     1      -0.529  14.421  20.528  0.00  0.00    +0.000 OA
ATOM     23  C   UNL     1      -0.350  15.271  19.406  0.00  0.00    +0.000 C 
ENDBRANCH   7  22
BRANCH   8  24
ATOM     24  O   UNL     1      -1.239  12.658  22.613  0.00  0.00    +0.000 OA
ATOM     25  C   UNL     1      -2.657  12.637  22.687  0.00  0.00    +0.000 C 
ENDBRANCH   8  24
BRANCH   9  26
ATOM     26  O   UNL     1      -0.766   9.867  22.241  0.00  0.00    +0.000 OA
ATOM     27  C   UNL     1       0.076   9.606  23.352  0.00  0.00    +0.000 C 
ENDBRANCH   9  26
TORSDOF 6
ENDMDL
MODEL 4
REMARK VINA RESULT:      -6.3      2.764      4.417
REMARK  Name = 
REMARK  11 active torsions:
REMARK  status: ('A' for Active; 'I' for Inactive)
REMARK    1  A    between atoms: C_1  and  O_2
REMARK    2  A    between atoms: O_2  and  C_3
REMARK    3  A    between atoms: C_6  and  C_7
REMARK    4  A    between atoms: C_13  and  O_14
REMARK    5  A    between atoms: O_14  and  C_15
REMARK    6  A    between atoms: C_16  and  O_17
REMARK    7  A    between atoms: O_17  and  C_18
REMARK    8  A    between atoms: C_19  and  O_20
REMARK    9  A    between atoms: O_20  and  C_21
REMARK   10  A    between atoms: C_25  and  O_26
REMARK   11  A    between atoms: O_26  and  C_27
REMARK                            x       y       z     vdW  Elec       q    Type
REMARK                         _______ _______ _______ _____ _____    ______ ____
ROOT
ATOM      1  C   UNL     1       3.015   7.971  17.682  0.00  0.00    +0.000 C 
ATOM      2  C   UNL     1       2.268   8.840  18.376  0.00  0.00    +0.000 C 
ATOM      3  C   UNL     1       1.534   8.552  19.656  0.00  0.00    +0.000 C 
ATOM      4  C   UNL     1       1.075   9.896  20.116  0.00  0.00    +0.000 A 
ATOM      5  C   UNL     1       1.271  10.877  19.151  0.00  0.00    +0.000 A 
ATOM      6  C   UNL     1       0.792  12.168  19.328  0.00  0.00    +0.000 A 
ATOM      7  C   UNL     1       0.145  12.480  20.539  0.00  0.00    +0.000 A 
ATOM      8  C   UNL     1       0.031  11.496  21.566  0.00  0.00    +0.000 A 
ATOM      9  C   UNL     1       0.484  10.183  21.334  0.00  0.00    +0.000 A 
ATOM     10  C   UNL     1       2.039  10.286  18.028  0.00  0.00    +0.000 C 
ATOM     11  O   UNL     1       2.408  10.874  17.033  0.00  0.00    +0.000 OA
ENDROOT
BRANCH   1  15
ATOM     12  C   UNL     1       3.212   3.879  18.992  0.00  0.00    +0.000 A 
ATOM     13  C   UNL     1       2.003   4.457  18.572  0.00  0.00    +0.000 A 
ATOM     14  C   UNL     1       1.952   5.778  18.113  0.00  0.00    +0.000 A 
ATOM     15  C   UNL     1       3.104   6.562  18.096  0.00  0.00    +0.000 A 
ATOM     16  C   UNL     1       4.295   6.012  18.578  0.00  0.00    +0.000 A 
ATOM     17  C   UNL     1       4.367   4.679  19.027  0.00  0.00    +0.000 A 
BRANCH  12  19
ATOM     18  C   UNL     1       3.577   1.597  18.417  0.00  0.00    +0.000 C 
ATOM     19  O   UNL     1       3.283   2.577  19.411  0.00  0.00    +0.000 OA
ENDBRANCH  12  19
BRANCH  17  20
ATOM     20  O   UNL     1       5.622   4.356  19.472  0.00  0.00    +0.000 OA
ATOM     21  C   UNL     1       6.693   5.261  19.256  0.00  0.00    +0.000 C 
ENDBRANCH  17  20
ENDBRANCH   1  15
BRANCH   7  22
ATOM     22  O   UNL     1      -0.418  13.701  20.801  0.00  0.00    +0.000 OA
ATOM     23  C   UNL     1      -0.042  14.819  20.011  0.00  0.00    +0.000 C 
ENDBRANCH   7  22
BRANCH   8  24
ATOM     24  O   UNL     1      -0.370  11.764  22.852  0.00  0.00    +0.000 OA
ATOM     25  C   UNL     1      -1.753  11.676  23.161  0.00  0.00    +0.000 C 
ENDBRANCH   8  24
BRANCH   9  26
ATOM     26  O   UNL     1       0.465   9.115  22.189  0.00  0.00    +0.000 OA
ATOM     27  C   UNL     1      -0.685   8.286  22.185  0.00  0.00    +0.000 C 
ENDBRANCH   9  26
TORSDOF 6
ENDMDL
MODEL 5
REMARK VINA RESULT:      -6.2      2.460      4.842
REMARK  Name = 
REMARK  11 active torsions:
REMARK  status: ('A' for Active; 'I' for Inactive)
REMARK    1  A    between atoms: C_1  and  O_2
REMARK    2  A    between atoms: O_2  and  C_3
REMARK    3  A    between atoms: C_6  and  C_7
REMARK    4  A    between atoms: C_13  and  O_14
REMARK    5  A    between atoms: O_14  and  C_15
REMARK    6  A    between atoms: C_16  and  O_17
REMARK    7  A    between atoms: O_17  and  C_18
REMARK    8  A    between atoms: C_19  and  O_20
REMARK    9  A    between atoms: O_20  and  C_21
REMARK   10  A    between atoms: C_25  and  O_26
REMARK   11  A    between atoms: O_26  and  C_27
REMARK                            x       y       z     vdW  Elec       q    Type
REMARK                         _______ _______ _______ _____ _____    ______ ____
ROOT
ATOM      1  C   UNL     1       1.481   7.757  21.514  0.00  0.00    +0.000 C 
ATOM      2  C   UNL     1       0.740   8.854  21.303  0.00  0.00    +0.000 C 
ATOM      3  C   UNL     1       0.245   9.345  19.971  0.00  0.00    +0.000 C 
ATOM      4  C   UNL     1      -0.707  10.439  20.325  0.00  0.00    +0.000 A 
ATOM      5  C   UNL     1      -0.649  10.771  21.673  0.00  0.00    +0.000 A 
ATOM      6  C   UNL     1      -1.357  11.852  22.180  0.00  0.00    +0.000 A 
ATOM      7  C   UNL     1      -2.184  12.580  21.304  0.00  0.00    +0.000 A 
ATOM      8  C   UNL     1      -2.314  12.177  19.941  0.00  0.00    +0.000 A 
ATOM      9  C   UNL     1      -1.544  11.106  19.448  0.00  0.00    +0.000 A 
ATOM     10  C   UNL     1       0.233   9.796  22.360  0.00  0.00    +0.000 C 
ATOM     11  O   UNL     1       0.479   9.776  23.549  0.00  0.00    +0.000 OA
ENDROOT
BRANCH   1  15
ATOM     12  C   UNL     1       2.814   5.445  18.142  0.00  0.00    +0.000 A 
ATOM     13  C   UNL     1       2.826   6.849  18.118  0.00  0.00    +0.000 A 
ATOM     14  C   UNL     1       2.425   7.596  19.232  0.00  0.00    +0.000 A 
ATOM     15  C   UNL     1       1.970   6.955  20.382  0.00  0.00    +0.000 A 
ATOM     16  C   UNL     1       1.891   5.559  20.384  0.00  0.00    +0.000 A 
ATOM     17  C   UNL     1       2.308   4.792  19.278  0.00  0.00    +0.000 A 
BRANCH  12  19
ATOM     18  C   UNL     1       4.632   4.416  16.998  0.00  0.00    +0.000 C 
ATOM     19  O   UNL     1       3.237   4.702  17.071  0.00  0.00    +0.000 OA
ENDBRANCH  12  19
BRANCH  17  20
ATOM     20  O   UNL     1       2.126   3.450  19.487  0.00  0.00    +0.000 OA
ATOM     21  C   UNL     1       0.835   2.965  19.820  0.00  0.00    +0.000 C 
ENDBRANCH  17  20
ENDBRANCH   1  15
BRANCH   7  22
ATOM     22  O   UNL     1      -2.882  13.697  21.678  0.00  0.00    +0.000 OA
ATOM     23  C   UNL     1      -3.895  13.580  22.665  0.00  0.00    +0.000 C 
ENDBRANCH   7  22
BRANCH   8  24
ATOM     24  O   UNL     1      -3.260  12.673  19.076  0.00  0.00    +0.000 OA
ATOM     25  C   UNL     1      -4.618  12.313  19.281  0.00  0.00    +0.000 C 
ENDBRANCH   8  24
BRANCH   9  26
ATOM     26  O   UNL     1      -1.536  10.577  18.187  0.00  0.00    +0.000 OA
ATOM     27  C   UNL     1      -2.647   9.791  17.792  0.00  0.00    +0.000 C 
ENDBRANCH   9  26
TORSDOF 6
ENDMDL
MODEL 6
REMARK VINA RESULT:      -6.2      2.668      5.270
REMARK  Name = 
REMARK  11 active torsions:
REMARK  status: ('A' for Active; 'I' for Inactive)
REMARK    1  A    between atoms: C_1  and  O_2
REMARK    2  A    between atoms: O_2  and  C_3
REMARK    3  A    between atoms: C_6  and  C_7
REMARK    4  A    between atoms: C_13  and  O_14
REMARK    5  A    between atoms: O_14  and  C_15
REMARK    6  A    between atoms: C_16  and  O_17
REMARK    7  A    between atoms: O_17  and  C_18
REMARK    8  A    between atoms: C_19  and  O_20
REMARK    9  A    between atoms: O_20  and  C_21
REMARK   10  A    between atoms: C_25  and  O_26
REMARK   11  A    between atoms: O_26  and  C_27
REMARK                            x       y       z     vdW  Elec       q    Type
REMARK                         _______ _______ _______ _____ _____    ______ ____
ROOT
ATOM      1  C   UNL     1       1.060   8.925  17.702  0.00  0.00    +0.000 C 
ATOM      2  C   UNL     1       0.303   9.609  18.572  0.00  0.00    +0.000 C 
ATOM      3  C   UNL     1       0.438   9.589  20.069  0.00  0.00    +0.000 C 
ATOM      4  C   UNL     1      -0.468  10.685  20.524  0.00  0.00    +0.000 A 
ATOM      5  C   UNL     1      -1.258  11.176  19.493  0.00  0.00    +0.000 A 
ATOM      6  C   UNL     1      -2.261  12.106  19.733  0.00  0.00    +0.000 A 
ATOM      7  C   UNL     1      -2.427  12.585  21.047  0.00  0.00    +0.000 A 
ATOM      8  C   UNL     1      -1.551  12.148  22.085  0.00  0.00    +0.000 A 
ATOM      9  C   UNL     1      -0.576  11.168  21.817  0.00  0.00    +0.000 A 
ATOM     10  C   UNL     1      -0.813  10.555  18.221  0.00  0.00    +0.000 C 
ATOM     11  O   UNL     1      -1.269  10.785  17.120  0.00  0.00    +0.000 OA
ENDROOT
BRANCH   1  15
ATOM     12  C   UNL     1       4.018   6.087  19.000  0.00  0.00    +0.000 A 
ATOM     13  C   UNL     1       4.236   6.915  17.887  0.00  0.00    +0.000 A 
ATOM     14  C   UNL     1       3.285   7.862  17.492  0.00  0.00    +0.000 A 
ATOM     15  C   UNL     1       2.078   7.977  18.179  0.00  0.00    +0.000 A 
ATOM     16  C   UNL     1       1.829   7.107  19.244  0.00  0.00    +0.000 A 
ATOM     17  C   UNL     1       2.784   6.161  19.666  0.00  0.00    +0.000 A 
BRANCH  12  19
ATOM     18  C   UNL     1       4.893   3.877  18.842  0.00  0.00    +0.000 C 
ATOM     19  O   UNL     1       4.956   5.180  19.419  0.00  0.00    +0.000 OA
ENDBRANCH  12  19
BRANCH  17  20
ATOM     20  O   UNL     1       2.326   5.402  20.711  0.00  0.00    +0.000 OA
ATOM     21  C   UNL     1       1.315   4.432  20.479  0.00  0.00    +0.000 C 
ENDBRANCH  17  20
ENDBRANCH   1  15
BRANCH   7  22
ATOM     22  O   UNL     1      -3.418  13.457  21.412  0.00  0.00    +0.000 OA
ATOM     23  C   UNL     1      -4.683  12.943  21.798  0.00  0.00    +0.000 C 
ENDBRANCH   7  22
BRANCH   8  24
ATOM     24  O   UNL     1      -1.484  12.723  23.331  0.00  0.00    +0.000 OA
ATOM     25  C   UNL     1      -1.004  14.054  23.437  0.00  0.00    +0.000 C 
ENDBRANCH   8  24
BRANCH   9  26
ATOM     26  O   UNL     1       0.347  10.634  22.672  0.00  0.00    +0.000 OA
ATOM     27  C   UNL     1      -0.042   9.515  23.451  0.00  0.00    +0.000 C 
ENDBRANCH   9  26
TORSDOF 6
ENDMDL
MODEL 7
REMARK VINA RESULT:      -6.2      2.528      4.380
REMARK  Name = 
REMARK  11 active torsions:
REMARK  status: ('A' for Active; 'I' for Inactive)
REMARK    1  A    between atoms: C_1  and  O_2
REMARK    2  A    between atoms: O_2  and  C_3
REMARK    3  A    between atoms: C_6  and  C_7
REMARK    4  A    between atoms: C_13  and  O_14
REMARK    5  A    between atoms: O_14  and  C_15
REMARK    6  A    between atoms: C_16  and  O_17
REMARK    7  A    between atoms: O_17  and  C_18
REMARK    8  A    between atoms: C_19  and  O_20
REMARK    9  A    between atoms: O_20  and  C_21
REMARK   10  A    between atoms: C_25  and  O_26
REMARK   11  A    between atoms: O_26  and  C_27
REMARK                            x       y       z     vdW  Elec       q    Type
REMARK                         _______ _______ _______ _____ _____    ______ ____
ROOT
ATOM      1  C   UNL     1       1.513   7.507  21.505  0.00  0.00    +0.000 C 
ATOM      2  C   UNL     1       0.851   8.658  21.317  0.00  0.00    +0.000 C 
ATOM      3  C   UNL     1       0.305   9.161  20.010  0.00  0.00    +0.000 C 
ATOM      4  C   UNL     1      -0.528  10.337  20.399  0.00  0.00    +0.000 A 
ATOM      5  C   UNL     1      -0.351  10.689  21.731  0.00  0.00    +0.000 A 
ATOM      6  C   UNL     1      -0.932  11.835  22.257  0.00  0.00    +0.000 A 
ATOM      7  C   UNL     1      -1.756  12.611  21.420  0.00  0.00    +0.000 A 
ATOM      8  C   UNL     1      -2.013  12.193  20.080  0.00  0.00    +0.000 A 
ATOM      9  C   UNL     1      -1.368  11.053  19.563  0.00  0.00    +0.000 A 
ATOM     10  C   UNL     1       0.495   9.659  22.382  0.00  0.00    +0.000 C 
ATOM     11  O   UNL     1       0.821   9.642  23.551  0.00  0.00    +0.000 OA
ENDROOT
BRANCH   1  15
ATOM     12  C   UNL     1       2.591   4.926  18.239  0.00  0.00    +0.000 A 
ATOM     13  C   UNL     1       1.833   4.457  19.324  0.00  0.00    +0.000 A 
ATOM     14  C   UNL     1       1.454   5.311  20.366  0.00  0.00    +0.000 A 
ATOM     15  C   UNL     1       1.856   6.645  20.364  0.00  0.00    +0.000 A 
ATOM     16  C   UNL     1       2.669   7.098  19.321  0.00  0.00    +0.000 A 
ATOM     17  C   UNL     1       3.044   6.256  18.256  0.00  0.00    +0.000 A 
BRANCH  12  19
ATOM     18  C   UNL     1       2.784   2.707  17.397  0.00  0.00    +0.000 C 
ATOM     19  O   UNL     1       2.939   4.110  17.196  0.00  0.00    +0.000 OA
ENDBRANCH  12  19
BRANCH  17  20
ATOM     20  O   UNL     1       3.855   6.898  17.357  0.00  0.00    +0.000 OA
ATOM     21  C   UNL     1       5.257   6.678  17.401  0.00  0.00    +0.000 C 
ENDBRANCH  17  20
ENDBRANCH   1  15
BRANCH   7  22
ATOM     22  O   UNL     1      -2.334  13.789  21.812  0.00  0.00    +0.000 OA
ATOM     23  C   UNL     1      -2.629  13.991  23.185  0.00  0.00    +0.000 C 
ENDBRANCH   7  22
BRANCH   8  24
ATOM     24  O   UNL     1      -2.973  12.748  19.269  0.00  0.00    +0.000 OA
ATOM     25  C   UNL     1      -4.337  12.486  19.560  0.00  0.00    +0.000 C 
ENDBRANCH   8  24
BRANCH   9  26
ATOM     26  O   UNL     1      -1.490  10.500  18.319  0.00  0.00    +0.000 OA
ATOM     27  C   UNL     1      -2.684   9.796  18.022  0.00  0.00    +0.000 C 
ENDBRANCH   9  26
TORSDOF 6
ENDMDL
MODEL 8
REMARK VINA RESULT:      -6.2      2.142      8.516
REMARK  Name = 
REMARK  11 active torsions:
REMARK  status: ('A' for Active; 'I' for Inactive)
REMARK    1  A    between atoms: C_1  and  O_2
REMARK    2  A    between atoms: O_2  and  C_3
REMARK    3  A    between atoms: C_6  and  C_7
REMARK    4  A    between atoms: C_13  and  O_14
REMARK    5  A    between atoms: O_14  and  C_15
REMARK    6  A    between atoms: C_16  and  O_17
REMARK    7  A    between atoms: O_17  and  C_18
REMARK    8  A    between atoms: C_19  and  O_20
REMARK    9  A    between atoms: O_20  and  C_21
REMARK   10  A    between atoms: C_25  and  O_26
REMARK   11  A    between atoms: O_26  and  C_27
REMARK                            x       y       z     vdW  Elec       q    Type
REMARK                         _______ _______ _______ _____ _____    ______ ____
ROOT
ATOM      1  C   UNL     1       1.517   9.480  18.870  0.00  0.00    +0.000 C 
ATOM      2  C   UNL     1       2.160   8.307  18.789  0.00  0.00    +0.000 C 
ATOM      3  C   UNL     1       2.203   7.246  19.854  0.00  0.00    +0.000 C 
ATOM      4  C   UNL     1       2.836   6.079  19.171  0.00  0.00    +0.000 A 
ATOM      5  C   UNL     1       3.350   6.415  17.925  0.00  0.00    +0.000 A 
ATOM      6  C   UNL     1       4.095   5.507  17.184  0.00  0.00    +0.000 A 
ATOM      7  C   UNL     1       4.276   4.211  17.702  0.00  0.00    +0.000 A 
ATOM      8  C   UNL     1       3.666   3.841  18.938  0.00  0.00    +0.000 A 
ATOM      9  C   UNL     1       2.958   4.801  19.687  0.00  0.00    +0.000 A 
ATOM     10  C   UNL     1       2.943   7.806  17.607  0.00  0.00    +0.000 C 
ATOM     11  O   UNL     1       3.198   8.403  16.581  0.00  0.00    +0.000 OA
ENDROOT
BRANCH   1  15
ATOM     12  C   UNL     1      -0.566  10.638  22.450  0.00  0.00    +0.000 A 
ATOM     13  C   UNL     1      -0.622   9.322  21.963  0.00  0.00    +0.000 A 
ATOM     14  C   UNL     1       0.087   8.943  20.817  0.00  0.00    +0.000 A 
ATOM     15  C   UNL     1       0.841   9.880  20.113  0.00  0.00    +0.000 A 
ATOM     16  C   UNL     1       0.843  11.206  20.556  0.00  0.00    +0.000 A 
ATOM     17  C   UNL     1       0.149  11.600  21.716  0.00  0.00    +0.000 A 
BRANCH  12  19
ATOM     18  C   UNL     1      -2.439  11.746  23.416  0.00  0.00    +0.000 C 
ATOM     19  O   UNL     1      -1.227  11.015  23.589  0.00  0.00    +0.000 OA
ENDBRANCH  12  19
BRANCH  17  20
ATOM     20  O   UNL     1       0.271  12.944  21.954  0.00  0.00    +0.000 OA
ATOM     21  C   UNL     1      -0.036  13.866  20.920  0.00  0.00    +0.000 C 
ENDBRANCH  17  20
ENDBRANCH   1  15
BRANCH   7  22
ATOM     22  O   UNL     1       5.039   3.253  17.089  0.00  0.00    +0.000 OA
ATOM     23  C   UNL     1       5.840   3.616  15.976  0.00  0.00    +0.000 C 
ENDBRANCH   7  22
BRANCH   8  24
ATOM     24  O   UNL     1       3.591   2.552  19.407  0.00  0.00    +0.000 OA
ATOM     25  C   UNL     1       4.581   2.106  20.320  0.00  0.00    +0.000 C 
ENDBRANCH   8  24
BRANCH   9  26
ATOM     26  O   UNL     1       2.307   4.636  20.879  0.00  0.00    +0.000 OA
ATOM     27  C   UNL     1       1.128   3.849  20.884  0.00  0.00    +0.000 C 
ENDBRANCH   9  26
TORSDOF 6
ENDMDL
MODEL 9
REMARK VINA RESULT:      -6.2      3.103      6.122
REMARK  Name = 
REMARK  11 active torsions:
REMARK  status: ('A' for Active; 'I' for Inactive)
REMARK    1  A    between atoms: C_1  and  O_2
REMARK    2  A    between atoms: O_2  and  C_3
REMARK    3  A    between atoms: C_6  and  C_7
REMARK    4  A    between atoms: C_13  and  O_14
REMARK    5  A    between atoms: O_14  and  C_15
REMARK    6  A    between atoms: C_16  and  O_17
REMARK    7  A    between atoms: O_17  and  C_18
REMARK    8  A    between atoms: C_19  and  O_20
REMARK    9  A    between atoms: O_20  and  C_21
REMARK   10  A    between atoms: C_25  and  O_26
REMARK   11  A    between atoms: O_26  and  C_27
REMARK                            x       y       z     vdW  Elec       q    Type
REMARK                         _______ _______ _______ _____ _____    ______ ____
ROOT
ATOM      1  C   UNL     1       0.733  10.148  20.647  0.00  0.00    +0.000 C 
ATOM      2  C   UNL     1      -0.400  10.700  20.192  0.00  0.00    +0.000 C 
ATOM      3  C   UNL     1      -1.164  10.271  18.970  0.00  0.00    +0.000 C 
ATOM      4  C   UNL     1      -2.440  11.042  19.058  0.00  0.00    +0.000 A 
ATOM      5  C   UNL     1      -2.403  12.008  20.055  0.00  0.00    +0.000 A 
ATOM      6  C   UNL     1      -3.439  12.920  20.214  0.00  0.00    +0.000 A 
ATOM      7  C   UNL     1      -4.560  12.810  19.370  0.00  0.00    +0.000 A 
ATOM      8  C   UNL     1      -4.636  11.757  18.411  0.00  0.00    +0.000 A 
ATOM      9  C   UNL     1      -3.547  10.880  18.242  0.00  0.00    +0.000 A 
ATOM     10  C   UNL     1      -1.149  11.839  20.828  0.00  0.00    +0.000 C 
ATOM     11  O   UNL     1      -0.813  12.498  21.791  0.00  0.00    +0.000 OA
ENDROOT
BRANCH   1  15
ATOM     12  C   UNL     1       2.590   7.007  18.372  0.00  0.00    +0.000 A 
ATOM     13  C   UNL     1       2.285   8.248  17.793  0.00  0.00    +0.000 A 
ATOM     14  C   UNL     1       1.714   9.280  18.548  0.00  0.00    +0.000 A 
ATOM     15  C   UNL     1       1.403   9.079  19.891  0.00  0.00    +0.000 A 
ATOM     16  C   UNL     1       1.641   7.822  20.452  0.00  0.00    +0.000 A 
ATOM     17  C   UNL     1       2.232   6.779  19.712  0.00  0.00    +0.000 A 
BRANCH  12  19
ATOM     18  C   UNL     1       4.601   6.047  17.532  0.00  0.00    +0.000 C 
ATOM     19  O   UNL     1       3.181   6.001  17.654  0.00  0.00    +0.000 OA
ENDBRANCH  12  19
BRANCH  17  20
ATOM     20  O   UNL     1       2.356   5.632  20.450  0.00  0.00    +0.000 OA
ATOM     21  C   UNL     1       1.315   4.668  20.421  0.00  0.00    +0.000 C 
ENDBRANCH  17  20
ENDBRANCH   1  15
BRANCH   7  22
ATOM     22  O   UNL     1      -5.612  13.686  19.396  0.00  0.00    +0.000 OA
ATOM     23  C   UNL     1      -5.925  14.354  20.609  0.00  0.00    +0.000 C 
ENDBRANCH   7  22
BRANCH   8  24
ATOM     24  O   UNL     1      -5.772  11.430  17.710  0.00  0.00    +0.000 OA
ATOM     25  C   UNL     1      -6.805  10.732  18.387  0.00  0.00    +0.000 C 
ENDBRANCH   8  24
BRANCH   9  26
ATOM     26  O   UNL     1      -3.437   9.819  17.387  0.00  0.00    +0.000 OA
ATOM     27  C   UNL     1      -3.096  10.090  16.038  0.00  0.00    +0.000 C 
ENDBRANCH   9  26
TORSDOF 6
ENDMDL
