MODEL 1
REMARK VINA RESULT:      -8.1      0.000      0.000
REMARK  Name = 
REMARK  8 active torsions:
REMARK  status: ('A' for Active; 'I' for Inactive)
REMARK    1  A    between atoms: C_2  and  C_20
REMARK    2  A    between atoms: N_3  and  C_4
REMARK    3  A    between atoms: C_4  and  C_5
REMARK    4  A    between atoms: C_5  and  C_6
REMARK    5  A    between atoms: C_6  and  N_7
REMARK    6  A    between atoms: C_10  and  C_11
REMARK    7  A    between atoms: C_11  and  C_12
REMARK    8  A    between atoms: C_23  and  C_24
REMARK                            x       y       z     vdW  Elec       q    Type
REMARK                         _______ _______ _______ _____ _____    ______ ____
ROOT
ATOM      1  O   UNL     1       1.256   9.127  19.175  0.00  0.00    +0.000 OA
ATOM      2  C   UNL     1       0.940   8.881  20.335  0.00  0.00    +0.000 C 
ATOM      3  N   UNL     1       1.279   7.725  20.994  0.00  0.00    +0.000 N 
ATOM      4  H   UNL     1       0.802   7.482  21.852  0.00  0.00    +0.000 HD
ENDROOT
BRANCH   2   5
ATOM      5  C   UNL     1       0.121   9.841  21.111  0.00  0.00    +0.000 A 
ATOM      6  C   UNL     1      -0.298  11.012  20.484  0.00  0.00    +0.000 A 
ATOM      7  C   UNL     1      -1.033  11.957  21.200  0.00  0.00    +0.000 A 
ATOM      8  C   UNL     1      -1.372  11.758  22.552  0.00  0.00    +0.000 A 
ATOM      9  C   UNL     1      -0.953  10.559  23.157  0.00  0.00    +0.000 A 
ATOM     10  C   UNL     1      -0.202   9.614  22.452  0.00  0.00    +0.000 A 
BRANCH   8  11
ATOM     11  C   UNL     1      -2.098  12.797  23.317  0.00  0.00    +0.000 A 
ATOM     12  C   UNL     1      -3.481  12.695  23.556  0.00  0.00    +0.000 A 
ATOM     13  C   UNL     1      -4.182  13.714  24.209  0.00  0.00    +0.000 A 
ATOM     14  C   UNL     1      -3.512  14.847  24.656  0.00  0.00    +0.000 A 
ATOM     15  C   UNL     1      -2.139  14.958  24.461  0.00  0.00    +0.000 A 
ATOM     16  C   UNL     1      -1.445  13.947  23.796  0.00  0.00    +0.000 A 
ENDBRANCH   8  11
ENDBRANCH   2   5
BRANCH   3  17
ATOM     17  C   UNL     1       2.066   6.700  20.354  0.00  0.00    +0.000 C 
BRANCH  17  18
ATOM     18  C   UNL     1       1.889   5.355  21.050  0.00  0.00    +0.000 C 
BRANCH  18  19
ATOM     19  C   UNL     1       0.819   4.509  20.357  0.00  0.00    +0.000 C 
BRANCH  19  20
ATOM     20  N   UNL     1       1.384   3.540  19.400  0.00  0.00    +0.000 NA
ATOM     21  C   UNL     1       1.808   4.188  18.152  0.00  0.00    +0.000 C 
ATOM     22  C   UNL     1       2.361   3.168  17.164  0.00  0.00    +0.000 C 
ATOM     23  C   UNL     1       3.555   2.409  17.751  0.00  0.00    +0.000 C 
ATOM     24  C   UNL     1       3.089   1.753  19.062  0.00  0.00    +0.000 C 
ATOM     25  C   UNL     1       2.459   2.762  20.031  0.00  0.00    +0.000 C 
BRANCH  23  26
ATOM     26  C   UNL     1       4.789   3.304  17.999  0.00  0.00    +0.000 C 
BRANCH  26  27
ATOM     27  C   UNL     1       5.176   4.211  16.850  0.00  0.00    +0.000 A 
ATOM     28  C   UNL     1       5.799   3.682  15.710  0.00  0.00    +0.000 A 
ATOM     29  C   UNL     1       6.112   4.502  14.625  0.00  0.00    +0.000 A 
ATOM     30  C   UNL     1       5.805   5.859  14.668  0.00  0.00    +0.000 A 
ATOM     31  C   UNL     1       5.194   6.399  15.799  0.00  0.00    +0.000 A 
ATOM     32  C   UNL     1       4.882   5.579  16.885  0.00  0.00    +0.000 A 
ENDBRANCH  26  27
ENDBRANCH  23  26
ENDBRANCH  19  20
ENDBRANCH  18  19
ENDBRANCH  17  18
ENDBRANCH   3  17
TORSDOF 8
ENDMDL
MODEL 2
REMARK VINA RESULT:      -8.1      1.099      1.687
REMARK  Name = 
REMARK  8 active torsions:
REMARK  status: ('A' for Active; 'I' for Inactive)
REMARK    1  A    between atoms: C_2  and  C_20
REMARK    2  A    between atoms: N_3  and  C_4
REMARK    3  A    between atoms: C_4  and  C_5
REMARK    4  A    between atoms: C_5  and  C_6
REMARK    5  A    between atoms: C_6  and  N_7
REMARK    6  A    between atoms: C_10  and  C_11
REMARK    7  A    between atoms: C_11  and  C_12
REMARK    8  A    between atoms: C_23  and  C_24
REMARK                            x       y       z     vdW  Elec       q    Type
REMARK                         _______ _______ _______ _____ _____    ______ ____
ROOT
ATOM      1  O   UNL     1       2.092   8.324  19.598  0.00  0.00    +0.000 OA
ATOM      2  C   UNL     1       1.304   8.107  20.512  0.00  0.00    +0.000 C 
ATOM      3  N   UNL     1       1.004   6.853  20.986  0.00  0.00    +0.000 N 
ATOM      4  H   UNL     1       0.189   6.722  21.570  0.00  0.00    +0.000 HD
ENDROOT
BRANCH   2   5
ATOM      5  C   UNL     1       0.580   9.223  21.164  0.00  0.00    +0.000 A 
ATOM      6  C   UNL     1       0.169   9.064  22.485  0.00  0.00    +0.000 A 
ATOM      7  C   UNL     1      -0.553  10.079  23.113  0.00  0.00    +0.000 A 
ATOM      8  C   UNL     1      -0.879  11.275  22.446  0.00  0.00    +0.000 A 
ATOM      9  C   UNL     1      -0.437  11.419  21.118  0.00  0.00    +0.000 A 
ATOM     10  C   UNL     1       0.273  10.400  20.475  0.00  0.00    +0.000 A 
BRANCH   8  11
ATOM     11  C   UNL     1      -1.699  12.317  23.104  0.00  0.00    +0.000 A 
ATOM     12  C   UNL     1      -1.185  13.602  23.353  0.00  0.00    +0.000 A 
ATOM     13  C   UNL     1      -1.931  14.561  24.046  0.00  0.00    +0.000 A 
ATOM     14  C   UNL     1      -3.216  14.263  24.485  0.00  0.00    +0.000 A 
ATOM     15  C   UNL     1      -3.761  13.010  24.223  0.00  0.00    +0.000 A 
ATOM     16  C   UNL     1      -3.008  12.049  23.545  0.00  0.00    +0.000 A 
ENDBRANCH   8  11
ENDBRANCH   2   5
BRANCH   3  17
ATOM     17  C   UNL     1       1.628   5.675  20.436  0.00  0.00    +0.000 C 
BRANCH  17  18
ATOM     18  C   UNL     1       2.131   4.751  21.540  0.00  0.00    +0.000 C 
BRANCH  18  19
ATOM     19  C   UNL     1       1.607   3.327  21.352  0.00  0.00    +0.000 C 
BRANCH  19  20
ATOM     20  N   UNL     1       2.275   2.610  20.250  0.00  0.00    +0.000 NA
ATOM     21  C   UNL     1       1.473   2.629  19.019  0.00  0.00    +0.000 C 
ATOM     22  C   UNL     1       2.164   1.858  17.901  0.00  0.00    +0.000 C 
ATOM     23  C   UNL     1       3.548   2.439  17.592  0.00  0.00    +0.000 C 
ATOM     24  C   UNL     1       4.361   2.420  18.898  0.00  0.00    +0.000 C 
ATOM     25  C   UNL     1       3.636   3.128  20.051  0.00  0.00    +0.000 C 
BRANCH  23  26
ATOM     26  C   UNL     1       3.497   3.865  17.003  0.00  0.00    +0.000 C 
BRANCH  26  27
ATOM     27  C   UNL     1       4.830   4.578  16.904  0.00  0.00    +0.000 A 
ATOM     28  C   UNL     1       5.834   4.082  16.059  0.00  0.00    +0.000 A 
ATOM     29  C   UNL     1       7.046   4.761  15.922  0.00  0.00    +0.000 A 
ATOM     30  C   UNL     1       7.266   5.941  16.628  0.00  0.00    +0.000 A 
ATOM     31  C   UNL     1       6.279   6.437  17.478  0.00  0.00    +0.000 A 
ATOM     32  C   UNL     1       5.067   5.759  17.616  0.00  0.00    +0.000 A 
ENDBRANCH  26  27
ENDBRANCH  23  26
ENDBRANCH  19  20
ENDBRANCH  18  19
ENDBRANCH  17  18
ENDBRANCH   3  17
TORSDOF 8
ENDMDL
MODEL 3
REMARK VINA RESULT:      -8.1      1.137      1.246
REMARK  Name = 
REMARK  8 active torsions:
REMARK  status: ('A' for Active; 'I' for Inactive)
REMARK    1  A    between atoms: C_2  and  C_20
REMARK    2  A    between atoms: N_3  and  C_4
REMARK    3  A    between atoms: C_4  and  C_5
REMARK    4  A    between atoms: C_5  and  C_6
REMARK    5  A    between atoms: C_6  and  N_7
REMARK    6  A    between atoms: C_10  and  C_11
REMARK    7  A    between atoms: C_11  and  C_12
REMARK    8  A    between atoms: C_23  and  C_24
REMARK                            x       y       z     vdW  Elec       q    Type
REMARK                         _______ _______ _______ _____ _____    ______ ____
ROOT
ATOM      1  O   UNL     1       2.088   8.183  19.588  0.00  0.00    +0.000 OA
ATOM      2  C   UNL     1       1.396   7.934  20.570  0.00  0.00    +0.000 C 
ATOM      3  N   UNL     1       1.287   6.688  21.136  0.00  0.00    +0.000 N 
ATOM      4  H   UNL     1       0.536   6.499  21.786  0.00  0.00    +0.000 HD
ENDROOT
BRANCH   2   5
ATOM      5  C   UNL     1       0.587   8.997  21.209  0.00  0.00    +0.000 A 
ATOM      6  C   UNL     1       0.351  10.169  20.494  0.00  0.00    +0.000 A 
ATOM      7  C   UNL     1      -0.369  11.208  21.084  0.00  0.00    +0.000 A 
ATOM      8  C   UNL     1      -0.876  11.104  22.393  0.00  0.00    +0.000 A 
ATOM      9  C   UNL     1      -0.640   9.904  23.088  0.00  0.00    +0.000 A 
ATOM     10  C   UNL     1       0.096   8.864  22.510  0.00  0.00    +0.000 A 
BRANCH   8  11
ATOM     11  C   UNL     1      -1.584  12.238  23.029  0.00  0.00    +0.000 A 
ATOM     12  C   UNL     1      -2.918  12.116  23.461  0.00  0.00    +0.000 A 
ATOM     13  C   UNL     1      -3.613  13.209  23.989  0.00  0.00    +0.000 A 
ATOM     14  C   UNL     1      -2.984  14.441  24.115  0.00  0.00    +0.000 A 
ATOM     15  C   UNL     1      -1.656  14.582  23.726  0.00  0.00    +0.000 A 
ATOM     16  C   UNL     1      -0.969  13.493  23.186  0.00  0.00    +0.000 A 
ENDBRANCH   8  11
ENDBRANCH   2   5
BRANCH   3  17
ATOM     17  C   UNL     1       2.012   5.558  20.608  0.00  0.00    +0.000 C 
BRANCH  17  18
ATOM     18  C   UNL     1       2.256   4.508  21.687  0.00  0.00    +0.000 C 
BRANCH  18  19
ATOM     19  C   UNL     1       1.587   3.180  21.328  0.00  0.00    +0.000 C 
BRANCH  19  20
ATOM     20  N   UNL     1       2.238   2.496  20.196  0.00  0.00    +0.000 NA
ATOM     21  C   UNL     1       1.425   2.567  18.974  0.00  0.00    +0.000 C 
ATOM     22  C   UNL     1       2.099   1.828  17.823  0.00  0.00    +0.000 C 
ATOM     23  C   UNL     1       3.486   2.407  17.522  0.00  0.00    +0.000 C 
ATOM     24  C   UNL     1       4.310   2.335  18.819  0.00  0.00    +0.000 C 
ATOM     25  C   UNL     1       3.602   3.008  20.002  0.00  0.00    +0.000 C 
BRANCH  23  26
ATOM     26  C   UNL     1       3.443   3.853  16.984  0.00  0.00    +0.000 C 
BRANCH  26  27
ATOM     27  C   UNL     1       4.780   4.563  16.917  0.00  0.00    +0.000 A 
ATOM     28  C   UNL     1       5.796   4.077  16.081  0.00  0.00    +0.000 A 
ATOM     29  C   UNL     1       7.012   4.754  15.973  0.00  0.00    +0.000 A 
ATOM     30  C   UNL     1       7.224   5.923  16.701  0.00  0.00    +0.000 A 
ATOM     31  C   UNL     1       6.225   6.409  17.542  0.00  0.00    +0.000 A 
ATOM     32  C   UNL     1       5.009   5.732  17.651  0.00  0.00    +0.000 A 
ENDBRANCH  26  27
ENDBRANCH  23  26
ENDBRANCH  19  20
ENDBRANCH  18  19
ENDBRANCH  17  18
ENDBRANCH   3  17
TORSDOF 8
ENDMDL
MODEL 4
REMARK VINA RESULT:      -8.1      2.159     11.942
REMARK  Name = 
REMARK  8 active torsions:
REMARK  status: ('A' for Active; 'I' for Inactive)
REMARK    1  A    between atoms: C_2  and  C_20
REMARK    2  A    between atoms: N_3  and  C_4
REMARK    3  A    between atoms: C_4  and  C_5
REMARK    4  A    between atoms: C_5  and  C_6
REMARK    5  A    between atoms: C_6  and  N_7
REMARK    6  A    between atoms: C_10  and  C_11
REMARK    7  A    between atoms: C_11  and  C_12
REMARK    8  A    between atoms: C_23  and  C_24
REMARK                            x       y       z     vdW  Elec       q    Type
REMARK                         _______ _______ _______ _____ _____    ______ ____
ROOT
ATOM      1  O   UNL     1       3.076   5.548  20.234  0.00  0.00    +0.000 OA
ATOM      2  C   UNL     1       3.087   6.221  19.209  0.00  0.00    +0.000 C 
ATOM      3  N   UNL     1       2.395   7.397  19.056  0.00  0.00    +0.000 N 
ATOM      4  H   UNL     1       2.258   7.779  18.129  0.00  0.00    +0.000 HD
ENDROOT
BRANCH   2   5
ATOM      5  C   UNL     1       3.853   5.774  18.023  0.00  0.00    +0.000 A 
ATOM      6  C   UNL     1       4.480   6.739  17.237  0.00  0.00    +0.000 A 
ATOM      7  C   UNL     1       5.172   6.355  16.089  0.00  0.00    +0.000 A 
ATOM      8  C   UNL     1       5.262   5.005  15.698  0.00  0.00    +0.000 A 
ATOM      9  C   UNL     1       4.636   4.048  16.517  0.00  0.00    +0.000 A 
ATOM     10  C   UNL     1       3.925   4.426  17.661  0.00  0.00    +0.000 A 
BRANCH   8  11
ATOM     11  C   UNL     1       5.946   4.618  14.443  0.00  0.00    +0.000 A 
ATOM     12  C   UNL     1       7.184   5.181  14.083  0.00  0.00    +0.000 A 
ATOM     13  C   UNL     1       7.793   4.876  12.861  0.00  0.00    +0.000 A 
ATOM     14  C   UNL     1       7.187   3.986  11.983  0.00  0.00    +0.000 A 
ATOM     15  C   UNL     1       5.978   3.390  12.328  0.00  0.00    +0.000 A 
ATOM     16  C   UNL     1       5.366   3.708  13.542  0.00  0.00    +0.000 A 
ENDBRANCH   8  11
ENDBRANCH   2   5
BRANCH   3  17
ATOM     17  C   UNL     1       1.599   7.944  20.126  0.00  0.00    +0.000 C 
BRANCH  17  18
ATOM     18  C   UNL     1       1.504   9.463  20.022  0.00  0.00    +0.000 C 
BRANCH  18  19
ATOM     19  C   UNL     1       1.034   9.894  18.632  0.00  0.00    +0.000 C 
BRANCH  19  20
ATOM     20  N   UNL     1       0.020  10.964  18.675  0.00  0.00    +0.000 NA
ATOM     21  C   UNL     1      -1.297  10.453  19.077  0.00  0.00    +0.000 C 
ATOM     22  C   UNL     1      -2.339  11.566  19.085  0.00  0.00    +0.000 C 
ATOM     23  C   UNL     1      -1.941  12.697  20.040  0.00  0.00    +0.000 C 
ATOM     24  C   UNL     1      -0.555  13.204  19.606  0.00  0.00    +0.000 C 
ATOM     25  C   UNL     1       0.481  12.075  19.519  0.00  0.00    +0.000 C 
BRANCH  23  26
ATOM     26  C   UNL     1      -1.926  12.271  21.523  0.00  0.00    +0.000 C 
BRANCH  26  27
ATOM     27  C   UNL     1      -3.218  12.502  22.280  0.00  0.00    +0.000 A 
ATOM     28  C   UNL     1      -3.253  12.363  23.676  0.00  0.00    +0.000 A 
ATOM     29  C   UNL     1      -4.426  12.625  24.387  0.00  0.00    +0.000 A 
ATOM     30  C   UNL     1      -5.574  13.029  23.709  0.00  0.00    +0.000 A 
ATOM     31  C   UNL     1      -5.553  13.161  22.322  0.00  0.00    +0.000 A 
ATOM     32  C   UNL     1      -4.381  12.899  21.610  0.00  0.00    +0.000 A 
ENDBRANCH  26  27
ENDBRANCH  23  26
ENDBRANCH  19  20
ENDBRANCH  18  19
ENDBRANCH  17  18
ENDBRANCH   3  17
TORSDOF 8
ENDMDL
MODEL 5
REMARK VINA RESULT:      -8.0      3.286      4.586
REMARK  Name = 
REMARK  8 active torsions:
REMARK  status: ('A' for Active; 'I' for Inactive)
REMARK    1  A    between atoms: C_2  and  C_20
REMARK    2  A    between atoms: N_3  and  C_4
REMARK    3  A    between atoms: C_4  and  C_5
REMARK    4  A    between atoms: C_5  and  C_6
REMARK    5  A    between atoms: C_6  and  N_7
REMARK    6  A    between atoms: C_10  and  C_11
REMARK    7  A    between atoms: C_11  and  C_12
REMARK    8  A    between atoms: C_23  and  C_24
REMARK                            x       y       z     vdW  Elec       q    Type
REMARK                         _______ _______ _______ _____ _____    ______ ____
ROOT
ATOM      1  O   UNL     1       2.245   5.256  21.639  0.00  0.00    +0.000 OA
ATOM      2  C   UNL     1       1.870   5.550  20.509  0.00  0.00    +0.000 C 
ATOM      3  N   UNL     1       1.641   4.632  19.513  0.00  0.00    +0.000 N 
ATOM      4  H   UNL     1       1.561   4.945  18.555  0.00  0.00    +0.000 HD
ENDROOT
BRANCH   2   5
ATOM      5  C   UNL     1       1.662   6.967  20.129  0.00  0.00    +0.000 A 
ATOM      6  C   UNL     1       1.100   7.828  21.069  0.00  0.00    +0.000 A 
ATOM      7  C   UNL     1       0.849   9.157  20.729  0.00  0.00    +0.000 A 
ATOM      8  C   UNL     1       1.156   9.662  19.451  0.00  0.00    +0.000 A 
ATOM      9  C   UNL     1       1.739   8.778  18.526  0.00  0.00    +0.000 A 
ATOM     10  C   UNL     1       1.978   7.439  18.853  0.00  0.00    +0.000 A 
BRANCH   8  11
ATOM     11  C   UNL     1       0.827  11.058  19.084  0.00  0.00    +0.000 A 
ATOM     12  C   UNL     1      -0.491  11.440  18.773  0.00  0.00    +0.000 A 
ATOM     13  C   UNL     1      -0.789  12.739  18.348  0.00  0.00    +0.000 A 
ATOM     14  C   UNL     1       0.220  13.690  18.247  0.00  0.00    +0.000 A 
ATOM     15  C   UNL     1       1.527  13.347  18.579  0.00  0.00    +0.000 A 
ATOM     16  C   UNL     1       1.824  12.046  18.988  0.00  0.00    +0.000 A 
ENDBRANCH   8  11
ENDBRANCH   2   5
BRANCH   3  17
ATOM     17  C   UNL     1       1.815   3.219  19.741  0.00  0.00    +0.000 C 
BRANCH  17  18
ATOM     18  C   UNL     1       3.003   2.676  18.954  0.00  0.00    +0.000 C 
BRANCH  18  19
ATOM     19  C   UNL     1       4.314   3.312  19.421  0.00  0.00    +0.000 C 
BRANCH  19  20
ATOM     20  N   UNL     1       4.704   4.482  18.613  0.00  0.00    +0.000 NA
ATOM     21  C   UNL     1       6.107   4.857  18.837  0.00  0.00    +0.000 C 
ATOM     22  C   UNL     1       6.483   6.086  18.018  0.00  0.00    +0.000 C 
ATOM     23  C   UNL     1       6.274   5.846  16.519  0.00  0.00    +0.000 C 
ATOM     24  C   UNL     1       4.804   5.442  16.315  0.00  0.00    +0.000 C 
ATOM     25  C   UNL     1       4.394   4.253  17.195  0.00  0.00    +0.000 C 
BRANCH  23  26
ATOM     26  C   UNL     1       7.219   4.777  15.931  0.00  0.00    +0.000 C 
BRANCH  26  27
ATOM     27  C   UNL     1       7.136   4.588  14.430  0.00  0.00    +0.000 A 
ATOM     28  C   UNL     1       6.306   3.594  13.889  0.00  0.00    +0.000 A 
ATOM     29  C   UNL     1       6.183   3.447  12.506  0.00  0.00    +0.000 A 
ATOM     30  C   UNL     1       6.887   4.291  11.651  0.00  0.00    +0.000 A 
ATOM     31  C   UNL     1       7.722   5.275  12.178  0.00  0.00    +0.000 A 
ATOM     32  C   UNL     1       7.846   5.423  13.561  0.00  0.00    +0.000 A 
ENDBRANCH  26  27
ENDBRANCH  23  26
ENDBRANCH  19  20
ENDBRANCH  18  19
ENDBRANCH  17  18
ENDBRANCH   3  17
TORSDOF 8
ENDMDL
MODEL 6
REMARK VINA RESULT:      -8.0      3.098      4.045
REMARK  Name = 
REMARK  8 active torsions:
REMARK  status: ('A' for Active; 'I' for Inactive)
REMARK    1  A    between atoms: C_2  and  C_20
REMARK    2  A    between atoms: N_3  and  C_4
REMARK    3  A    between atoms: C_4  and  C_5
REMARK    4  A    between atoms: C_5  and  C_6
REMARK    5  A    between atoms: C_6  and  N_7
REMARK    6  A    between atoms: C_10  and  C_11
REMARK    7  A    between atoms: C_11  and  C_12
REMARK    8  A    between atoms: C_23  and  C_24
REMARK                            x       y       z     vdW  Elec       q    Type
REMARK                         _______ _______ _______ _____ _____    ______ ____
ROOT
ATOM      1  O   UNL     1       1.522  10.322  18.381  0.00  0.00    +0.000 OA
ATOM      2  C   UNL     1       0.574   9.886  19.026  0.00  0.00    +0.000 C 
ATOM      3  N   UNL     1       0.675   8.880  19.955  0.00  0.00    +0.000 N 
ATOM      4  H   UNL     1      -0.162   8.413  20.278  0.00  0.00    +0.000 HD
ENDROOT
BRANCH   2   5
ATOM      5  C   UNL     1      -0.791  10.421  18.813  0.00  0.00    +0.000 A 
ATOM      6  C   UNL     1      -1.208  11.500  19.589  0.00  0.00    +0.000 A 
ATOM      7  C   UNL     1      -2.502  11.999  19.444  0.00  0.00    +0.000 A 
ATOM      8  C   UNL     1      -3.409  11.442  18.523  0.00  0.00    +0.000 A 
ATOM      9  C   UNL     1      -2.959  10.365  17.738  0.00  0.00    +0.000 A 
ATOM     10  C   UNL     1      -1.668   9.847  17.888  0.00  0.00    +0.000 A 
BRANCH   8  11
ATOM     11  C   UNL     1      -4.799  11.941  18.424  0.00  0.00    +0.000 A 
ATOM     12  C   UNL     1      -5.620  12.047  19.562  0.00  0.00    +0.000 A 
ATOM     13  C   UNL     1      -6.958  12.442  19.458  0.00  0.00    +0.000 A 
ATOM     14  C   UNL     1      -7.497  12.761  18.218  0.00  0.00    +0.000 A 
ATOM     15  C   UNL     1      -6.699  12.697  17.080  0.00  0.00    +0.000 A 
ATOM     16  C   UNL     1      -5.368  12.287  17.185  0.00  0.00    +0.000 A 
ENDBRANCH   8  11
ENDBRANCH   2   5
BRANCH   3  17
ATOM     17  C   UNL     1       1.942   8.261  20.255  0.00  0.00    +0.000 C 
BRANCH  17  18
ATOM     18  C   UNL     1       2.306   7.214  19.207  0.00  0.00    +0.000 C 
BRANCH  18  19
ATOM     19  C   UNL     1       2.243   5.801  19.790  0.00  0.00    +0.000 C 
BRANCH  19  20
ATOM     20  N   UNL     1       3.251   4.895  19.209  0.00  0.00    +0.000 NA
ATOM     21  C   UNL     1       2.800   4.322  17.933  0.00  0.00    +0.000 C 
ATOM     22  C   UNL     1       3.841   3.365  17.363  0.00  0.00    +0.000 C 
ATOM     23  C   UNL     1       5.184   4.068  17.137  0.00  0.00    +0.000 C 
ATOM     24  C   UNL     1       5.625   4.670  18.482  0.00  0.00    +0.000 C 
ATOM     25  C   UNL     1       4.550   5.573  19.101  0.00  0.00    +0.000 C 
BRANCH  23  26
ATOM     26  C   UNL     1       5.129   5.157  16.045  0.00  0.00    +0.000 C 
BRANCH  26  27
ATOM     27  C   UNL     1       5.794   4.797  14.732  0.00  0.00    +0.000 A 
ATOM     28  C   UNL     1       7.071   5.292  14.427  0.00  0.00    +0.000 A 
ATOM     29  C   UNL     1       7.712   4.923  13.243  0.00  0.00    +0.000 A 
ATOM     30  C   UNL     1       7.083   4.055  12.353  0.00  0.00    +0.000 A 
ATOM     31  C   UNL     1       5.811   3.565  12.641  0.00  0.00    +0.000 A 
ATOM     32  C   UNL     1       5.168   3.934  13.824  0.00  0.00    +0.000 A 
ENDBRANCH  26  27
ENDBRANCH  23  26
ENDBRANCH  19  20
ENDBRANCH  18  19
ENDBRANCH  17  18
ENDBRANCH   3  17
TORSDOF 8
ENDMDL
MODEL 7
REMARK VINA RESULT:      -8.0      6.799     11.162
REMARK  Name = 
REMARK  8 active torsions:
REMARK  status: ('A' for Active; 'I' for Inactive)
REMARK    1  A    between atoms: C_2  and  C_20
REMARK    2  A    between atoms: N_3  and  C_4
REMARK    3  A    between atoms: C_4  and  C_5
REMARK    4  A    between atoms: C_5  and  C_6
REMARK    5  A    between atoms: C_6  and  N_7
REMARK    6  A    between atoms: C_10  and  C_11
REMARK    7  A    between atoms: C_11  and  C_12
REMARK    8  A    between atoms: C_23  and  C_24
REMARK                            x       y       z     vdW  Elec       q    Type
REMARK                         _______ _______ _______ _____ _____    ______ ____
ROOT
ATOM      1  O   UNL     1       7.890   6.921  16.447  0.00  0.00    +0.000 OA
ATOM      2  C   UNL     1       7.166   7.396  17.316  0.00  0.00    +0.000 C 
ATOM      3  N   UNL     1       7.383   8.611  17.917  0.00  0.00    +0.000 N 
ATOM      4  H   UNL     1       6.895   8.839  18.772  0.00  0.00    +0.000 HD
ENDROOT
BRANCH   2   5
ATOM      5  C   UNL     1       5.987   6.644  17.806  0.00  0.00    +0.000 A 
ATOM      6  C   UNL     1       6.178   5.686  18.798  0.00  0.00    +0.000 A 
ATOM      7  C   UNL     1       5.097   4.929  19.249  0.00  0.00    +0.000 A 
ATOM      8  C   UNL     1       3.801   5.112  18.730  0.00  0.00    +0.000 A 
ATOM      9  C   UNL     1       3.630   6.098  17.741  0.00  0.00    +0.000 A 
ATOM     10  C   UNL     1       4.712   6.849  17.271  0.00  0.00    +0.000 A 
BRANCH   8  11
ATOM     11  C   UNL     1       2.675   4.259  19.173  0.00  0.00    +0.000 A 
ATOM     12  C   UNL     1       2.325   4.160  20.531  0.00  0.00    +0.000 A 
ATOM     13  C   UNL     1       1.313   3.294  20.960  0.00  0.00    +0.000 A 
ATOM     14  C   UNL     1       0.615   2.525  20.036  0.00  0.00    +0.000 A 
ATOM     15  C   UNL     1       0.919   2.628  18.682  0.00  0.00    +0.000 A 
ATOM     16  C   UNL     1       1.939   3.481  18.259  0.00  0.00    +0.000 A 
ENDBRANCH   8  11
ENDBRANCH   2   5
BRANCH   3  17
ATOM     17  C   UNL     1       8.500   9.443  17.544  0.00  0.00    +0.000 C 
BRANCH  17  18
ATOM     18  C   UNL     1       9.049  10.200  18.748  0.00  0.00    +0.000 C 
BRANCH  18  19
ATOM     19  C   UNL     1      10.234  11.084  18.354  0.00  0.00    +0.000 C 
BRANCH  19  20
ATOM     20  N   UNL     1      10.173  12.428  18.958  0.00  0.00    +0.000 NA
ATOM     21  C   UNL     1       8.894  13.096  18.679  0.00  0.00    +0.000 C 
ATOM     22  C   UNL     1       8.862  14.494  19.284  0.00  0.00    +0.000 C 
ATOM     23  C   UNL     1       9.071  14.453  20.802  0.00  0.00    +0.000 C 
ATOM     24  C   UNL     1      10.407  13.738  21.066  0.00  0.00    +0.000 C 
ATOM     25  C   UNL     1      10.479  12.360  20.393  0.00  0.00    +0.000 C 
BRANCH  23  26
ATOM     26  C   UNL     1       7.921  13.757  21.561  0.00  0.00    +0.000 C 
BRANCH  26  27
ATOM     27  C   UNL     1       8.119  13.617  23.056  0.00  0.00    +0.000 A 
ATOM     28  C   UNL     1       8.197  12.345  23.642  0.00  0.00    +0.000 A 
ATOM     29  C   UNL     1       8.431  12.206  25.011  0.00  0.00    +0.000 A 
ATOM     30  C   UNL     1       8.589  13.338  25.808  0.00  0.00    +0.000 A 
ATOM     31  C   UNL     1       8.503  14.606  25.238  0.00  0.00    +0.000 A 
ATOM     32  C   UNL     1       8.268  14.746  23.869  0.00  0.00    +0.000 A 
ENDBRANCH  26  27
ENDBRANCH  23  26
ENDBRANCH  19  20
ENDBRANCH  18  19
ENDBRANCH  17  18
ENDBRANCH   3  17
TORSDOF 8
ENDMDL
MODEL 8
REMARK VINA RESULT:      -8.0      0.806      1.511
REMARK  Name = 
REMARK  8 active torsions:
REMARK  status: ('A' for Active; 'I' for Inactive)
REMARK    1  A    between atoms: C_2  and  C_20
REMARK    2  A    between atoms: N_3  and  C_4
REMARK    3  A    between atoms: C_4  and  C_5
REMARK    4  A    between atoms: C_5  and  C_6
REMARK    5  A    between atoms: C_6  and  N_7
REMARK    6  A    between atoms: C_10  and  C_11
REMARK    7  A    between atoms: C_11  and  C_12
REMARK    8  A    between atoms: C_23  and  C_24
REMARK                            x       y       z     vdW  Elec       q    Type
REMARK                         _______ _______ _______ _____ _____    ______ ____
ROOT
ATOM      1  O   UNL     1       1.782   8.358  19.598  0.00  0.00    +0.000 OA
ATOM      2  C   UNL     1       1.228   8.208  20.682  0.00  0.00    +0.000 C 
ATOM      3  N   UNL     1       1.189   7.019  21.367  0.00  0.00    +0.000 N 
ATOM      4  H   UNL     1       0.532   6.902  22.127  0.00  0.00    +0.000 HD
ENDROOT
BRANCH   2   5
ATOM      5  C   UNL     1       0.518   9.338  21.326  0.00  0.00    +0.000 A 
ATOM      6  C   UNL     1      -0.151   9.102  22.525  0.00  0.00    +0.000 A 
ATOM      7  C   UNL     1      -0.866  10.133  23.134  0.00  0.00    +0.000 A 
ATOM      8  C   UNL     1      -0.929  11.421  22.569  0.00  0.00    +0.000 A 
ATOM      9  C   UNL     1      -0.231  11.639  21.367  0.00  0.00    +0.000 A 
ATOM     10  C   UNL     1       0.475  10.607  20.741  0.00  0.00    +0.000 A 
BRANCH   8  11
ATOM     11  C   UNL     1      -1.743  12.489  23.193  0.00  0.00    +0.000 A 
ATOM     12  C   UNL     1      -1.196  13.752  23.479  0.00  0.00    +0.000 A 
ATOM     13  C   UNL     1      -1.940  14.734  24.141  0.00  0.00    +0.000 A 
ATOM     14  C   UNL     1      -3.256  14.481  24.512  0.00  0.00    +0.000 A 
ATOM     15  C   UNL     1      -3.833  13.251  24.212  0.00  0.00    +0.000 A 
ATOM     16  C   UNL     1      -3.082  12.268  23.565  0.00  0.00    +0.000 A 
ENDBRANCH   8  11
ENDBRANCH   2   5
BRANCH   3  17
ATOM     17  C   UNL     1       1.830   5.835  20.851  0.00  0.00    +0.000 C 
BRANCH  17  18
ATOM     18  C   UNL     1       0.806   4.854  20.289  0.00  0.00    +0.000 C 
BRANCH  18  19
ATOM     19  C   UNL     1       1.041   3.441  20.824  0.00  0.00    +0.000 C 
BRANCH  19  20
ATOM     20  N   UNL     1       2.097   2.718  20.092  0.00  0.00    +0.000 NA
ATOM     21  C   UNL     1       2.261   3.228  18.724  0.00  0.00    +0.000 C 
ATOM     22  C   UNL     1       3.334   2.449  17.973  0.00  0.00    +0.000 C 
ATOM     23  C   UNL     1       4.687   2.527  18.689  0.00  0.00    +0.000 C 
ATOM     24  C   UNL     1       4.484   2.002  20.121  0.00  0.00    +0.000 C 
ATOM     25  C   UNL     1       3.351   2.728  20.858  0.00  0.00    +0.000 C 
BRANCH  23  26
ATOM     26  C   UNL     1       5.289   3.948  18.711  0.00  0.00    +0.000 C 
BRANCH  26  27
ATOM     27  C   UNL     1       5.467   4.600  17.355  0.00  0.00    +0.000 A 
ATOM     28  C   UNL     1       6.188   3.945  16.346  0.00  0.00    +0.000 A 
ATOM     29  C   UNL     1       6.314   4.514  15.078  0.00  0.00    +0.000 A 
ATOM     30  C   UNL     1       5.719   5.745  14.806  0.00  0.00    +0.000 A 
ATOM     31  C   UNL     1       5.009   6.409  15.804  0.00  0.00    +0.000 A 
ATOM     32  C   UNL     1       4.884   5.841  17.073  0.00  0.00    +0.000 A 
ENDBRANCH  26  27
ENDBRANCH  23  26
ENDBRANCH  19  20
ENDBRANCH  18  19
ENDBRANCH  17  18
ENDBRANCH   3  17
TORSDOF 8
ENDMDL
MODEL 9
REMARK VINA RESULT:      -7.9      2.764     11.126
REMARK  Name = 
REMARK  8 active torsions:
REMARK  status: ('A' for Active; 'I' for Inactive)
REMARK    1  A    between atoms: C_2  and  C_20
REMARK    2  A    between atoms: N_3  and  C_4
REMARK    3  A    between atoms: C_4  and  C_5
REMARK    4  A    between atoms: C_5  and  C_6
REMARK    5  A    between atoms: C_6  and  N_7
REMARK    6  A    between atoms: C_10  and  C_11
REMARK    7  A    between atoms: C_11  and  C_12
REMARK    8  A    between atoms: C_23  and  C_24
REMARK                            x       y       z     vdW  Elec       q    Type
REMARK                         _______ _______ _______ _____ _____    ______ ____
ROOT
ATOM      1  O   UNL     1      -0.661  10.810  18.366  0.00  0.00    +0.000 OA
ATOM      2  C   UNL     1       0.520  10.779  18.696  0.00  0.00    +0.000 C 
ATOM      3  N   UNL     1       1.315  11.893  18.810  0.00  0.00    +0.000 N 
ATOM      4  H   UNL     1       2.319  11.787  18.857  0.00  0.00    +0.000 HD
ENDROOT
BRANCH   2   5
ATOM      5  C   UNL     1       1.191   9.488  18.972  0.00  0.00    +0.000 A 
ATOM      6  C   UNL     1       1.867   8.857  17.930  0.00  0.00    +0.000 A 
ATOM      7  C   UNL     1       2.470   7.618  18.145  0.00  0.00    +0.000 A 
ATOM      8  C   UNL     1       2.421   6.981  19.400  0.00  0.00    +0.000 A 
ATOM      9  C   UNL     1       1.748   7.646  20.440  0.00  0.00    +0.000 A 
ATOM     10  C   UNL     1       1.125   8.881  20.229  0.00  0.00    +0.000 A 
BRANCH   8  11
ATOM     11  C   UNL     1       3.012   5.638  19.597  0.00  0.00    +0.000 A 
ATOM     12  C   UNL     1       4.291   5.323  19.103  0.00  0.00    +0.000 A 
ATOM     13  C   UNL     1       4.817   4.032  19.219  0.00  0.00    +0.000 A 
ATOM     14  C   UNL     1       4.084   3.034  19.850  0.00  0.00    +0.000 A 
ATOM     15  C   UNL     1       2.830   3.326  20.377  0.00  0.00    +0.000 A 
ATOM     16  C   UNL     1       2.302   4.612  20.246  0.00  0.00    +0.000 A 
ENDBRANCH   8  11
ENDBRANCH   2   5
BRANCH   3  17
ATOM     17  C   UNL     1       0.794  13.215  18.560  0.00  0.00    +0.000 C 
BRANCH  17  18
ATOM     18  C   UNL     1       0.358  13.890  19.856  0.00  0.00    +0.000 C 
BRANCH  18  19
ATOM     19  C   UNL     1       1.025  13.241  21.070  0.00  0.00    +0.000 C 
BRANCH  19  20
ATOM     20  N   UNL     1       0.088  13.009  22.184  0.00  0.00    +0.000 NA
ATOM     21  C   UNL     1      -0.842  14.133  22.360  0.00  0.00    +0.000 C 
ATOM     22  C   UNL     1      -1.781  13.889  23.535  0.00  0.00    +0.000 C 
ATOM     23  C   UNL     1      -2.596  12.605  23.343  0.00  0.00    +0.000 C 
ATOM     24  C   UNL     1      -1.601  11.450  23.148  0.00  0.00    +0.000 C 
ATOM     25  C   UNL     1      -0.600  11.722  22.017  0.00  0.00    +0.000 C 
BRANCH  23  26
ATOM     26  C   UNL     1      -3.586  12.678  22.161  0.00  0.00    +0.000 C 
BRANCH  26  27
ATOM     27  C   UNL     1      -5.042  12.853  22.540  0.00  0.00    +0.000 A 
ATOM     28  C   UNL     1      -6.019  12.998  21.544  0.00  0.00    +0.000 A 
ATOM     29  C   UNL     1      -7.369  13.107  21.883  0.00  0.00    +0.000 A 
ATOM     30  C   UNL     1      -7.755  13.072  23.221  0.00  0.00    +0.000 A 
ATOM     31  C   UNL     1      -6.792  12.938  24.219  0.00  0.00    +0.000 A 
ATOM     32  C   UNL     1      -5.442  12.830  23.881  0.00  0.00    +0.000 A 
ENDBRANCH  26  27
ENDBRANCH  23  26
ENDBRANCH  19  20
ENDBRANCH  18  19
ENDBRANCH  17  18
ENDBRANCH   3  17
TORSDOF 8
ENDMDL
