MODEL 1
REMARK VINA RESULT:      -7.3      0.000      0.000
REMARK  Name = 
REMARK  7 active torsions:
REMARK  status: ('A' for Active; 'I' for Inactive)
REMARK    1  A    between atoms: C_1  and  N_2
REMARK    2  A    between atoms: N_2  and  C_3
REMARK    3  A    between atoms: N_2  and  C_4
REMARK    4  A    between atoms: C_4  and  C_5
REMARK    5  A    between atoms: C_5  and  C_6
REMARK    6  A    between atoms: C_6  and  O_7
REMARK    7  A    between atoms: O_7  and  C_8
REMARK                            x       y       z     vdW  Elec       q    Type
REMARK                         _______ _______ _______ _____ _____    ______ ____
ROOT
ATOM      1  C   UNL     1       6.633   6.499  16.783  0.00  0.00    +0.000 A 
ATOM      2  C   UNL     1       7.007   5.231  16.350  0.00  0.00    +0.000 A 
ATOM      3  C   UNL     1       6.092   4.170  16.429  0.00  0.00    +0.000 A 
ATOM      4  C   UNL     1       4.814   4.365  16.966  0.00  0.00    +0.000 A 
ATOM      5  C   UNL     1       4.423   5.648  17.382  0.00  0.00    +0.000 A 
ATOM      6  C   UNL     1       5.337   6.703  17.272  0.00  0.00    +0.000 A 
ATOM      7  N   UNL     1       3.193   5.867  18.038  0.00  0.00    +0.000 N 
ATOM      8  C   UNL     1       2.577   4.882  18.838  0.00  0.00    +0.000 A 
ATOM      9  C   UNL     1       1.870   5.276  19.983  0.00  0.00    +0.000 A 
ATOM     10  C   UNL     1       1.400   4.322  20.887  0.00  0.00    +0.000 A 
ATOM     11  C   UNL     1       1.602   2.966  20.641  0.00  0.00    +0.000 A 
ATOM     12  C   UNL     1       2.273   2.559  19.487  0.00  0.00    +0.000 A 
ATOM     13  C   UNL     1       2.779   3.510  18.593  0.00  0.00    +0.000 A 
ATOM     14  S   UNL     1       3.724   2.958  17.172  0.00  0.00    +0.000 S 
ATOM     15  H   UNL     1       2.960   6.825  18.250  0.00  0.00    +0.000 HD
ENDROOT
BRANCH   1  16
ATOM     16  O   UNL     1       7.428   7.607  16.835  0.00  0.00    +0.000 OA
BRANCH  16  17
ATOM     17  C   UNL     1       8.155   7.915  18.034  0.00  0.00    +0.000 C 
BRANCH  17  18
ATOM     18  C   UNL     1       8.296   9.439  18.035  0.00  0.00    +0.000 C 
BRANCH  18  19
ATOM     19  C   UNL     1       9.185  10.053  19.124  0.00  0.00    +0.000 C 
BRANCH  19  21
ATOM     20  C   UNL     1      11.052  11.503  18.692  0.00  0.00    +0.000 C 
ATOM     21  N   UNL     1       9.606  11.453  18.961  0.00  0.00    +0.000 NA
ATOM     22  C   UNL     1       8.915  12.145  17.869  0.00  0.00    +0.000 C 
ENDBRANCH  19  21
ENDBRANCH  18  19
ENDBRANCH  17  18
ENDBRANCH  16  17
ENDBRANCH   1  16
TORSDOF 5
ENDMDL
MODEL 2
REMARK VINA RESULT:      -7.1      3.370      6.690
REMARK  Name = 
REMARK  7 active torsions:
REMARK  status: ('A' for Active; 'I' for Inactive)
REMARK    1  A    between atoms: C_1  and  N_2
REMARK    2  A    between atoms: N_2  and  C_3
REMARK    3  A    between atoms: N_2  and  C_4
REMARK    4  A    between atoms: C_4  and  C_5
REMARK    5  A    between atoms: C_5  and  C_6
REMARK    6  A    between atoms: C_6  and  O_7
REMARK    7  A    between atoms: O_7  and  C_8
REMARK                            x       y       z     vdW  Elec       q    Type
REMARK                         _______ _______ _______ _____ _____    ______ ____
ROOT
ATOM      1  C   UNL     1       2.658   2.593  19.123  0.00  0.00    +0.000 A 
ATOM      2  C   UNL     1       2.136   2.857  17.861  0.00  0.00    +0.000 A 
ATOM      3  C   UNL     1       2.958   3.418  16.872  0.00  0.00    +0.000 A 
ATOM      4  C   UNL     1       4.291   3.744  17.148  0.00  0.00    +0.000 A 
ATOM      5  C   UNL     1       4.829   3.457  18.413  0.00  0.00    +0.000 A 
ATOM      6  C   UNL     1       4.005   2.872  19.382  0.00  0.00    +0.000 A 
ATOM      7  N   UNL     1       6.127   3.877  18.774  0.00  0.00    +0.000 N 
ATOM      8  C   UNL     1       6.723   5.037  18.238  0.00  0.00    +0.000 A 
ATOM      9  C   UNL     1       7.562   5.812  19.051  0.00  0.00    +0.000 A 
ATOM     10  C   UNL     1       8.025   7.053  18.610  0.00  0.00    +0.000 A 
ATOM     11  C   UNL     1       7.683   7.517  17.342  0.00  0.00    +0.000 A 
ATOM     12  C   UNL     1       6.878   6.739  16.508  0.00  0.00    +0.000 A 
ATOM     13  C   UNL     1       6.380   5.510  16.956  0.00  0.00    +0.000 A 
ATOM     14  S   UNL     1       5.267   4.582  15.900  0.00  0.00    +0.000 S 
ATOM     15  H   UNL     1       6.462   3.579  19.677  0.00  0.00    +0.000 HD
ENDROOT
BRANCH   1  16
ATOM     16  O   UNL     1       1.971   2.117  20.203  0.00  0.00    +0.000 OA
BRANCH  16  17
ATOM     17  C   UNL     1       1.118   2.993  20.955  0.00  0.00    +0.000 C 
BRANCH  17  18
ATOM     18  C   UNL     1       1.967   4.238  21.228  0.00  0.00    +0.000 C 
BRANCH  18  19
ATOM     19  C   UNL     1       1.344   5.594  20.877  0.00  0.00    +0.000 C 
BRANCH  19  21
ATOM     20  C   UNL     1       2.530   6.385  18.943  0.00  0.00    +0.000 C 
ATOM     21  N   UNL     1       2.231   6.647  20.361  0.00  0.00    +0.000 NA
ATOM     22  C   UNL     1       1.659   7.993  20.464  0.00  0.00    +0.000 C 
ENDBRANCH  19  21
ENDBRANCH  18  19
ENDBRANCH  17  18
ENDBRANCH  16  17
ENDBRANCH   1  16
TORSDOF 5
ENDMDL
MODEL 3
REMARK VINA RESULT:      -7.0      3.819      5.934
REMARK  Name = 
REMARK  7 active torsions:
REMARK  status: ('A' for Active; 'I' for Inactive)
REMARK    1  A    between atoms: C_1  and  N_2
REMARK    2  A    between atoms: N_2  and  C_3
REMARK    3  A    between atoms: N_2  and  C_4
REMARK    4  A    between atoms: C_4  and  C_5
REMARK    5  A    between atoms: C_5  and  C_6
REMARK    6  A    between atoms: C_6  and  O_7
REMARK    7  A    between atoms: O_7  and  C_8
REMARK                            x       y       z     vdW  Elec       q    Type
REMARK                         _______ _______ _______ _____ _____    ______ ____
ROOT
ATOM      1  C   UNL     1       6.114   5.532  16.289  0.00  0.00    +0.000 A 
ATOM      2  C   UNL     1       5.280   6.626  16.078  0.00  0.00    +0.000 A 
ATOM      3  C   UNL     1       4.298   6.945  17.028  0.00  0.00    +0.000 A 
ATOM      4  C   UNL     1       4.125   6.158  18.172  0.00  0.00    +0.000 A 
ATOM      5  C   UNL     1       4.980   5.067  18.402  0.00  0.00    +0.000 A 
ATOM      6  C   UNL     1       5.973   4.777  17.459  0.00  0.00    +0.000 A 
ATOM      7  N   UNL     1       4.767   4.177  19.476  0.00  0.00    +0.000 N 
ATOM      8  C   UNL     1       3.482   3.913  19.995  0.00  0.00    +0.000 A 
ATOM      9  C   UNL     1       3.184   2.623  20.457  0.00  0.00    +0.000 A 
ATOM     10  C   UNL     1       1.878   2.283  20.813  0.00  0.00    +0.000 A 
ATOM     11  C   UNL     1       0.864   3.236  20.743  0.00  0.00    +0.000 A 
ATOM     12  C   UNL     1       1.154   4.534  20.319  0.00  0.00    +0.000 A 
ATOM     13  C   UNL     1       2.454   4.873  19.927  0.00  0.00    +0.000 A 
ATOM     14  S   UNL     1       2.773   6.520  19.291  0.00  0.00    +0.000 S 
ATOM     15  H   UNL     1       5.459   3.456  19.607  0.00  0.00    +0.000 HD
ENDROOT
BRANCH   1  16
ATOM     16  O   UNL     1       7.064   5.058  15.430  0.00  0.00    +0.000 OA
BRANCH  16  17
ATOM     17  C   UNL     1       6.738   4.007  14.509  0.00  0.00    +0.000 C 
BRANCH  17  18
ATOM     18  C   UNL     1       6.944   4.616  13.120  0.00  0.00    +0.000 C 
BRANCH  18  19
ATOM     19  C   UNL     1       6.733   3.689  11.916  0.00  0.00    +0.000 C 
BRANCH  19  21
ATOM     20  C   UNL     1       4.424   3.209  11.456  0.00  0.00    +0.000 C 
ATOM     21  N   UNL     1       5.678   2.669  12.008  0.00  0.00    +0.000 NA
ATOM     22  C   UNL     1       5.998   1.433  11.287  0.00  0.00    +0.000 C 
ENDBRANCH  19  21
ENDBRANCH  18  19
ENDBRANCH  17  18
ENDBRANCH  16  17
ENDBRANCH   1  16
TORSDOF 5
ENDMDL
MODEL 4
REMARK VINA RESULT:      -7.0      0.811      1.009
REMARK  Name = 
REMARK  7 active torsions:
REMARK  status: ('A' for Active; 'I' for Inactive)
REMARK    1  A    between atoms: C_1  and  N_2
REMARK    2  A    between atoms: N_2  and  C_3
REMARK    3  A    between atoms: N_2  and  C_4
REMARK    4  A    between atoms: C_4  and  C_5
REMARK    5  A    between atoms: C_5  and  C_6
REMARK    6  A    between atoms: C_6  and  O_7
REMARK    7  A    between atoms: O_7  and  C_8
REMARK                            x       y       z     vdW  Elec       q    Type
REMARK                         _______ _______ _______ _____ _____    ______ ____
ROOT
ATOM      1  C   UNL     1       7.033   6.356  17.683  0.00  0.00    +0.000 A 
ATOM      2  C   UNL     1       7.279   5.190  16.966  0.00  0.00    +0.000 A 
ATOM      3  C   UNL     1       6.226   4.299  16.704  0.00  0.00    +0.000 A 
ATOM      4  C   UNL     1       4.936   4.554  17.182  0.00  0.00    +0.000 A 
ATOM      5  C   UNL     1       4.677   5.742  17.886  0.00  0.00    +0.000 A 
ATOM      6  C   UNL     1       5.731   6.635  18.116  0.00  0.00    +0.000 A 
ATOM      7  N   UNL     1       3.425   5.983  18.488  0.00  0.00    +0.000 N 
ATOM      8  C   UNL     1       2.600   4.941  18.962  0.00  0.00    +0.000 A 
ATOM      9  C   UNL     1       1.833   5.149  20.117  0.00  0.00    +0.000 A 
ATOM     10  C   UNL     1       1.145   4.089  20.709  0.00  0.00    +0.000 A 
ATOM     11  C   UNL     1       1.189   2.819  20.137  0.00  0.00    +0.000 A 
ATOM     12  C   UNL     1       1.920   2.607  18.967  0.00  0.00    +0.000 A 
ATOM     13  C   UNL     1       2.642   3.656  18.387  0.00  0.00    +0.000 A 
ATOM     14  S   UNL     1       3.652   3.327  16.942  0.00  0.00    +0.000 S 
ATOM     15  H   UNL     1       3.300   6.884  18.923  0.00  0.00    +0.000 HD
ENDROOT
BRANCH   1  16
ATOM     16  O   UNL     1       7.959   7.280  18.074  0.00  0.00    +0.000 OA
BRANCH  16  17
ATOM     17  C   UNL     1       7.853   8.638  17.623  0.00  0.00    +0.000 C 
BRANCH  17  18
ATOM     18  C   UNL     1       8.756   9.442  18.562  0.00  0.00    +0.000 C 
BRANCH  18  19
ATOM     19  C   UNL     1       8.991  10.916  18.206  0.00  0.00    +0.000 C 
BRANCH  19  21
ATOM     20  C   UNL     1      10.403  12.713  17.465  0.00  0.00    +0.000 C 
ATOM     21  N   UNL     1      10.381  11.386  18.101  0.00  0.00    +0.000 NA
ATOM     22  C   UNL     1      11.060  11.490  19.396  0.00  0.00    +0.000 C 
ENDBRANCH  19  21
ENDBRANCH  18  19
ENDBRANCH  17  18
ENDBRANCH  16  17
ENDBRANCH   1  16
TORSDOF 5
ENDMDL
MODEL 5
REMARK VINA RESULT:      -6.9      3.973      6.520
REMARK  Name = 
REMARK  7 active torsions:
REMARK  status: ('A' for Active; 'I' for Inactive)
REMARK    1  A    between atoms: C_1  and  N_2
REMARK    2  A    between atoms: N_2  and  C_3
REMARK    3  A    between atoms: N_2  and  C_4
REMARK    4  A    between atoms: C_4  and  C_5
REMARK    5  A    between atoms: C_5  and  C_6
REMARK    6  A    between atoms: C_6  and  O_7
REMARK    7  A    between atoms: O_7  and  C_8
REMARK                            x       y       z     vdW  Elec       q    Type
REMARK                         _______ _______ _______ _____ _____    ______ ____
ROOT
ATOM      1  C   UNL     1       5.738   5.231  15.245  0.00  0.00    +0.000 A 
ATOM      2  C   UNL     1       5.366   6.513  15.632  0.00  0.00    +0.000 A 
ATOM      3  C   UNL     1       4.737   6.710  16.872  0.00  0.00    +0.000 A 
ATOM      4  C   UNL     1       4.453   5.627  17.711  0.00  0.00    +0.000 A 
ATOM      5  C   UNL     1       4.850   4.333  17.335  0.00  0.00    +0.000 A 
ATOM      6  C   UNL     1       5.500   4.155  16.108  0.00  0.00    +0.000 A 
ATOM      7  N   UNL     1       4.479   3.200  18.090  0.00  0.00    +0.000 N 
ATOM      8  C   UNL     1       3.287   3.150  18.843  0.00  0.00    +0.000 A 
ATOM      9  C   UNL     1       2.593   1.936  18.942  0.00  0.00    +0.000 A 
ATOM     10  C   UNL     1       1.327   1.891  19.529  0.00  0.00    +0.000 A 
ATOM     11  C   UNL     1       0.757   3.050  20.051  0.00  0.00    +0.000 A 
ATOM     12  C   UNL     1       1.453   4.258  19.991  0.00  0.00    +0.000 A 
ATOM     13  C   UNL     1       2.707   4.319  19.373  0.00  0.00    +0.000 A 
ATOM     14  S   UNL     1       3.531   5.905  19.222  0.00  0.00    +0.000 S 
ATOM     15  H   UNL     1       4.854   2.315  17.787  0.00  0.00    +0.000 HD
ENDROOT
BRANCH   1  16
ATOM     16  O   UNL     1       6.291   4.872  14.048  0.00  0.00    +0.000 OA
BRANCH  16  17
ATOM     17  C   UNL     1       6.272   3.499  13.632  0.00  0.00    +0.000 C 
BRANCH  17  18
ATOM     18  C   UNL     1       5.869   3.535  12.155  0.00  0.00    +0.000 C 
BRANCH  18  19
ATOM     19  C   UNL     1       5.268   2.253  11.567  0.00  0.00    +0.000 C 
BRANCH  19  21
ATOM     20  C   UNL     1       7.548   1.843  10.929  0.00  0.00    +0.000 C 
ATOM     21  N   UNL     1       6.170   1.329  10.863  0.00  0.00    +0.000 NA
ATOM     22  C   UNL     1       6.163  -0.028  11.418  0.00  0.00    +0.000 C 
ENDBRANCH  19  21
ENDBRANCH  18  19
ENDBRANCH  17  18
ENDBRANCH  16  17
ENDBRANCH   1  16
TORSDOF 5
ENDMDL
MODEL 6
REMARK VINA RESULT:      -6.7      3.673      5.943
REMARK  Name = 
REMARK  7 active torsions:
REMARK  status: ('A' for Active; 'I' for Inactive)
REMARK    1  A    between atoms: C_1  and  N_2
REMARK    2  A    between atoms: N_2  and  C_3
REMARK    3  A    between atoms: N_2  and  C_4
REMARK    4  A    between atoms: C_4  and  C_5
REMARK    5  A    between atoms: C_5  and  C_6
REMARK    6  A    between atoms: C_6  and  O_7
REMARK    7  A    between atoms: O_7  and  C_8
REMARK                            x       y       z     vdW  Elec       q    Type
REMARK                         _______ _______ _______ _____ _____    ______ ____
ROOT
ATOM      1  C   UNL     1       6.716   5.239  16.196  0.00  0.00    +0.000 A 
ATOM      2  C   UNL     1       6.180   6.508  16.385  0.00  0.00    +0.000 A 
ATOM      3  C   UNL     1       5.225   6.718  17.392  0.00  0.00    +0.000 A 
ATOM      4  C   UNL     1       4.783   5.658  18.191  0.00  0.00    +0.000 A 
ATOM      5  C   UNL     1       5.340   4.379  18.021  0.00  0.00    +0.000 A 
ATOM      6  C   UNL     1       6.311   4.191  17.031  0.00  0.00    +0.000 A 
ATOM      7  N   UNL     1       4.840   3.259  18.719  0.00  0.00    +0.000 N 
ATOM      8  C   UNL     1       3.492   3.159  19.121  0.00  0.00    +0.000 A 
ATOM      9  C   UNL     1       2.867   1.904  19.107  0.00  0.00    +0.000 A 
ATOM     10  C   UNL     1       1.493   1.795  19.330  0.00  0.00    +0.000 A 
ATOM     11  C   UNL     1       0.737   2.933  19.602  0.00  0.00    +0.000 A 
ATOM     12  C   UNL     1       1.353   4.184  19.655  0.00  0.00    +0.000 A 
ATOM     13  C   UNL     1       2.723   4.306  19.397  0.00  0.00    +0.000 A 
ATOM     14  S   UNL     1       3.466   5.939  19.373  0.00  0.00    +0.000 S 
ATOM     15  H   UNL     1       5.333   2.390  18.587  0.00  0.00    +0.000 HD
ENDROOT
BRANCH   1  16
ATOM     16  O   UNL     1       7.596   4.866  15.221  0.00  0.00    +0.000 OA
BRANCH  16  17
ATOM     17  C   UNL     1       7.347   5.225  13.854  0.00  0.00    +0.000 C 
BRANCH  17  18
ATOM     18  C   UNL     1       6.974   3.913  13.159  0.00  0.00    +0.000 C 
BRANCH  18  19
ATOM     19  C   UNL     1       5.499   3.721  12.784  0.00  0.00    +0.000 C 
BRANCH  19  21
ATOM     20  C   UNL     1       5.729   1.783  11.381  0.00  0.00    +0.000 C 
ATOM     21  N   UNL     1       5.192   3.152  11.463  0.00  0.00    +0.000 NA
ATOM     22  C   UNL     1       3.756   3.095  11.173  0.00  0.00    +0.000 C 
ENDBRANCH  19  21
ENDBRANCH  18  19
ENDBRANCH  17  18
ENDBRANCH  16  17
ENDBRANCH   1  16
TORSDOF 5
ENDMDL
MODEL 7
REMARK VINA RESULT:      -6.6      4.098      6.546
REMARK  Name = 
REMARK  7 active torsions:
REMARK  status: ('A' for Active; 'I' for Inactive)
REMARK    1  A    between atoms: C_1  and  N_2
REMARK    2  A    between atoms: N_2  and  C_3
REMARK    3  A    between atoms: N_2  and  C_4
REMARK    4  A    between atoms: C_4  and  C_5
REMARK    5  A    between atoms: C_5  and  C_6
REMARK    6  A    between atoms: C_6  and  O_7
REMARK    7  A    between atoms: O_7  and  C_8
REMARK                            x       y       z     vdW  Elec       q    Type
REMARK                         _______ _______ _______ _____ _____    ______ ____
ROOT
ATOM      1  C   UNL     1       5.865   4.366  15.321  0.00  0.00    +0.000 A 
ATOM      2  C   UNL     1       5.466   5.698  15.280  0.00  0.00    +0.000 A 
ATOM      3  C   UNL     1       4.863   6.278  16.407  0.00  0.00    +0.000 A 
ATOM      4  C   UNL     1       4.631   5.525  17.563  0.00  0.00    +0.000 A 
ATOM      5  C   UNL     1       5.055   4.187  17.618  0.00  0.00    +0.000 A 
ATOM      6  C   UNL     1       5.680   3.629  16.496  0.00  0.00    +0.000 A 
ATOM      7  N   UNL     1       4.735   3.357  18.713  0.00  0.00    +0.000 N 
ATOM      8  C   UNL     1       3.564   3.534  19.479  0.00  0.00    +0.000 A 
ATOM      9  C   UNL     1       2.908   2.406  19.993  0.00  0.00    +0.000 A 
ATOM     10  C   UNL     1       1.658   2.532  20.603  0.00  0.00    +0.000 A 
ATOM     11  C   UNL     1       1.068   3.787  20.736  0.00  0.00    +0.000 A 
ATOM     12  C   UNL     1       1.728   4.922  20.261  0.00  0.00    +0.000 A 
ATOM     13  C   UNL     1       2.964   4.800  19.617  0.00  0.00    +0.000 A 
ATOM     14  S   UNL     1       3.739   6.265  18.929  0.00  0.00    +0.000 S 
ATOM     15  H   UNL     1       5.128   2.428  18.705  0.00  0.00    +0.000 HD
ENDROOT
BRANCH   1  16
ATOM     16  O   UNL     1       6.399   3.646  14.290  0.00  0.00    +0.000 OA
BRANCH  16  17
ATOM     17  C   UNL     1       6.290   4.131  12.944  0.00  0.00    +0.000 C 
BRANCH  17  18
ATOM     18  C   UNL     1       5.036   3.459  12.378  0.00  0.00    +0.000 C 
BRANCH  18  19
ATOM     19  C   UNL     1       5.251   2.345  11.346  0.00  0.00    +0.000 C 
BRANCH  19  21
ATOM     20  C   UNL     1       5.985   0.064  11.162  0.00  0.00    +0.000 C 
ATOM     21  N   UNL     1       6.383   1.428  11.547  0.00  0.00    +0.000 NA
ATOM     22  C   UNL     1       7.572   1.793  10.769  0.00  0.00    +0.000 C 
ENDBRANCH  19  21
ENDBRANCH  18  19
ENDBRANCH  17  18
ENDBRANCH  16  17
ENDBRANCH   1  16
TORSDOF 5
ENDMDL
MODEL 8
REMARK VINA RESULT:      -6.5      4.842      7.171
REMARK  Name = 
REMARK  7 active torsions:
REMARK  status: ('A' for Active; 'I' for Inactive)
REMARK    1  A    between atoms: C_1  and  N_2
REMARK    2  A    between atoms: N_2  and  C_3
REMARK    3  A    between atoms: N_2  and  C_4
REMARK    4  A    between atoms: C_4  and  C_5
REMARK    5  A    between atoms: C_5  and  C_6
REMARK    6  A    between atoms: C_6  and  O_7
REMARK    7  A    between atoms: O_7  and  C_8
REMARK                            x       y       z     vdW  Elec       q    Type
REMARK                         _______ _______ _______ _____ _____    ______ ____
ROOT
ATOM      1  C   UNL     1       2.855   6.989  18.527  0.00  0.00    +0.000 A 
ATOM      2  C   UNL     1       2.365   6.759  19.808  0.00  0.00    +0.000 A 
ATOM      3  C   UNL     1       1.595   7.744  20.446  0.00  0.00    +0.000 A 
ATOM      4  C   UNL     1       1.338   8.969  19.820  0.00  0.00    +0.000 A 
ATOM      5  C   UNL     1       1.810   9.196  18.516  0.00  0.00    +0.000 A 
ATOM      6  C   UNL     1       2.553   8.194  17.882  0.00  0.00    +0.000 A 
ATOM      7  N   UNL     1       1.679  10.456  17.895  0.00  0.00    +0.000 N 
ATOM      8  C   UNL     1       1.657  11.662  18.626  0.00  0.00    +0.000 A 
ATOM      9  C   UNL     1       2.249  12.807  18.075  0.00  0.00    +0.000 A 
ATOM     10  C   UNL     1       2.399  13.964  18.840  0.00  0.00    +0.000 A 
ATOM     11  C   UNL     1       1.929  14.002  20.151  0.00  0.00    +0.000 A 
ATOM     12  C   UNL     1       1.305  12.880  20.700  0.00  0.00    +0.000 A 
ATOM     13  C   UNL     1       1.183  11.704  19.952  0.00  0.00    +0.000 A 
ATOM     14  S   UNL     1       0.467  10.250  20.720  0.00  0.00    +0.000 S 
ATOM     15  H   UNL     1       1.988  10.520  16.937  0.00  0.00    +0.000 HD
ENDROOT
BRANCH   1  16
ATOM     16  O   UNL     1       3.670   6.162  17.808  0.00  0.00    +0.000 OA
BRANCH  16  17
ATOM     17  C   UNL     1       3.322   4.779  17.640  0.00  0.00    +0.000 C 
BRANCH  17  18
ATOM     18  C   UNL     1       4.614   4.006  17.913  0.00  0.00    +0.000 C 
BRANCH  18  19
ATOM     19  C   UNL     1       5.585   4.614  18.934  0.00  0.00    +0.000 C 
BRANCH  19  21
ATOM     20  C   UNL     1       7.168   4.618  17.127  0.00  0.00    +0.000 C 
ATOM     21  N   UNL     1       7.014   4.646  18.591  0.00  0.00    +0.000 NA
ATOM     22  C   UNL     1       7.708   5.834  19.099  0.00  0.00    +0.000 C 
ENDBRANCH  19  21
ENDBRANCH  18  19
ENDBRANCH  17  18
ENDBRANCH  16  17
ENDBRANCH   1  16
TORSDOF 5
ENDMDL
MODEL 9
REMARK VINA RESULT:      -6.5      4.869      8.260
REMARK  Name = 
REMARK  7 active torsions:
REMARK  status: ('A' for Active; 'I' for Inactive)
REMARK    1  A    between atoms: C_1  and  N_2
REMARK    2  A    between atoms: N_2  and  C_3
REMARK    3  A    between atoms: N_2  and  C_4
REMARK    4  A    between atoms: C_4  and  C_5
REMARK    5  A    between atoms: C_5  and  C_6
REMARK    6  A    between atoms: C_6  and  O_7
REMARK    7  A    between atoms: O_7  and  C_8
REMARK                            x       y       z     vdW  Elec       q    Type
REMARK                         _______ _______ _______ _____ _____    ______ ____
ROOT
ATOM      1  C   UNL     1       2.737   7.101  18.437  0.00  0.00    +0.000 A 
ATOM      2  C   UNL     1       2.300   6.868  19.737  0.00  0.00    +0.000 A 
ATOM      3  C   UNL     1       1.577   7.861  20.417  0.00  0.00    +0.000 A 
ATOM      4  C   UNL     1       1.317   9.096  19.814  0.00  0.00    +0.000 A 
ATOM      5  C   UNL     1       1.736   9.328  18.493  0.00  0.00    +0.000 A 
ATOM      6  C   UNL     1       2.431   8.318  17.817  0.00  0.00    +0.000 A 
ATOM      7  N   UNL     1       1.602  10.596  17.889  0.00  0.00    +0.000 N 
ATOM      8  C   UNL     1       1.635  11.795  18.633  0.00  0.00    +0.000 A 
ATOM      9  C   UNL     1       2.225  12.934  18.067  0.00  0.00    +0.000 A 
ATOM     10  C   UNL     1       2.430  14.080  18.835  0.00  0.00    +0.000 A 
ATOM     11  C   UNL     1       2.019  14.113  20.166  0.00  0.00    +0.000 A 
ATOM     12  C   UNL     1       1.398  12.998  20.732  0.00  0.00    +0.000 A 
ATOM     13  C   UNL     1       1.220  11.833  19.978  0.00  0.00    +0.000 A 
ATOM     14  S   UNL     1       0.511  10.384  20.763  0.00  0.00    +0.000 S 
ATOM     15  H   UNL     1       1.871  10.664  16.920  0.00  0.00    +0.000 HD
ENDROOT
BRANCH   1  16
ATOM     16  O   UNL     1       3.504   6.266  17.676  0.00  0.00    +0.000 OA
BRANCH  16  17
ATOM     17  C   UNL     1       4.352   5.295  18.308  0.00  0.00    +0.000 C 
BRANCH  17  18
ATOM     18  C   UNL     1       4.131   4.001  17.520  0.00  0.00    +0.000 C 
BRANCH  18  19
ATOM     19  C   UNL     1       2.679   3.550  17.317  0.00  0.00    +0.000 C 
BRANCH  19  21
ATOM     20  C   UNL     1       3.464   1.566  18.423  0.00  0.00    +0.000 C 
ATOM     21  N   UNL     1       2.290   2.227  17.828  0.00  0.00    +0.000 NA
ATOM     22  C   UNL     1       1.236   2.284  18.846  0.00  0.00    +0.000 C 
ENDBRANCH  19  21
ENDBRANCH  18  19
ENDBRANCH  17  18
ENDBRANCH  16  17
ENDBRANCH   1  16
TORSDOF 5
ENDMDL
