MODEL 1
REMARK VINA RESULT:      -7.4      0.000      0.000
REMARK  Name = 
REMARK  7 active torsions:
REMARK  status: ('A' for Active; 'I' for Inactive)
REMARK    1  A    between atoms: C_1  and  O_2
REMARK    2  A    between atoms: O_2  and  C_3
REMARK    3  A    between atoms: C_3  and  C_4
REMARK    4  A    between atoms: C_6  and  C_7
REMARK    5  A    between atoms: C_9  and  N_10
REMARK    6  A    between atoms: N_10  and  C_11
REMARK    7  A    between atoms: C_11  and  C_12
REMARK                            x       y       z     vdW  Elec       q    Type
REMARK                         _______ _______ _______ _____ _____    ______ ____
ROOT
ATOM      1  N   UNL     1       5.898   4.156  18.612  0.00  0.00    +0.000 N 
ATOM      2  H   UNL     1       6.319   3.545  19.301  0.00  0.00    +0.000 HD
ENDROOT
BRANCH   1   8
ATOM      3  C   UNL     1       2.675   4.538  20.081  0.00  0.00    +0.000 A 
ATOM      4  N   UNL     1       2.231   5.733  19.624  0.00  0.00    +0.000 NA
ATOM      5  C   UNL     1       3.045   6.392  18.798  0.00  0.00    +0.000 A 
ATOM      6  C   UNL     1       2.566   7.711  18.261  0.00  0.00    +0.000 C 
ATOM      7  C   UNL     1       4.281   5.901  18.419  0.00  0.00    +0.000 A 
ATOM      8  C   UNL     1       4.665   4.671  18.957  0.00  0.00    +0.000 A 
ATOM      9  N   UNL     1       3.882   4.011  19.798  0.00  0.00    +0.000 NA
BRANCH   3  10
ATOM     10  C   UNL     1       1.781   3.781  21.028  0.00  0.00    +0.000 C 
BRANCH  10  12
ATOM     11  C   UNL     1       0.730   2.615  19.269  0.00  0.00    +0.000 C 
ATOM     12  O   UNL     1       1.392   2.493  20.522  0.00  0.00    +0.000 OA
ENDBRANCH  10  12
ENDBRANCH   3  10
ENDBRANCH   1   8
BRANCH   1  13
ATOM     13  C   UNL     1       6.847   4.965  17.836  0.00  0.00    +0.000 C 
BRANCH  13  14
ATOM     14  C   UNL     1       6.787   4.701  16.347  0.00  0.00    +0.000 A 
ATOM     15  C   UNL     1       5.952   3.773  15.673  0.00  0.00    +0.000 A 
ATOM     16  C   UNL     1       6.274   3.886  14.341  0.00  0.00    +0.000 A 
ATOM     17  N   UNL     1       7.239   4.842  14.288  0.00  0.00    +0.000 N 
ATOM     18  N   UNL     1       7.584   5.358  15.483  0.00  0.00    +0.000 NA
ATOM     19  C   UNL     1       7.876   5.310  13.089  0.00  0.00    +0.000 C 
ATOM     20  C   UNL     1       7.380   4.621  11.834  0.00  0.00    +0.000 C 
ATOM     21  C   UNL     1       6.264   3.587  11.991  0.00  0.00    +0.000 C 
ATOM     22  O   UNL     1       5.800   3.235  13.288  0.00  0.00    +0.000 OA
ENDBRANCH  13  14
ENDBRANCH   1  13
TORSDOF 5
ENDMDL
MODEL 2
REMARK VINA RESULT:      -7.3      2.603      6.874
REMARK  Name = 
REMARK  7 active torsions:
REMARK  status: ('A' for Active; 'I' for Inactive)
REMARK    1  A    between atoms: C_1  and  O_2
REMARK    2  A    between atoms: O_2  and  C_3
REMARK    3  A    between atoms: C_3  and  C_4
REMARK    4  A    between atoms: C_6  and  C_7
REMARK    5  A    between atoms: C_9  and  N_10
REMARK    6  A    between atoms: N_10  and  C_11
REMARK    7  A    between atoms: C_11  and  C_12
REMARK                            x       y       z     vdW  Elec       q    Type
REMARK                         _______ _______ _______ _____ _____    ______ ____
ROOT
ATOM      1  N   UNL     1       5.230   3.593  18.943  0.00  0.00    +0.000 N 
ATOM      2  H   UNL     1       5.657   2.697  19.147  0.00  0.00    +0.000 HD
ENDROOT
BRANCH   1   8
ATOM      3  C   UNL     1       7.300   6.212  17.696  0.00  0.00    +0.000 A 
ATOM      4  N   UNL     1       7.373   5.983  16.363  0.00  0.00    +0.000 NA
ATOM      5  C   UNL     1       6.693   4.932  15.903  0.00  0.00    +0.000 A 
ATOM      6  C   UNL     1       6.742   4.670  14.424  0.00  0.00    +0.000 C 
ATOM      7  C   UNL     1       5.950   4.105  16.726  0.00  0.00    +0.000 A 
ATOM      8  C   UNL     1       5.950   4.405  18.090  0.00  0.00    +0.000 A 
ATOM      9  N   UNL     1       6.639   5.430  18.571  0.00  0.00    +0.000 NA
BRANCH   3  10
ATOM     10  C   UNL     1       8.072   7.383  18.243  0.00  0.00    +0.000 C 
BRANCH  10  12
ATOM     11  C   UNL     1       8.459   9.707  18.142  0.00  0.00    +0.000 C 
ATOM     12  O   UNL     1       7.867   8.590  17.489  0.00  0.00    +0.000 OA
ENDBRANCH  10  12
ENDBRANCH   3  10
ENDBRANCH   1   8
BRANCH   1  13
ATOM     13  C   UNL     1       3.763   3.589  18.900  0.00  0.00    +0.000 C 
BRANCH  13  14
ATOM     14  C   UNL     1       3.150   4.959  19.095  0.00  0.00    +0.000 A 
ATOM     15  C   UNL     1       2.597   5.489  20.289  0.00  0.00    +0.000 A 
ATOM     16  C   UNL     1       2.156   6.750  19.963  0.00  0.00    +0.000 A 
ATOM     17  N   UNL     1       2.461   6.905  18.647  0.00  0.00    +0.000 N 
ATOM     18  N   UNL     1       3.059   5.841  18.081  0.00  0.00    +0.000 NA
ATOM     19  C   UNL     1       2.196   8.083  17.869  0.00  0.00    +0.000 C 
ATOM     20  C   UNL     1       1.512   9.183  18.654  0.00  0.00    +0.000 C 
ATOM     21  C   UNL     1       1.244   8.929  20.139  0.00  0.00    +0.000 C 
ATOM     22  O   UNL     1       1.548   7.662  20.708  0.00  0.00    +0.000 OA
ENDBRANCH  13  14
ENDBRANCH   1  13
TORSDOF 5
ENDMDL
MODEL 3
REMARK VINA RESULT:      -7.2      1.485      2.631
REMARK  Name = 
REMARK  7 active torsions:
REMARK  status: ('A' for Active; 'I' for Inactive)
REMARK    1  A    between atoms: C_1  and  O_2
REMARK    2  A    between atoms: O_2  and  C_3
REMARK    3  A    between atoms: C_3  and  C_4
REMARK    4  A    between atoms: C_6  and  C_7
REMARK    5  A    between atoms: C_9  and  N_10
REMARK    6  A    between atoms: N_10  and  C_11
REMARK    7  A    between atoms: C_11  and  C_12
REMARK                            x       y       z     vdW  Elec       q    Type
REMARK                         _______ _______ _______ _____ _____    ______ ____
ROOT
ATOM      1  N   UNL     1       6.110   4.142  18.731  0.00  0.00    +0.000 N 
ATOM      2  H   UNL     1       6.703   3.656  19.393  0.00  0.00    +0.000 HD
ENDROOT
BRANCH   1   8
ATOM      3  C   UNL     1       3.042   5.754  19.560  0.00  0.00    +0.000 A 
ATOM      4  N   UNL     1       2.238   4.754  19.994  0.00  0.00    +0.000 NA
ATOM      5  C   UNL     1       2.769   3.531  20.011  0.00  0.00    +0.000 A 
ATOM      6  C   UNL     1       1.903   2.408  20.508  0.00  0.00    +0.000 C 
ATOM      7  C   UNL     1       4.066   3.274  19.608  0.00  0.00    +0.000 A 
ATOM      8  C   UNL     1       4.815   4.363  19.155  0.00  0.00    +0.000 A 
ATOM      9  N   UNL     1       4.299   5.582  19.107  0.00  0.00    +0.000 NA
BRANCH   3  10
ATOM     10  C   UNL     1       2.461   7.143  19.516  0.00  0.00    +0.000 C 
BRANCH  10  12
ATOM     11  C   UNL     1       2.515   8.705  17.750  0.00  0.00    +0.000 C 
ATOM     12  O   UNL     1       1.941   7.492  18.222  0.00  0.00    +0.000 OA
ENDBRANCH  10  12
ENDBRANCH   3  10
ENDBRANCH   1   8
BRANCH   1  13
ATOM     13  C   UNL     1       6.794   5.135  17.894  0.00  0.00    +0.000 C 
BRANCH  13  14
ATOM     14  C   UNL     1       6.736   4.819  16.415  0.00  0.00    +0.000 A 
ATOM     15  C   UNL     1       5.871   3.899  15.768  0.00  0.00    +0.000 A 
ATOM     16  C   UNL     1       6.208   3.951  14.435  0.00  0.00    +0.000 A 
ATOM     17  N   UNL     1       7.210   4.866  14.357  0.00  0.00    +0.000 N 
ATOM     18  N   UNL     1       7.565   5.412  15.535  0.00  0.00    +0.000 NA
ATOM     19  C   UNL     1       7.875   5.265  13.147  0.00  0.00    +0.000 C 
ATOM     20  C   UNL     1       7.361   4.550  11.914  0.00  0.00    +0.000 C 
ATOM     21  C   UNL     1       6.205   3.566  12.098  0.00  0.00    +0.000 C 
ATOM     22  O   UNL     1       5.717   3.280  13.403  0.00  0.00    +0.000 OA
ENDBRANCH  13  14
ENDBRANCH   1  13
TORSDOF 5
ENDMDL
MODEL 4
REMARK VINA RESULT:      -7.1      2.047      2.676
REMARK  Name = 
REMARK  7 active torsions:
REMARK  status: ('A' for Active; 'I' for Inactive)
REMARK    1  A    between atoms: C_1  and  O_2
REMARK    2  A    between atoms: O_2  and  C_3
REMARK    3  A    between atoms: C_3  and  C_4
REMARK    4  A    between atoms: C_6  and  C_7
REMARK    5  A    between atoms: C_9  and  N_10
REMARK    6  A    between atoms: N_10  and  C_11
REMARK    7  A    between atoms: C_11  and  C_12
REMARK                            x       y       z     vdW  Elec       q    Type
REMARK                         _______ _______ _______ _____ _____    ______ ____
ROOT
ATOM      1  N   UNL     1       4.837   5.443  18.265  0.00  0.00    +0.000 N 
ATOM      2  H   UNL     1       4.200   5.850  17.590  0.00  0.00    +0.000 HD
ENDROOT
BRANCH   1   8
ATOM      3  C   UNL     1       4.406   2.457  20.161  0.00  0.00    +0.000 A 
ATOM      4  N   UNL     1       3.169   2.571  20.699  0.00  0.00    +0.000 NA
ATOM      5  C   UNL     1       2.486   3.674  20.390  0.00  0.00    +0.000 A 
ATOM      6  C   UNL     1       1.102   3.813  20.960  0.00  0.00    +0.000 C 
ATOM      7  C   UNL     1       2.996   4.663  19.569  0.00  0.00    +0.000 A 
ATOM      8  C   UNL     1       4.289   4.470  19.077  0.00  0.00    +0.000 A 
ATOM      9  N   UNL     1       4.994   3.393  19.391  0.00  0.00    +0.000 NA
BRANCH   3  10
ATOM     10  C   UNL     1       5.204   1.228  20.507  0.00  0.00    +0.000 C 
BRANCH  10  12
ATOM     11  C   UNL     1       6.291  -0.021  22.187  0.00  0.00    +0.000 C 
ATOM     12  O   UNL     1       5.498   1.128  21.911  0.00  0.00    +0.000 OA
ENDBRANCH  10  12
ENDBRANCH   3  10
ENDBRANCH   1   8
BRANCH   1  13
ATOM     13  C   UNL     1       6.231   5.337  17.820  0.00  0.00    +0.000 C 
BRANCH  13  14
ATOM     14  C   UNL     1       6.372   4.966  16.360  0.00  0.00    +0.000 A 
ATOM     15  C   UNL     1       5.637   3.980  15.652  0.00  0.00    +0.000 A 
ATOM     16  C   UNL     1       6.134   4.001  14.369  0.00  0.00    +0.000 A 
ATOM     17  N   UNL     1       7.094   4.962  14.375  0.00  0.00    +0.000 N 
ATOM     18  N   UNL     1       7.275   5.568  15.563  0.00  0.00    +0.000 NA
ATOM     19  C   UNL     1       7.884   5.350  13.240  0.00  0.00    +0.000 C 
ATOM     20  C   UNL     1       7.562   4.567  11.984  0.00  0.00    +0.000 C 
ATOM     21  C   UNL     1       6.438   3.532  12.067  0.00  0.00    +0.000 C 
ATOM     22  O   UNL     1       5.806   3.269  13.314  0.00  0.00    +0.000 OA
ENDBRANCH  13  14
ENDBRANCH   1  13
TORSDOF 5
ENDMDL
MODEL 5
REMARK VINA RESULT:      -7.0      1.891      3.005
REMARK  Name = 
REMARK  7 active torsions:
REMARK  status: ('A' for Active; 'I' for Inactive)
REMARK    1  A    between atoms: C_1  and  O_2
REMARK    2  A    between atoms: O_2  and  C_3
REMARK    3  A    between atoms: C_3  and  C_4
REMARK    4  A    between atoms: C_6  and  C_7
REMARK    5  A    between atoms: C_9  and  N_10
REMARK    6  A    between atoms: N_10  and  C_11
REMARK    7  A    between atoms: C_11  and  C_12
REMARK                            x       y       z     vdW  Elec       q    Type
REMARK                         _______ _______ _______ _____ _____    ______ ____
ROOT
ATOM      1  N   UNL     1       5.214   3.607  18.729  0.00  0.00    +0.000 N 
ATOM      2  H   UNL     1       5.551   2.703  19.038  0.00  0.00    +0.000 HD
ENDROOT
BRANCH   1   8
ATOM      3  C   UNL     1       2.599   5.725  19.903  0.00  0.00    +0.000 A 
ATOM      4  N   UNL     1       1.813   4.914  20.649  0.00  0.00    +0.000 NA
ATOM      5  C   UNL     1       2.201   3.642  20.753  0.00  0.00    +0.000 A 
ATOM      6  C   UNL     1       1.354   2.727  21.592  0.00  0.00    +0.000 C 
ATOM      7  C   UNL     1       3.339   3.156  20.137  0.00  0.00    +0.000 A 
ATOM      8  C   UNL     1       4.078   4.060  19.370  0.00  0.00    +0.000 A 
ATOM      9  N   UNL     1       3.697   5.322  19.234  0.00  0.00    +0.000 NA
BRANCH   3  10
ATOM     10  C   UNL     1       2.174   7.163  19.757  0.00  0.00    +0.000 C 
BRANCH  10  12
ATOM     11  C   UNL     1       0.898   8.887  20.737  0.00  0.00    +0.000 C 
ATOM     12  O   UNL     1       1.690   7.731  20.986  0.00  0.00    +0.000 OA
ENDBRANCH  10  12
ENDBRANCH   3  10
ENDBRANCH   1   8
BRANCH   1  13
ATOM     13  C   UNL     1       6.257   4.553  18.315  0.00  0.00    +0.000 C 
BRANCH  13  14
ATOM     14  C   UNL     1       6.500   4.566  16.821  0.00  0.00    +0.000 A 
ATOM     15  C   UNL     1       7.399   5.399  16.106  0.00  0.00    +0.000 A 
ATOM     16  C   UNL     1       7.251   5.052  14.784  0.00  0.00    +0.000 A 
ATOM     17  N   UNL     1       6.315   4.066  14.777  0.00  0.00    +0.000 N 
ATOM     18  N   UNL     1       5.830   3.745  15.991  0.00  0.00    +0.000 NA
ATOM     19  C   UNL     1       5.843   3.380  13.607  0.00  0.00    +0.000 C 
ATOM     20  C   UNL     1       6.484   3.867  12.323  0.00  0.00    +0.000 C 
ATOM     21  C   UNL     1       7.554   4.953  12.436  0.00  0.00    +0.000 C 
ATOM     22  O   UNL     1       7.844   5.535  13.701  0.00  0.00    +0.000 OA
ENDBRANCH  13  14
ENDBRANCH   1  13
TORSDOF 5
ENDMDL
MODEL 6
REMARK VINA RESULT:      -6.9      2.165      6.834
REMARK  Name = 
REMARK  7 active torsions:
REMARK  status: ('A' for Active; 'I' for Inactive)
REMARK    1  A    between atoms: C_1  and  O_2
REMARK    2  A    between atoms: O_2  and  C_3
REMARK    3  A    between atoms: C_3  and  C_4
REMARK    4  A    between atoms: C_6  and  C_7
REMARK    5  A    between atoms: C_9  and  N_10
REMARK    6  A    between atoms: N_10  and  C_11
REMARK    7  A    between atoms: C_11  and  C_12
REMARK                            x       y       z     vdW  Elec       q    Type
REMARK                         _______ _______ _______ _____ _____    ______ ____
ROOT
ATOM      1  N   UNL     1       5.099   4.034  18.958  0.00  0.00    +0.000 N 
ATOM      2  H   UNL     1       5.515   3.149  19.222  0.00  0.00    +0.000 HD
ENDROOT
BRANCH   1   8
ATOM      3  C   UNL     1       6.628   5.313  16.004  0.00  0.00    +0.000 A 
ATOM      4  N   UNL     1       7.360   6.369  16.430  0.00  0.00    +0.000 NA
ATOM      5  C   UNL     1       7.332   6.622  17.739  0.00  0.00    +0.000 A 
ATOM      6  C   UNL     1       8.154   7.777  18.238  0.00  0.00    +0.000 C 
ATOM      7  C   UNL     1       6.598   5.862  18.630  0.00  0.00    +0.000 A 
ATOM      8  C   UNL     1       5.855   4.806  18.099  0.00  0.00    +0.000 A 
ATOM      9  N   UNL     1       5.850   4.552  16.798  0.00  0.00    +0.000 NA
BRANCH   3  10
ATOM     10  C   UNL     1       6.630   5.015  14.527  0.00  0.00    +0.000 C 
BRANCH  10  12
ATOM     11  C   UNL     1       6.187   3.436  12.833  0.00  0.00    +0.000 C 
ATOM     12  O   UNL     1       6.339   3.638  14.233  0.00  0.00    +0.000 OA
ENDBRANCH  10  12
ENDBRANCH   3  10
ENDBRANCH   1   8
BRANCH   1  13
ATOM     13  C   UNL     1       3.635   4.026  18.851  0.00  0.00    +0.000 C 
BRANCH  13  14
ATOM     14  C   UNL     1       3.012   5.398  18.995  0.00  0.00    +0.000 A 
ATOM     15  C   UNL     1       2.836   6.371  17.978  0.00  0.00    +0.000 A 
ATOM     16  C   UNL     1       2.248   7.449  18.597  0.00  0.00    +0.000 A 
ATOM     17  N   UNL     1       2.102   7.078  19.896  0.00  0.00    +0.000 N 
ATOM     18  N   UNL     1       2.558   5.844  20.182  0.00  0.00    +0.000 NA
ATOM     19  C   UNL     1       1.515   7.887  20.928  0.00  0.00    +0.000 C 
ATOM     20  C   UNL     1       1.061   9.248  20.441  0.00  0.00    +0.000 C 
ATOM     21  C   UNL     1       1.232   9.560  18.954  0.00  0.00    +0.000 C 
ATOM     22  O   UNL     1       1.886   8.625  18.104  0.00  0.00    +0.000 OA
ENDBRANCH  13  14
ENDBRANCH   1  13
TORSDOF 5
ENDMDL
MODEL 7
REMARK VINA RESULT:      -6.9      1.549      6.856
REMARK  Name = 
REMARK  7 active torsions:
REMARK  status: ('A' for Active; 'I' for Inactive)
REMARK    1  A    between atoms: C_1  and  O_2
REMARK    2  A    between atoms: O_2  and  C_3
REMARK    3  A    between atoms: C_3  and  C_4
REMARK    4  A    between atoms: C_6  and  C_7
REMARK    5  A    between atoms: C_9  and  N_10
REMARK    6  A    between atoms: N_10  and  C_11
REMARK    7  A    between atoms: C_11  and  C_12
REMARK                            x       y       z     vdW  Elec       q    Type
REMARK                         _______ _______ _______ _____ _____    ______ ____
ROOT
ATOM      1  N   UNL     1       3.889   7.349  16.602  0.00  0.00    +0.000 N 
ATOM      2  H   UNL     1       3.816   8.075  15.899  0.00  0.00    +0.000 HD
ENDROOT
BRANCH   1   8
ATOM      3  C   UNL     1       6.645   5.350  15.551  0.00  0.00    +0.000 A 
ATOM      4  N   UNL     1       7.450   5.281  16.638  0.00  0.00    +0.000 NA
ATOM      5  C   UNL     1       7.026   5.914  17.733  0.00  0.00    +0.000 A 
ATOM      6  C   UNL     1       7.892   5.835  18.958  0.00  0.00    +0.000 C 
ATOM      7  C   UNL     1       5.833   6.613  17.776  0.00  0.00    +0.000 A 
ATOM      8  C   UNL     1       5.078   6.649  16.601  0.00  0.00    +0.000 A 
ATOM      9  N   UNL     1       5.494   6.047  15.496  0.00  0.00    +0.000 NA
BRANCH   3  10
ATOM     10  C   UNL     1       7.109   4.656  14.298  0.00  0.00    +0.000 C 
BRANCH  10  12
ATOM     11  C   UNL     1       6.197   3.493  12.461  0.00  0.00    +0.000 C 
ATOM     12  O   UNL     1       6.222   3.605  13.879  0.00  0.00    +0.000 OA
ENDBRANCH  10  12
ENDBRANCH   3  10
ENDBRANCH   1   8
BRANCH   1  13
ATOM     13  C   UNL     1       3.200   7.634  17.867  0.00  0.00    +0.000 C 
BRANCH  13  14
ATOM     14  C   UNL     1       2.684   6.395  18.565  0.00  0.00    +0.000 A 
ATOM     15  C   UNL     1       2.642   6.153  19.962  0.00  0.00    +0.000 A 
ATOM     16  C   UNL     1       2.111   4.892  20.102  0.00  0.00    +0.000 A 
ATOM     17  N   UNL     1       1.867   4.465  18.835  0.00  0.00    +0.000 N 
ATOM     18  N   UNL     1       2.206   5.344  17.873  0.00  0.00    +0.000 NA
ATOM     19  C   UNL     1       1.295   3.196  18.485  0.00  0.00    +0.000 C 
ATOM     20  C   UNL     1       0.979   2.325  19.683  0.00  0.00    +0.000 C 
ATOM     21  C   UNL     1       1.253   2.907  21.071  0.00  0.00    +0.000 C 
ATOM     22  O   UNL     1       1.872   4.182  21.196  0.00  0.00    +0.000 OA
ENDBRANCH  13  14
ENDBRANCH   1  13
TORSDOF 5
ENDMDL
MODEL 8
REMARK VINA RESULT:      -6.8      2.921      7.657
REMARK  Name = 
REMARK  7 active torsions:
REMARK  status: ('A' for Active; 'I' for Inactive)
REMARK    1  A    between atoms: C_1  and  O_2
REMARK    2  A    between atoms: O_2  and  C_3
REMARK    3  A    between atoms: C_3  and  C_4
REMARK    4  A    between atoms: C_6  and  C_7
REMARK    5  A    between atoms: C_9  and  N_10
REMARK    6  A    between atoms: N_10  and  C_11
REMARK    7  A    between atoms: C_11  and  C_12
REMARK                            x       y       z     vdW  Elec       q    Type
REMARK                         _______ _______ _______ _____ _____    ______ ____
ROOT
ATOM      1  N   UNL     1       3.425   5.661  17.631  0.00  0.00    +0.000 N 
ATOM      2  H   UNL     1       2.674   5.870  16.984  0.00  0.00    +0.000 HD
ENDROOT
BRANCH   1   8
ATOM      3  C   UNL     1       6.324   5.114  15.631  0.00  0.00    +0.000 A 
ATOM      4  N   UNL     1       7.227   6.014  16.087  0.00  0.00    +0.000 NA
ATOM      5  C   UNL     1       6.832   6.794  17.094  0.00  0.00    +0.000 A 
ATOM      6  C   UNL     1       7.824   7.788  17.630  0.00  0.00    +0.000 C 
ATOM      7  C   UNL     1       5.570   6.708  17.654  0.00  0.00    +0.000 A 
ATOM      8  C   UNL     1       4.698   5.766  17.106  0.00  0.00    +0.000 A 
ATOM      9  N   UNL     1       5.063   4.997  16.090  0.00  0.00    +0.000 NA
BRANCH   3  10
ATOM     10  C   UNL     1       6.740   4.231  14.484  0.00  0.00    +0.000 C 
BRANCH  10  12
ATOM     11  C   UNL     1       6.156   3.397  12.357  0.00  0.00    +0.000 C 
ATOM     12  O   UNL     1       5.665   3.957  13.569  0.00  0.00    +0.000 OA
ENDBRANCH  10  12
ENDBRANCH   3  10
ENDBRANCH   1   8
BRANCH   1  13
ATOM     13  C   UNL     1       3.168   6.034  19.027  0.00  0.00    +0.000 C 
BRANCH  13  14
ATOM     14  C   UNL     1       2.377   7.316  19.173  0.00  0.00    +0.000 A 
ATOM     15  C   UNL     1       2.104   8.275  18.163  0.00  0.00    +0.000 A 
ATOM     16  C   UNL     1       1.372   9.262  18.781  0.00  0.00    +0.000 A 
ATOM     17  N   UNL     1       1.244   8.856  20.071  0.00  0.00    +0.000 N 
ATOM     18  N   UNL     1       1.843   7.684  20.353  0.00  0.00    +0.000 NA
ATOM     19  C   UNL     1       0.537   9.570  21.098  0.00  0.00    +0.000 C 
ATOM     20  C   UNL     1      -0.071  10.872  20.617  0.00  0.00    +0.000 C 
ATOM     21  C   UNL     1       0.094  11.224  19.138  0.00  0.00    +0.000 C 
ATOM     22  O   UNL     1       0.878  10.391  18.293  0.00  0.00    +0.000 OA
ENDBRANCH  13  14
ENDBRANCH   1  13
TORSDOF 5
ENDMDL
MODEL 9
REMARK VINA RESULT:      -6.8      1.633      6.984
REMARK  Name = 
REMARK  7 active torsions:
REMARK  status: ('A' for Active; 'I' for Inactive)
REMARK    1  A    between atoms: C_1  and  O_2
REMARK    2  A    between atoms: O_2  and  C_3
REMARK    3  A    between atoms: C_3  and  C_4
REMARK    4  A    between atoms: C_6  and  C_7
REMARK    5  A    between atoms: C_9  and  N_10
REMARK    6  A    between atoms: N_10  and  C_11
REMARK    7  A    between atoms: C_11  and  C_12
REMARK                            x       y       z     vdW  Elec       q    Type
REMARK                         _______ _______ _______ _____ _____    ______ ____
ROOT
ATOM      1  N   UNL     1       3.980   7.363  16.708  0.00  0.00    +0.000 N 
ATOM      2  H   UNL     1       3.972   8.156  16.078  0.00  0.00    +0.000 HD
ENDROOT
BRANCH   1   8
ATOM      3  C   UNL     1       6.649   5.245  15.664  0.00  0.00    +0.000 A 
ATOM      4  N   UNL     1       7.469   5.177  16.739  0.00  0.00    +0.000 NA
ATOM      5  C   UNL     1       7.086   5.852  17.823  0.00  0.00    +0.000 A 
ATOM      6  C   UNL     1       7.970   5.774  19.036  0.00  0.00    +0.000 C 
ATOM      7  C   UNL     1       5.918   6.592  17.868  0.00  0.00    +0.000 A 
ATOM      8  C   UNL     1       5.145   6.623  16.705  0.00  0.00    +0.000 A 
ATOM      9  N   UNL     1       5.521   5.979  15.610  0.00  0.00    +0.000 NA
BRANCH   3  10
ATOM     10  C   UNL     1       7.068   4.505  14.422  0.00  0.00    +0.000 C 
BRANCH  10  12
ATOM     11  C   UNL     1       7.449   4.786  12.112  0.00  0.00    +0.000 C 
ATOM     12  O   UNL     1       7.588   5.373  13.400  0.00  0.00    +0.000 OA
ENDBRANCH  10  12
ENDBRANCH   3  10
ENDBRANCH   1   8
BRANCH   1  13
ATOM     13  C   UNL     1       3.223   7.547  17.953  0.00  0.00    +0.000 C 
BRANCH  13  14
ATOM     14  C   UNL     1       2.689   6.255  18.531  0.00  0.00    +0.000 A 
ATOM     15  C   UNL     1       2.063   5.194  17.827  0.00  0.00    +0.000 A 
ATOM     16  C   UNL     1       1.741   4.258  18.781  0.00  0.00    +0.000 A 
ATOM     17  N   UNL     1       2.178   4.782  19.956  0.00  0.00    +0.000 N 
ATOM     18  N   UNL     1       2.754   5.994  19.851  0.00  0.00    +0.000 NA
ATOM     19  C   UNL     1       2.069   4.144  21.239  0.00  0.00    +0.000 C 
ATOM     20  C   UNL     1       1.390   2.791  21.184  0.00  0.00    +0.000 C 
ATOM     21  C   UNL     1       0.967   2.269  19.810  0.00  0.00    +0.000 C 
ATOM     22  O   UNL     1       1.129   3.088  18.659  0.00  0.00    +0.000 OA
ENDBRANCH  13  14
ENDBRANCH   1  13
TORSDOF 5
ENDMDL
