MODEL 1
REMARK VINA RESULT:      -7.1      0.000      0.000
REMARK  Name = 
REMARK  13 active torsions:
REMARK  status: ('A' for Active; 'I' for Inactive)
REMARK    1  A    between atoms: C_1  and  O_2
REMARK    2  A    between atoms: O_2  and  C_3
REMARK    3  A    between atoms: C_6  and  C_7
REMARK    4  A    between atoms: C_7  and  S_8
REMARK    5  A    between atoms: C_7  and  C_21
REMARK    6  A    between atoms: S_8  and  C_9
REMARK    7  A    between atoms: C_9  and  C_10
REMARK    8  A    between atoms: C_10  and  C_11
REMARK    9  A    between atoms: C_11  and  N_12
REMARK   10  A    between atoms: C_16  and  C_17
REMARK   11  A    between atoms: C_17  and  O_19
REMARK   12  A    between atoms: C_24  and  O_25
REMARK   13  A    between atoms: O_25  and  C_26
REMARK                            x       y       z     vdW  Elec       q    Type
REMARK                         _______ _______ _______ _____ _____    ______ ____
ROOT
ATOM      1  C   UNL     1       5.651   6.389  16.789  0.00  0.00    +0.000 C 
ENDROOT
BRANCH   1   5
ATOM      2  C   UNL     1       3.021   5.061  20.009  0.00  0.00    +0.000 A 
ATOM      3  C   UNL     1       2.674   6.167  19.222  0.00  0.00    +0.000 A 
ATOM      4  C   UNL     1       3.472   6.553  18.161  0.00  0.00    +0.000 A 
ATOM      5  C   UNL     1       4.672   5.875  17.857  0.00  0.00    +0.000 A 
ATOM      6  C   UNL     1       4.962   4.705  18.590  0.00  0.00    +0.000 A 
ATOM      7  C   UNL     1       4.151   4.307  19.660  0.00  0.00    +0.000 A 
BRANCH   2   9
ATOM      8  C   UNL     1       2.226   3.433  21.615  0.00  0.00    +0.000 C 
ATOM      9  O   UNL     1       2.304   4.719  21.109  0.00  0.00    +0.000 OA
ENDBRANCH   2   9
ENDBRANCH   1   5
BRANCH   1  10
ATOM     10  C   UNL     1       5.863   5.488  15.570  0.00  0.00    +0.000 A 
ATOM     11  C   UNL     1       4.868   4.621  15.065  0.00  0.00    +0.000 A 
ATOM     12  C   UNL     1       5.109   3.833  13.942  0.00  0.00    +0.000 A 
ATOM     13  C   UNL     1       6.358   3.859  13.300  0.00  0.00    +0.000 A 
ATOM     14  C   UNL     1       7.359   4.699  13.799  0.00  0.00    +0.000 A 
ATOM     15  C   UNL     1       7.112   5.513  14.913  0.00  0.00    +0.000 A 
BRANCH  13  16
ATOM     16  O   UNL     1       6.629   3.092  12.212  0.00  0.00    +0.000 OA
ATOM     17  C   UNL     1       5.690   2.381  11.491  0.00  0.00    +0.000 C 
ENDBRANCH  13  16
ENDBRANCH   1  10
BRANCH   1  18
ATOM     18  S   UNL     1       7.316   6.793  17.472  0.00  0.00    +0.000 S 
BRANCH  18  19
ATOM     19  C   UNL     1       7.144   8.627  17.674  0.00  0.00    +0.000 C 
BRANCH  19  20
ATOM     20  C   UNL     1       8.562   9.176  17.733  0.00  0.00    +0.000 C 
BRANCH  20  21
ATOM     21  C   UNL     1       8.969   9.728  19.119  0.00  0.00    +0.000 C 
BRANCH  21  22
ATOM     22  N   UNL     1       9.256  11.188  19.111  0.00  0.00    +0.000 NA
ATOM     23  C   UNL     1       9.737  11.663  20.427  0.00  0.00    +0.000 C 
ATOM     24  C   UNL     1       9.877  13.186  20.437  0.00  0.00    +0.000 C 
ATOM     25  C   UNL     1      10.847  13.617  19.336  0.00  0.00    +0.000 C 
ATOM     26  C   UNL     1      10.327  13.127  17.977  0.00  0.00    +0.000 C 
ATOM     27  C   UNL     1      10.159  11.593  18.009  0.00  0.00    +0.000 C 
BRANCH  26  28
ATOM     28  C   UNL     1      11.273  13.538  16.869  0.00  0.00    +0.000 C 
ATOM     29  O   UNL     1      12.310  12.920  16.686  0.00  0.00    +0.000 OA
BRANCH  28  30
ATOM     30  O   UNL     1      10.990  14.594  16.074  0.00  0.00    +0.000 OA
ATOM     31  H   UNL     1      11.385  14.695  15.198  0.00  0.00    +0.000 HD
ENDBRANCH  28  30
ENDBRANCH  26  28
ENDBRANCH  21  22
ENDBRANCH  20  21
ENDBRANCH  19  20
ENDBRANCH  18  19
ENDBRANCH   1  18
TORSDOF 11
ENDMDL
MODEL 2
REMARK VINA RESULT:      -7.0      2.143      2.790
REMARK  Name = 
REMARK  13 active torsions:
REMARK  status: ('A' for Active; 'I' for Inactive)
REMARK    1  A    between atoms: C_1  and  O_2
REMARK    2  A    between atoms: O_2  and  C_3
REMARK    3  A    between atoms: C_6  and  C_7
REMARK    4  A    between atoms: C_7  and  S_8
REMARK    5  A    between atoms: C_7  and  C_21
REMARK    6  A    between atoms: S_8  and  C_9
REMARK    7  A    between atoms: C_9  and  C_10
REMARK    8  A    between atoms: C_10  and  C_11
REMARK    9  A    between atoms: C_11  and  N_12
REMARK   10  A    between atoms: C_16  and  C_17
REMARK   11  A    between atoms: C_17  and  O_19
REMARK   12  A    between atoms: C_24  and  O_25
REMARK   13  A    between atoms: O_25  and  C_26
REMARK                            x       y       z     vdW  Elec       q    Type
REMARK                         _______ _______ _______ _____ _____    ______ ____
ROOT
ATOM      1  C   UNL     1       5.803   6.463  17.131  0.00  0.00    +0.000 C 
ENDROOT
BRANCH   1   5
ATOM      2  C   UNL     1       2.982   4.995  20.121  0.00  0.00    +0.000 A 
ATOM      3  C   UNL     1       2.653   6.092  19.314  0.00  0.00    +0.000 A 
ATOM      4  C   UNL     1       3.516   6.521  18.323  0.00  0.00    +0.000 A 
ATOM      5  C   UNL     1       4.764   5.898  18.114  0.00  0.00    +0.000 A 
ATOM      6  C   UNL     1       5.045   4.735  18.862  0.00  0.00    +0.000 A 
ATOM      7  C   UNL     1       4.168   4.293  19.860  0.00  0.00    +0.000 A 
BRANCH   2   9
ATOM      8  C   UNL     1       1.961   3.295  21.510  0.00  0.00    +0.000 C 
ATOM      9  O   UNL     1       2.195   4.613  21.157  0.00  0.00    +0.000 OA
ENDBRANCH   2   9
ENDBRANCH   1   5
BRANCH   1  10
ATOM     10  C   UNL     1       6.050   5.648  15.859  0.00  0.00    +0.000 A 
ATOM     11  C   UNL     1       7.313   5.554  15.232  0.00  0.00    +0.000 A 
ATOM     12  C   UNL     1       7.485   4.785  14.083  0.00  0.00    +0.000 A 
ATOM     13  C   UNL     1       6.400   4.108  13.501  0.00  0.00    +0.000 A 
ATOM     14  C   UNL     1       5.140   4.207  14.100  0.00  0.00    +0.000 A 
ATOM     15  C   UNL     1       4.967   4.958  15.271  0.00  0.00    +0.000 A 
BRANCH  13  16
ATOM     16  O   UNL     1       6.532   3.363  12.374  0.00  0.00    +0.000 OA
ATOM     17  C   UNL     1       5.548   2.556  11.839  0.00  0.00    +0.000 C 
ENDBRANCH  13  16
ENDBRANCH   1  10
BRANCH   1  18
ATOM     18  S   UNL     1       7.445   6.770  17.915  0.00  0.00    +0.000 S 
BRANCH  18  19
ATOM     19  C   UNL     1       7.594   8.596  17.642  0.00  0.00    +0.000 C 
BRANCH  19  20
ATOM     20  C   UNL     1       8.625   9.087  18.649  0.00  0.00    +0.000 C 
BRANCH  20  21
ATOM     21  C   UNL     1       9.460  10.293  18.160  0.00  0.00    +0.000 C 
BRANCH  21  22
ATOM     22  N   UNL     1       9.975  11.141  19.270  0.00  0.00    +0.000 NA
ATOM     23  C   UNL     1      10.397  12.477  18.793  0.00  0.00    +0.000 C 
ATOM     24  C   UNL     1      11.061  13.271  19.919  0.00  0.00    +0.000 C 
ATOM     25  C   UNL     1      10.086  13.414  21.087  0.00  0.00    +0.000 C 
ATOM     26  C   UNL     1       9.668  12.020  21.578  0.00  0.00    +0.000 C 
ATOM     27  C   UNL     1       9.036  11.229  20.413  0.00  0.00    +0.000 C 
BRANCH  26  28
ATOM     28  C   UNL     1       8.697  12.135  22.734  0.00  0.00    +0.000 C 
ATOM     29  O   UNL     1       8.100  13.182  22.932  0.00  0.00    +0.000 OA
BRANCH  28  30
ATOM     30  O   UNL     1       8.482  11.089  23.563  0.00  0.00    +0.000 OA
ATOM     31  H   UNL     1       7.929  11.168  24.351  0.00  0.00    +0.000 HD
ENDBRANCH  28  30
ENDBRANCH  26  28
ENDBRANCH  21  22
ENDBRANCH  20  21
ENDBRANCH  19  20
ENDBRANCH  18  19
ENDBRANCH   1  18
TORSDOF 11
ENDMDL
MODEL 3
REMARK VINA RESULT:      -7.0      1.853      2.231
REMARK  Name = 
REMARK  13 active torsions:
REMARK  status: ('A' for Active; 'I' for Inactive)
REMARK    1  A    between atoms: C_1  and  O_2
REMARK    2  A    between atoms: O_2  and  C_3
REMARK    3  A    between atoms: C_6  and  C_7
REMARK    4  A    between atoms: C_7  and  S_8
REMARK    5  A    between atoms: C_7  and  C_21
REMARK    6  A    between atoms: S_8  and  C_9
REMARK    7  A    between atoms: C_9  and  C_10
REMARK    8  A    between atoms: C_10  and  C_11
REMARK    9  A    between atoms: C_11  and  N_12
REMARK   10  A    between atoms: C_16  and  C_17
REMARK   11  A    between atoms: C_17  and  O_19
REMARK   12  A    between atoms: C_24  and  O_25
REMARK   13  A    between atoms: O_25  and  C_26
REMARK                            x       y       z     vdW  Elec       q    Type
REMARK                         _______ _______ _______ _____ _____    ______ ____
ROOT
ATOM      1  C   UNL     1       5.591   6.003  17.303  0.00  0.00    +0.000 C 
ENDROOT
BRANCH   1   5
ATOM      2  C   UNL     1       3.100   4.104  20.343  0.00  0.00    +0.000 A 
ATOM      3  C   UNL     1       2.764   5.367  19.838  0.00  0.00    +0.000 A 
ATOM      4  C   UNL     1       3.514   5.945  18.831  0.00  0.00    +0.000 A 
ATOM      5  C   UNL     1       4.655   5.305  18.303  0.00  0.00    +0.000 A 
ATOM      6  C   UNL     1       4.928   3.993  18.744  0.00  0.00    +0.000 A 
ATOM      7  C   UNL     1       4.165   3.402  19.759  0.00  0.00    +0.000 A 
BRANCH   2   9
ATOM      8  C   UNL     1       1.397   2.652  21.265  0.00  0.00    +0.000 C 
ATOM      9  O   UNL     1       2.436   3.557  21.392  0.00  0.00    +0.000 OA
ENDBRANCH   2   9
ENDBRANCH   1   5
BRANCH   1  10
ATOM     10  C   UNL     1       5.820   5.285  15.970  0.00  0.00    +0.000 A 
ATOM     11  C   UNL     1       4.792   4.625  15.259  0.00  0.00    +0.000 A 
ATOM     12  C   UNL     1       5.053   4.000  14.042  0.00  0.00    +0.000 A 
ATOM     13  C   UNL     1       6.350   3.986  13.504  0.00  0.00    +0.000 A 
ATOM     14  C   UNL     1       7.381   4.619  14.205  0.00  0.00    +0.000 A 
ATOM     15  C   UNL     1       7.119   5.271  15.418  0.00  0.00    +0.000 A 
BRANCH  13  16
ATOM     16  O   UNL     1       6.639   3.373  12.327  0.00  0.00    +0.000 OA
ATOM     17  C   UNL     1       5.887   2.367  11.753  0.00  0.00    +0.000 C 
ENDBRANCH  13  16
ENDBRANCH   1  10
BRANCH   1  18
ATOM     18  S   UNL     1       7.250   6.385  18.014  0.00  0.00    +0.000 S 
BRANCH  18  19
ATOM     19  C   UNL     1       7.427   8.151  17.485  0.00  0.00    +0.000 C 
BRANCH  19  20
ATOM     20  C   UNL     1       8.483   8.758  18.397  0.00  0.00    +0.000 C 
BRANCH  20  21
ATOM     21  C   UNL     1       8.828  10.231  18.073  0.00  0.00    +0.000 C 
BRANCH  21  22
ATOM     22  N   UNL     1       9.808  10.828  19.020  0.00  0.00    +0.000 NA
ATOM     23  C   UNL     1      11.031  11.292  18.328  0.00  0.00    +0.000 C 
ATOM     24  C   UNL     1      12.082  11.759  19.337  0.00  0.00    +0.000 C 
ATOM     25  C   UNL     1      11.502  12.886  20.192  0.00  0.00    +0.000 C 
ATOM     26  C   UNL     1      10.242  12.385  20.912  0.00  0.00    +0.000 C 
ATOM     27  C   UNL     1       9.216  11.885  19.873  0.00  0.00    +0.000 C 
BRANCH  26  28
ATOM     28  C   UNL     1       9.647  13.485  21.764  0.00  0.00    +0.000 C 
ATOM     29  O   UNL     1       8.546  13.341  22.274  0.00  0.00    +0.000 OA
BRANCH  28  30
ATOM     30  O   UNL     1      10.317  14.642  21.967  0.00  0.00    +0.000 OA
ATOM     31  H   UNL     1       9.859  15.486  22.072  0.00  0.00    +0.000 HD
ENDBRANCH  28  30
ENDBRANCH  26  28
ENDBRANCH  21  22
ENDBRANCH  20  21
ENDBRANCH  19  20
ENDBRANCH  18  19
ENDBRANCH   1  18
TORSDOF 11
ENDMDL
MODEL 4
REMARK VINA RESULT:      -6.9      0.754      5.122
REMARK  Name = 
REMARK  13 active torsions:
REMARK  status: ('A' for Active; 'I' for Inactive)
REMARK    1  A    between atoms: C_1  and  O_2
REMARK    2  A    between atoms: O_2  and  C_3
REMARK    3  A    between atoms: C_6  and  C_7
REMARK    4  A    between atoms: C_7  and  S_8
REMARK    5  A    between atoms: C_7  and  C_21
REMARK    6  A    between atoms: S_8  and  C_9
REMARK    7  A    between atoms: C_9  and  C_10
REMARK    8  A    between atoms: C_10  and  C_11
REMARK    9  A    between atoms: C_11  and  N_12
REMARK   10  A    between atoms: C_16  and  C_17
REMARK   11  A    between atoms: C_17  and  O_19
REMARK   12  A    between atoms: C_24  and  O_25
REMARK   13  A    between atoms: O_25  and  C_26
REMARK                            x       y       z     vdW  Elec       q    Type
REMARK                         _______ _______ _______ _____ _____    ______ ____
ROOT
ATOM      1  C   UNL     1       6.637   5.742  17.054  0.00  0.00    +0.000 C 
ENDROOT
BRANCH   1   5
ATOM      2  C   UNL     1       6.241   3.892  13.120  0.00  0.00    +0.000 A 
ATOM      3  C   UNL     1       7.308   4.758  13.392  0.00  0.00    +0.000 A 
ATOM      4  C   UNL     1       7.473   5.297  14.654  0.00  0.00    +0.000 A 
ATOM      5  C   UNL     1       6.562   5.024  15.696  0.00  0.00    +0.000 A 
ATOM      6  C   UNL     1       5.549   4.075  15.444  0.00  0.00    +0.000 A 
ATOM      7  C   UNL     1       5.385   3.521  14.168  0.00  0.00    +0.000 A 
BRANCH   2   9
ATOM      8  C   UNL     1       4.743   3.217  11.342  0.00  0.00    +0.000 C 
ATOM      9  O   UNL     1       6.006   3.424  11.869  0.00  0.00    +0.000 OA
ENDBRANCH   2   9
ENDBRANCH   1   5
BRANCH   1  10
ATOM     10  C   UNL     1       5.492   5.470  18.032  0.00  0.00    +0.000 A 
ATOM     11  C   UNL     1       4.336   6.279  18.116  0.00  0.00    +0.000 A 
ATOM     12  C   UNL     1       3.316   5.976  19.014  0.00  0.00    +0.000 A 
ATOM     13  C   UNL     1       3.422   4.876  19.880  0.00  0.00    +0.000 A 
ATOM     14  C   UNL     1       4.568   4.076  19.821  0.00  0.00    +0.000 A 
ATOM     15  C   UNL     1       5.587   4.361  18.901  0.00  0.00    +0.000 A 
BRANCH  13  16
ATOM     16  O   UNL     1       2.452   4.563  20.777  0.00  0.00    +0.000 OA
ATOM     17  C   UNL     1       1.095   4.664  20.542  0.00  0.00    +0.000 C 
ENDBRANCH  13  16
ENDBRANCH   1  10
BRANCH   1  18
ATOM     18  S   UNL     1       6.801   7.573  16.893  0.00  0.00    +0.000 S 
BRANCH  18  19
ATOM     19  C   UNL     1       8.072   7.897  18.202  0.00  0.00    +0.000 C 
BRANCH  19  20
ATOM     20  C   UNL     1       8.430   9.372  18.081  0.00  0.00    +0.000 C 
BRANCH  20  21
ATOM     21  C   UNL     1       9.358   9.890  19.205  0.00  0.00    +0.000 C 
BRANCH  21  22
ATOM     22  N   UNL     1       9.557  11.364  19.170  0.00  0.00    +0.000 NA
ATOM     23  C   UNL     1      10.087  11.879  20.452  0.00  0.00    +0.000 C 
ATOM     24  C   UNL     1      10.138  13.408  20.444  0.00  0.00    +0.000 C 
ATOM     25  C   UNL     1      11.014  13.883  19.285  0.00  0.00    +0.000 C 
ATOM     26  C   UNL     1      10.444  13.351  17.962  0.00  0.00    +0.000 C 
ATOM     27  C   UNL     1      10.368  11.810  18.014  0.00  0.00    +0.000 C 
BRANCH  26  28
ATOM     28  C   UNL     1      11.297  13.806  16.797  0.00  0.00    +0.000 C 
ATOM     29  O   UNL     1      12.330  13.214  16.525  0.00  0.00    +0.000 OA
BRANCH  28  30
ATOM     30  O   UNL     1      10.934  14.871  16.048  0.00  0.00    +0.000 OA
ATOM     31  H   UNL     1      11.398  15.717  16.104  0.00  0.00    +0.000 HD
ENDBRANCH  28  30
ENDBRANCH  26  28
ENDBRANCH  21  22
ENDBRANCH  20  21
ENDBRANCH  19  20
ENDBRANCH  18  19
ENDBRANCH   1  18
TORSDOF 11
ENDMDL
MODEL 5
REMARK VINA RESULT:      -6.9      6.696     11.669
REMARK  Name = 
REMARK  13 active torsions:
REMARK  status: ('A' for Active; 'I' for Inactive)
REMARK    1  A    between atoms: C_1  and  O_2
REMARK    2  A    between atoms: O_2  and  C_3
REMARK    3  A    between atoms: C_6  and  C_7
REMARK    4  A    between atoms: C_7  and  S_8
REMARK    5  A    between atoms: C_7  and  C_21
REMARK    6  A    between atoms: S_8  and  C_9
REMARK    7  A    between atoms: C_9  and  C_10
REMARK    8  A    between atoms: C_10  and  C_11
REMARK    9  A    between atoms: C_11  and  N_12
REMARK   10  A    between atoms: C_16  and  C_17
REMARK   11  A    between atoms: C_17  and  O_19
REMARK   12  A    between atoms: C_24  and  O_25
REMARK   13  A    between atoms: O_25  and  C_26
REMARK                            x       y       z     vdW  Elec       q    Type
REMARK                         _______ _______ _______ _____ _____    ______ ____
ROOT
ATOM      1  C   UNL     1      -0.454  10.691  19.708  0.00  0.00    +0.000 C 
ENDROOT
BRANCH   1   5
ATOM      2  C   UNL     1      -3.332  10.690  16.426  0.00  0.00    +0.000 A 
ATOM      3  C   UNL     1      -2.244   9.806  16.415  0.00  0.00    +0.000 A 
ATOM      4  C   UNL     1      -1.366   9.759  17.482  0.00  0.00    +0.000 A 
ATOM      5  C   UNL     1      -1.511  10.615  18.594  0.00  0.00    +0.000 A 
ATOM      6  C   UNL     1      -2.662  11.430  18.642  0.00  0.00    +0.000 A 
ATOM      7  C   UNL     1      -3.558  11.473  17.567  0.00  0.00    +0.000 A 
BRANCH   2   9
ATOM      8  C   UNL     1      -3.948  10.190  14.138  0.00  0.00    +0.000 C 
ATOM      9  O   UNL     1      -4.153  10.819  15.354  0.00  0.00    +0.000 OA
ENDBRANCH   2   9
ENDBRANCH   1   5
BRANCH   1  10
ATOM     10  C   UNL     1      -0.542  11.895  20.648  0.00  0.00    +0.000 A 
ATOM     11  C   UNL     1      -0.097  13.189  20.294  0.00  0.00    +0.000 A 
ATOM     12  C   UNL     1      -0.215  14.254  21.184  0.00  0.00    +0.000 A 
ATOM     13  C   UNL     1      -0.753  14.063  22.467  0.00  0.00    +0.000 A 
ATOM     14  C   UNL     1      -1.181  12.785  22.839  0.00  0.00    +0.000 A 
ATOM     15  C   UNL     1      -1.089  11.715  21.938  0.00  0.00    +0.000 A 
BRANCH  13  16
ATOM     16  O   UNL     1      -0.868  15.078  23.362  0.00  0.00    +0.000 OA
ATOM     17  C   UNL     1      -1.457  14.973  24.606  0.00  0.00    +0.000 C 
ENDBRANCH  13  16
ENDBRANCH   1  10
BRANCH   1  18
ATOM     18  S   UNL     1       1.274  10.615  19.068  0.00  0.00    +0.000 S 
BRANCH  18  19
ATOM     19  C   UNL     1       1.639   8.820  19.340  0.00  0.00    +0.000 C 
BRANCH  19  20
ATOM     20  C   UNL     1       2.030   8.262  17.978  0.00  0.00    +0.000 C 
BRANCH  20  21
ATOM     21  C   UNL     1       3.336   7.433  17.987  0.00  0.00    +0.000 C 
BRANCH  21  22
ATOM     22  N   UNL     1       3.128   6.004  17.628  0.00  0.00    +0.000 NA
ATOM     23  C   UNL     1       4.406   5.319  17.334  0.00  0.00    +0.000 C 
ATOM     24  C   UNL     1       4.156   3.899  16.821  0.00  0.00    +0.000 C 
ATOM     25  C   UNL     1       3.365   3.111  17.866  0.00  0.00    +0.000 C 
ATOM     26  C   UNL     1       2.038   3.829  18.151  0.00  0.00    +0.000 C 
ATOM     27  C   UNL     1       2.320   5.269  18.628  0.00  0.00    +0.000 C 
BRANCH  26  28
ATOM     28  C   UNL     1       1.237   3.069  19.186  0.00  0.00    +0.000 C 
ATOM     29  O   UNL     1       1.222   1.848  19.176  0.00  0.00    +0.000 OA
BRANCH  28  30
ATOM     30  O   UNL     1       0.526   3.727  20.129  0.00  0.00    +0.000 OA
ATOM     31  H   UNL     1       0.648   3.556  21.073  0.00  0.00    +0.000 HD
ENDBRANCH  28  30
ENDBRANCH  26  28
ENDBRANCH  21  22
ENDBRANCH  20  21
ENDBRANCH  19  20
ENDBRANCH  18  19
ENDBRANCH   1  18
TORSDOF 11
ENDMDL
MODEL 6
REMARK VINA RESULT:      -6.8      7.881     10.899
REMARK  Name = 
REMARK  13 active torsions:
REMARK  status: ('A' for Active; 'I' for Inactive)
REMARK    1  A    between atoms: C_1  and  O_2
REMARK    2  A    between atoms: O_2  and  C_3
REMARK    3  A    between atoms: C_6  and  C_7
REMARK    4  A    between atoms: C_7  and  S_8
REMARK    5  A    between atoms: C_7  and  C_21
REMARK    6  A    between atoms: S_8  and  C_9
REMARK    7  A    between atoms: C_9  and  C_10
REMARK    8  A    between atoms: C_10  and  C_11
REMARK    9  A    between atoms: C_11  and  N_12
REMARK   10  A    between atoms: C_16  and  C_17
REMARK   11  A    between atoms: C_17  and  O_19
REMARK   12  A    between atoms: C_24  and  O_25
REMARK   13  A    between atoms: O_25  and  C_26
REMARK                            x       y       z     vdW  Elec       q    Type
REMARK                         _______ _______ _______ _____ _____    ______ ____
ROOT
ATOM      1  C   UNL     1       0.539  10.843  19.020  0.00  0.00    +0.000 C 
ENDROOT
BRANCH   1   5
ATOM      2  C   UNL     1      -3.581  11.016  17.587  0.00  0.00    +0.000 A 
ATOM      3  C   UNL     1      -2.688  10.070  17.065  0.00  0.00    +0.000 A 
ATOM      4  C   UNL     1      -1.401   9.970  17.560  0.00  0.00    +0.000 A 
ATOM      5  C   UNL     1      -0.933  10.831  18.575  0.00  0.00    +0.000 A 
ATOM      6  C   UNL     1      -1.866  11.711  19.163  0.00  0.00    +0.000 A 
ATOM      7  C   UNL     1      -3.173  11.808  18.670  0.00  0.00    +0.000 A 
BRANCH   2   9
ATOM      8  C   UNL     1      -5.678  12.214  17.424  0.00  0.00    +0.000 C 
ATOM      9  O   UNL     1      -4.817  11.195  17.057  0.00  0.00    +0.000 OA
ENDBRANCH   2   9
ENDBRANCH   1   5
BRANCH   1  10
ATOM     10  C   UNL     1       1.252   9.489  19.049  0.00  0.00    +0.000 A 
ATOM     11  C   UNL     1       1.950   8.957  17.942  0.00  0.00    +0.000 A 
ATOM     12  C   UNL     1       2.595   7.726  18.028  0.00  0.00    +0.000 A 
ATOM     13  C   UNL     1       2.543   6.967  19.209  0.00  0.00    +0.000 A 
ATOM     14  C   UNL     1       1.840   7.472  20.307  0.00  0.00    +0.000 A 
ATOM     15  C   UNL     1       1.211   8.723  20.234  0.00  0.00    +0.000 A 
BRANCH  13  16
ATOM     16  O   UNL     1       3.149   5.757  19.320  0.00  0.00    +0.000 OA
ATOM     17  C   UNL     1       2.795   4.775  20.224  0.00  0.00    +0.000 C 
ENDBRANCH  13  16
ENDBRANCH   1  10
BRANCH   1  18
ATOM     18  S   UNL     1       0.787  11.633  20.668  0.00  0.00    +0.000 S 
BRANCH  18  19
ATOM     19  C   UNL     1       1.714  13.153  20.159  0.00  0.00    +0.000 C 
BRANCH  19  20
ATOM     20  C   UNL     1       0.798  14.327  20.477  0.00  0.00    +0.000 C 
BRANCH  20  21
ATOM     21  C   UNL     1       0.239  14.320  21.919  0.00  0.00    +0.000 C 
BRANCH  21  22
ATOM     22  N   UNL     1      -1.218  14.618  21.986  0.00  0.00    +0.000 NA
ATOM     23  C   UNL     1      -1.729  15.158  20.707  0.00  0.00    +0.000 C 
ATOM     24  C   UNL     1      -3.187  15.599  20.847  0.00  0.00    +0.000 C 
ATOM     25  C   UNL     1      -4.039  14.410  21.293  0.00  0.00    +0.000 C 
ATOM     26  C   UNL     1      -3.503  13.869  22.626  0.00  0.00    +0.000 C 
ATOM     27  C   UNL     1      -2.021  13.469  22.465  0.00  0.00    +0.000 C 
BRANCH  26  28
ATOM     28  C   UNL     1      -4.328  12.687  23.088  0.00  0.00    +0.000 C 
ATOM     29  O   UNL     1      -5.355  12.387  22.498  0.00  0.00    +0.000 OA
BRANCH  28  30
ATOM     30  O   UNL     1      -3.947  11.953  24.157  0.00  0.00    +0.000 OA
ATOM     31  H   UNL     1      -3.195  11.347  24.119  0.00  0.00    +0.000 HD
ENDBRANCH  28  30
ENDBRANCH  26  28
ENDBRANCH  21  22
ENDBRANCH  20  21
ENDBRANCH  19  20
ENDBRANCH  18  19
ENDBRANCH   1  18
TORSDOF 11
ENDMDL
MODEL 7
REMARK VINA RESULT:      -6.8      6.345     10.084
REMARK  Name = 
REMARK  13 active torsions:
REMARK  status: ('A' for Active; 'I' for Inactive)
REMARK    1  A    between atoms: C_1  and  O_2
REMARK    2  A    between atoms: O_2  and  C_3
REMARK    3  A    between atoms: C_6  and  C_7
REMARK    4  A    between atoms: C_7  and  S_8
REMARK    5  A    between atoms: C_7  and  C_21
REMARK    6  A    between atoms: S_8  and  C_9
REMARK    7  A    between atoms: C_9  and  C_10
REMARK    8  A    between atoms: C_10  and  C_11
REMARK    9  A    between atoms: C_11  and  N_12
REMARK   10  A    between atoms: C_16  and  C_17
REMARK   11  A    between atoms: C_17  and  O_19
REMARK   12  A    between atoms: C_24  and  O_25
REMARK   13  A    between atoms: O_25  and  C_26
REMARK                            x       y       z     vdW  Elec       q    Type
REMARK                         _______ _______ _______ _____ _____    ______ ____
ROOT
ATOM      1  C   UNL     1       0.149  10.783  19.054  0.00  0.00    +0.000 C 
ENDROOT
BRANCH   1   5
ATOM      2  C   UNL     1      -4.057  11.033  17.914  0.00  0.00    +0.000 A 
ATOM      3  C   UNL     1      -3.533  11.899  18.882  0.00  0.00    +0.000 A 
ATOM      4  C   UNL     1      -2.188  11.867  19.201  0.00  0.00    +0.000 A 
ATOM      5  C   UNL     1      -1.310  10.944  18.594  0.00  0.00    +0.000 A 
ATOM      6  C   UNL     1      -1.824  10.145  17.551  0.00  0.00    +0.000 A 
ATOM      7  C   UNL     1      -3.184  10.182  17.220  0.00  0.00    +0.000 A 
BRANCH   2   9
ATOM      8  C   UNL     1      -6.188  12.100  17.486  0.00  0.00    +0.000 C 
ATOM      9  O   UNL     1      -5.387  10.983  17.650  0.00  0.00    +0.000 OA
ENDBRANCH   2   9
ENDBRANCH   1   5
BRANCH   1  10
ATOM     10  C   UNL     1       0.992  12.059  19.103  0.00  0.00    +0.000 A 
ATOM     11  C   UNL     1       0.691  13.155  19.944  0.00  0.00    +0.000 A 
ATOM     12  C   UNL     1       1.502  14.287  19.960  0.00  0.00    +0.000 A 
ATOM     13  C   UNL     1       2.623  14.381  19.119  0.00  0.00    +0.000 A 
ATOM     14  C   UNL     1       2.923  13.313  18.268  0.00  0.00    +0.000 A 
ATOM     15  C   UNL     1       2.125  12.160  18.267  0.00  0.00    +0.000 A 
BRANCH  13  16
ATOM     16  O   UNL     1       3.424  15.477  19.101  0.00  0.00    +0.000 OA
ATOM     17  C   UNL     1       2.991  16.771  18.888  0.00  0.00    +0.000 C 
ENDBRANCH  13  16
ENDBRANCH   1  10
BRANCH   1  18
ATOM     18  S   UNL     1       1.085   9.542  18.060  0.00  0.00    +0.000 S 
BRANCH  18  19
ATOM     19  C   UNL     1       1.755   8.480  19.423  0.00  0.00    +0.000 C 
BRANCH  19  20
ATOM     20  C   UNL     1       2.625   7.430  18.746  0.00  0.00    +0.000 C 
BRANCH  20  21
ATOM     21  C   UNL     1       2.898   6.180  19.614  0.00  0.00    +0.000 C 
BRANCH  21  22
ATOM     22  N   UNL     1       3.613   5.100  18.883  0.00  0.00    +0.000 NA
ATOM     23  C   UNL     1       2.877   4.674  17.672  0.00  0.00    +0.000 C 
ATOM     24  C   UNL     1       3.552   3.463  17.024  0.00  0.00    +0.000 C 
ATOM     25  C   UNL     1       4.995   3.815  16.664  0.00  0.00    +0.000 C 
ATOM     26  C   UNL     1       5.748   4.243  17.932  0.00  0.00    +0.000 C 
ATOM     27  C   UNL     1       5.024   5.440  18.585  0.00  0.00    +0.000 C 
BRANCH  26  28
ATOM     28  C   UNL     1       7.181   4.601  17.602  0.00  0.00    +0.000 C 
ATOM     29  O   UNL     1       8.031   4.607  18.478  0.00  0.00    +0.000 OA
BRANCH  28  30
ATOM     30  O   UNL     1       7.539   4.924  16.339  0.00  0.00    +0.000 OA
ATOM     31  H   UNL     1       8.432   4.767  16.005  0.00  0.00    +0.000 HD
ENDBRANCH  28  30
ENDBRANCH  26  28
ENDBRANCH  21  22
ENDBRANCH  20  21
ENDBRANCH  19  20
ENDBRANCH  18  19
ENDBRANCH   1  18
TORSDOF 11
ENDMDL
MODEL 8
REMARK VINA RESULT:      -6.8      6.340     10.945
REMARK  Name = 
REMARK  13 active torsions:
REMARK  status: ('A' for Active; 'I' for Inactive)
REMARK    1  A    between atoms: C_1  and  O_2
REMARK    2  A    between atoms: O_2  and  C_3
REMARK    3  A    between atoms: C_6  and  C_7
REMARK    4  A    between atoms: C_7  and  S_8
REMARK    5  A    between atoms: C_7  and  C_21
REMARK    6  A    between atoms: S_8  and  C_9
REMARK    7  A    between atoms: C_9  and  C_10
REMARK    8  A    between atoms: C_10  and  C_11
REMARK    9  A    between atoms: C_11  and  N_12
REMARK   10  A    between atoms: C_16  and  C_17
REMARK   11  A    between atoms: C_17  and  O_19
REMARK   12  A    between atoms: C_24  and  O_25
REMARK   13  A    between atoms: O_25  and  C_26
REMARK                            x       y       z     vdW  Elec       q    Type
REMARK                         _______ _______ _______ _____ _____    ______ ____
ROOT
ATOM      1  C   UNL     1      -0.415  10.883  19.705  0.00  0.00    +0.000 C 
ENDROOT
BRANCH   1   5
ATOM      2  C   UNL     1      -3.314  10.670  16.449  0.00  0.00    +0.000 A 
ATOM      3  C   UNL     1      -2.176   9.852  16.439  0.00  0.00    +0.000 A 
ATOM      4  C   UNL     1      -1.287   9.871  17.499  0.00  0.00    +0.000 A 
ATOM      5  C   UNL     1      -1.474  10.730  18.601  0.00  0.00    +0.000 A 
ATOM      6  C   UNL     1      -2.671  11.476  18.650  0.00  0.00    +0.000 A 
ATOM      7  C   UNL     1      -3.577  11.452  17.582  0.00  0.00    +0.000 A 
BRANCH   2   9
ATOM      8  C   UNL     1      -3.924  10.094  14.178  0.00  0.00    +0.000 C 
ATOM      9  O   UNL     1      -4.150  10.736  15.383  0.00  0.00    +0.000 OA
ENDBRANCH   2   9
ENDBRANCH   1   5
BRANCH   1  10
ATOM     10  C   UNL     1       0.390  12.184  19.700  0.00  0.00    +0.000 A 
ATOM     11  C   UNL     1       0.244  13.183  18.710  0.00  0.00    +0.000 A 
ATOM     12  C   UNL     1       0.992  14.356  18.762  0.00  0.00    +0.000 A 
ATOM     13  C   UNL     1       1.933  14.565  19.784  0.00  0.00    +0.000 A 
ATOM     14  C   UNL     1       2.102  13.578  20.761  0.00  0.00    +0.000 A 
ATOM     15  C   UNL     1       1.333  12.407  20.728  0.00  0.00    +0.000 A 
BRANCH  13  16
ATOM     16  O   UNL     1       2.688  15.692  19.854  0.00  0.00    +0.000 OA
ATOM     17  C   UNL     1       3.362  16.260  18.792  0.00  0.00    +0.000 C 
ENDBRANCH  13  16
ENDBRANCH   1  10
BRANCH   1  18
ATOM     18  S   UNL     1       0.792   9.488  19.744  0.00  0.00    +0.000 S 
BRANCH  18  19
ATOM     19  C   UNL     1       1.637   9.750  18.116  0.00  0.00    +0.000 C 
BRANCH  19  20
ATOM     20  C   UNL     1       2.702   8.666  18.019  0.00  0.00    +0.000 C 
BRANCH  20  21
ATOM     21  C   UNL     1       2.338   7.355  18.753  0.00  0.00    +0.000 C 
BRANCH  21  22
ATOM     22  N   UNL     1       2.672   6.132  17.974  0.00  0.00    +0.000 NA
ATOM     23  C   UNL     1       4.123   6.029  17.706  0.00  0.00    +0.000 C 
ATOM     24  C   UNL     1       4.422   4.851  16.777  0.00  0.00    +0.000 C 
ATOM     25  C   UNL     1       3.912   3.557  17.412  0.00  0.00    +0.000 C 
ATOM     26  C   UNL     1       2.403   3.676  17.673  0.00  0.00    +0.000 C 
ATOM     27  C   UNL     1       2.129   4.894  18.580  0.00  0.00    +0.000 C 
BRANCH  26  28
ATOM     28  C   UNL     1       1.874   2.408  18.306  0.00  0.00    +0.000 C 
ATOM     29  O   UNL     1       0.703   2.332  18.644  0.00  0.00    +0.000 OA
BRANCH  28  30
ATOM     30  O   UNL     1       2.686   1.347  18.513  0.00  0.00    +0.000 OA
ATOM     31  H   UNL     1       3.628   1.454  18.705  0.00  0.00    +0.000 HD
ENDBRANCH  28  30
ENDBRANCH  26  28
ENDBRANCH  21  22
ENDBRANCH  20  21
ENDBRANCH  19  20
ENDBRANCH  18  19
ENDBRANCH   1  18
TORSDOF 11
ENDMDL
MODEL 9
REMARK VINA RESULT:      -6.8      6.089      9.757
REMARK  Name = 
REMARK  13 active torsions:
REMARK  status: ('A' for Active; 'I' for Inactive)
REMARK    1  A    between atoms: C_1  and  O_2
REMARK    2  A    between atoms: O_2  and  C_3
REMARK    3  A    between atoms: C_6  and  C_7
REMARK    4  A    between atoms: C_7  and  S_8
REMARK    5  A    between atoms: C_7  and  C_21
REMARK    6  A    between atoms: S_8  and  C_9
REMARK    7  A    between atoms: C_9  and  C_10
REMARK    8  A    between atoms: C_10  and  C_11
REMARK    9  A    between atoms: C_11  and  N_12
REMARK   10  A    between atoms: C_16  and  C_17
REMARK   11  A    between atoms: C_17  and  O_19
REMARK   12  A    between atoms: C_24  and  O_25
REMARK   13  A    between atoms: O_25  and  C_26
REMARK                            x       y       z     vdW  Elec       q    Type
REMARK                         _______ _______ _______ _____ _____    ______ ____
ROOT
ATOM      1  C   UNL     1       0.436  10.292  19.068  0.00  0.00    +0.000 C 
ENDROOT
BRANCH   1   5
ATOM      2  C   UNL     1      -3.520  10.998  17.363  0.00  0.00    +0.000 A 
ATOM      3  C   UNL     1      -2.662  10.049  16.793  0.00  0.00    +0.000 A 
ATOM      4  C   UNL     1      -1.433   9.776  17.366  0.00  0.00    +0.000 A 
ATOM      5  C   UNL     1      -0.989  10.463  18.516  0.00  0.00    +0.000 A 
ATOM      6  C   UNL     1      -1.898  11.344  19.140  0.00  0.00    +0.000 A 
ATOM      7  C   UNL     1      -3.146  11.614  18.566  0.00  0.00    +0.000 A 
BRANCH   2   9
ATOM      8  C   UNL     1      -5.539  12.328  17.247  0.00  0.00    +0.000 C 
ATOM      9  O   UNL     1      -4.688  11.348  16.769  0.00  0.00    +0.000 OA
ENDBRANCH   2   9
ENDBRANCH   1   5
BRANCH   1  10
ATOM     10  C   UNL     1       1.223  11.578  19.330  0.00  0.00    +0.000 A 
ATOM     11  C   UNL     1       1.197  12.266  20.564  0.00  0.00    +0.000 A 
ATOM     12  C   UNL     1       1.945  13.424  20.753  0.00  0.00    +0.000 A 
ATOM     13  C   UNL     1       2.723  13.956  19.712  0.00  0.00    +0.000 A 
ATOM     14  C   UNL     1       2.745  13.297  18.478  0.00  0.00    +0.000 A 
ATOM     15  C   UNL     1       2.014  12.116  18.291  0.00  0.00    +0.000 A 
BRANCH  13  16
ATOM     16  O   UNL     1       3.453  15.092  19.860  0.00  0.00    +0.000 OA
ATOM     17  C   UNL     1       4.472  15.494  19.019  0.00  0.00    +0.000 C 
ENDBRANCH  13  16
ENDBRANCH   1  10
BRANCH   1  18
ATOM     18  S   UNL     1       1.491   9.204  18.016  0.00  0.00    +0.000 S 
BRANCH  18  19
ATOM     19  C   UNL     1       2.139   8.042  19.306  0.00  0.00    +0.000 C 
BRANCH  19  20
ATOM     20  C   UNL     1       1.936   6.641  18.746  0.00  0.00    +0.000 C 
BRANCH  20  21
ATOM     21  C   UNL     1       2.565   5.520  19.607  0.00  0.00    +0.000 C 
BRANCH  21  22
ATOM     22  N   UNL     1       3.697   4.828  18.935  0.00  0.00    +0.000 NA
ATOM     23  C   UNL     1       3.391   4.513  17.522  0.00  0.00    +0.000 C 
ATOM     24  C   UNL     1       4.504   3.669  16.899  0.00  0.00    +0.000 C 
ATOM     25  C   UNL     1       5.830   4.425  16.993  0.00  0.00    +0.000 C 
ATOM     26  C   UNL     1       6.140   4.732  18.466  0.00  0.00    +0.000 C 
ATOM     27  C   UNL     1       4.983   5.550  19.078  0.00  0.00    +0.000 C 
BRANCH  26  28
ATOM     28  C   UNL     1       7.448   5.484  18.585  0.00  0.00    +0.000 C 
ATOM     29  O   UNL     1       8.133   5.369  19.590  0.00  0.00    +0.000 OA
BRANCH  28  30
ATOM     30  O   UNL     1       7.872   6.296  17.591  0.00  0.00    +0.000 OA
ATOM     31  H   UNL     1       8.227   5.946  16.763  0.00  0.00    +0.000 HD
ENDBRANCH  28  30
ENDBRANCH  26  28
ENDBRANCH  21  22
ENDBRANCH  20  21
ENDBRANCH  19  20
ENDBRANCH  18  19
ENDBRANCH   1  18
TORSDOF 11
ENDMDL
