MODEL 1
REMARK VINA RESULT:      -7.7      0.000      0.000
REMARK  Name = 
REMARK  7 active torsions:
REMARK  status: ('A' for Active; 'I' for Inactive)
REMARK    1  A    between atoms: C_1  and  C_2
REMARK    2  A    between atoms: C_2  and  C_3
REMARK    3  A    between atoms: C_3  and  N_4
REMARK    4  A    between atoms: N_4  and  C_5
REMARK    5  A    between atoms: C_7  and  S_8
REMARK    6  A    between atoms: S_8  and  O_11
REMARK    7  A    between atoms: C_12  and  N_13
REMARK                            x       y       z     vdW  Elec       q    Type
REMARK                         _______ _______ _______ _____ _____    ______ ____
ROOT
ATOM      1  C   UNL     1       4.356   4.459  19.124  0.00  0.00    +0.000 A 
ATOM      2  C   UNL     1       5.328   4.214  18.149  0.00  0.00    +0.000 A 
ATOM      3  C   UNL     1       5.530   5.097  17.082  0.00  0.00    +0.000 A 
ATOM      4  C   UNL     1       4.817   6.301  16.982  0.00  0.00    +0.000 A 
ATOM      5  C   UNL     1       3.834   6.565  17.975  0.00  0.00    +0.000 A 
ATOM      6  C   UNL     1       3.595   5.653  19.022  0.00  0.00    +0.000 A 
ATOM      7  C   UNL     1       2.542   5.962  20.034  0.00  0.00    +0.000 C 
ATOM      8  O   UNL     1       2.256   5.165  20.925  0.00  0.00    +0.000 OA
ATOM      9  C   UNL     1       1.817   7.244  19.983  0.00  0.00    +0.000 A 
ATOM     10  C   UNL     1       0.868   7.553  20.970  0.00  0.00    +0.000 A 
ATOM     11  C   UNL     1       0.171   8.762  20.924  0.00  0.00    +0.000 A 
ATOM     12  C   UNL     1       0.417   9.667  19.894  0.00  0.00    +0.000 A 
ATOM     13  C   UNL     1       1.367   9.365  18.916  0.00  0.00    +0.000 A 
ATOM     14  C   UNL     1       2.069   8.152  18.964  0.00  0.00    +0.000 A 
ATOM     15  C   UNL     1       3.085   7.856  17.943  0.00  0.00    +0.000 C 
ATOM     16  O   UNL     1       3.333   8.711  17.096  0.00  0.00    +0.000 OA
ENDROOT
BRANCH   3  17
ATOM     17  S   UNL     1       6.726   4.627  15.849  0.00  0.00    +0.000 S 
ATOM     18  O   UNL     1       6.145   3.573  15.045  0.00  0.00    +0.000 OA
ATOM     19  O   UNL     1       7.247   5.834  15.240  0.00  0.00    +0.000 OA
BRANCH  17  20
ATOM     20  O   UNL     1       7.909   3.946  16.703  0.00  0.00    +0.000 OA
ATOM     21  H   UNL     1       8.671   3.798  16.106  0.00  0.00    +0.000 HD
ENDBRANCH  17  20
ENDBRANCH   3  17
BRANCH   4  22
ATOM     22  N   UNL     1       4.902   7.097  15.816  0.00  0.00    +0.000 N 
ATOM     23  H   UNL     1       4.912   8.106  16.002  0.00  0.00    +0.000 HD
ATOM     24  H   UNL     1       4.156   6.870  15.142  0.00  0.00    +0.000 HD
ENDBRANCH   4  22
BRANCH   1  25
ATOM     25  N   UNL     1       4.110   3.500  20.111  0.00  0.00    +0.000 N 
ATOM     26  H   UNL     1       4.683   3.629  20.954  0.00  0.00    +0.000 HD
BRANCH  25  27
ATOM     27  C   UNL     1       3.812   2.113  19.765  0.00  0.00    +0.000 C 
BRANCH  27  29
ATOM     28  C   UNL     1       1.329   2.304  19.230  0.00  0.00    +0.000 C 
ATOM     29  C   UNL     1       2.727   2.032  18.687  0.00  0.00    +0.000 C 
ENDBRANCH  27  29
ENDBRANCH  25  27
ENDBRANCH   1  25
TORSDOF 6
ENDMDL
MODEL 2
REMARK VINA RESULT:      -7.5      2.956      5.771
REMARK  Name = 
REMARK  7 active torsions:
REMARK  status: ('A' for Active; 'I' for Inactive)
REMARK    1  A    between atoms: C_1  and  C_2
REMARK    2  A    between atoms: C_2  and  C_3
REMARK    3  A    between atoms: C_3  and  N_4
REMARK    4  A    between atoms: N_4  and  C_5
REMARK    5  A    between atoms: C_7  and  S_8
REMARK    6  A    between atoms: S_8  and  O_11
REMARK    7  A    between atoms: C_12  and  N_13
REMARK                            x       y       z     vdW  Elec       q    Type
REMARK                         _______ _______ _______ _____ _____    ______ ____
ROOT
ATOM      1  C   UNL     1       2.272   5.356  20.560  0.00  0.00    +0.000 A 
ATOM      2  C   UNL     1       1.450   6.357  21.087  0.00  0.00    +0.000 A 
ATOM      3  C   UNL     1       1.374   7.624  20.498  0.00  0.00    +0.000 A 
ATOM      4  C   UNL     1       2.062   7.923  19.313  0.00  0.00    +0.000 A 
ATOM      5  C   UNL     1       2.893   6.909  18.762  0.00  0.00    +0.000 A 
ATOM      6  C   UNL     1       3.009   5.649  19.383  0.00  0.00    +0.000 A 
ATOM      7  C   UNL     1       3.904   4.617  18.780  0.00  0.00    +0.000 C 
ATOM      8  O   UNL     1       4.086   3.531  19.324  0.00  0.00    +0.000 OA
ATOM      9  C   UNL     1       4.596   4.887  17.508  0.00  0.00    +0.000 A 
ATOM     10  C   UNL     1       5.392   3.894  16.917  0.00  0.00    +0.000 A 
ATOM     11  C   UNL     1       6.058   4.145  15.715  0.00  0.00    +0.000 A 
ATOM     12  C   UNL     1       5.932   5.387  15.098  0.00  0.00    +0.000 A 
ATOM     13  C   UNL     1       5.134   6.374  15.679  0.00  0.00    +0.000 A 
ATOM     14  C   UNL     1       4.463   6.121  16.885  0.00  0.00    +0.000 A 
ATOM     15  C   UNL     1       3.604   7.159  17.475  0.00  0.00    +0.000 C 
ATOM     16  O   UNL     1       3.453   8.214  16.862  0.00  0.00    +0.000 OA
ENDROOT
BRANCH   3  17
ATOM     17  S   UNL     1       0.371   8.847  21.316  0.00  0.00    +0.000 S 
ATOM     18  O   UNL     1      -0.679   8.153  22.033  0.00  0.00    +0.000 OA
ATOM     19  O   UNL     1       1.252   9.777  21.992  0.00  0.00    +0.000 OA
BRANCH  17  20
ATOM     20  O   UNL     1      -0.348   9.627  20.104  0.00  0.00    +0.000 OA
ATOM     21  H   UNL     1      -1.317   9.534  20.212  0.00  0.00    +0.000 HD
ENDBRANCH  17  20
ENDBRANCH   3  17
BRANCH   4  22
ATOM     22  N   UNL     1       2.117   9.249  18.824  0.00  0.00    +0.000 N 
ATOM     23  H   UNL     1       2.515   9.922  19.488  0.00  0.00    +0.000 HD
ATOM     24  H   UNL     1       1.194   9.578  18.500  0.00  0.00    +0.000 HD
ENDBRANCH   4  22
BRANCH   1  25
ATOM     25  N   UNL     1       2.405   4.142  21.241  0.00  0.00    +0.000 N 
ATOM     26  H   UNL     1       3.367   3.779  21.240  0.00  0.00    +0.000 HD
BRANCH  25  27
ATOM     27  C   UNL     1       1.355   3.128  21.198  0.00  0.00    +0.000 C 
BRANCH  27  29
ATOM     28  C   UNL     1       1.035   2.213  18.843  0.00  0.00    +0.000 C 
ATOM     29  C   UNL     1       0.558   3.210  19.892  0.00  0.00    +0.000 C 
ENDBRANCH  27  29
ENDBRANCH  25  27
ENDBRANCH   1  25
TORSDOF 6
ENDMDL
MODEL 3
REMARK VINA RESULT:      -7.2      1.434      1.875
REMARK  Name = 
REMARK  7 active torsions:
REMARK  status: ('A' for Active; 'I' for Inactive)
REMARK    1  A    between atoms: C_1  and  C_2
REMARK    2  A    between atoms: C_2  and  C_3
REMARK    3  A    between atoms: C_3  and  N_4
REMARK    4  A    between atoms: N_4  and  C_5
REMARK    5  A    between atoms: C_7  and  S_8
REMARK    6  A    between atoms: S_8  and  O_11
REMARK    7  A    between atoms: C_12  and  N_13
REMARK                            x       y       z     vdW  Elec       q    Type
REMARK                         _______ _______ _______ _____ _____    ______ ____
ROOT
ATOM      1  C   UNL     1       2.997   5.637  20.142  0.00  0.00    +0.000 A 
ATOM      2  C   UNL     1       3.987   5.048  19.349  0.00  0.00    +0.000 A 
ATOM      3  C   UNL     1       4.383   5.617  18.133  0.00  0.00    +0.000 A 
ATOM      4  C   UNL     1       3.857   6.841  17.692  0.00  0.00    +0.000 A 
ATOM      5  C   UNL     1       2.858   7.454  18.497  0.00  0.00    +0.000 A 
ATOM      6  C   UNL     1       2.423   6.856  19.696  0.00  0.00    +0.000 A 
ATOM      7  C   UNL     1       1.360   7.526  20.503  0.00  0.00    +0.000 C 
ATOM      8  O   UNL     1       0.905   7.007  21.519  0.00  0.00    +0.000 OA
ATOM      9  C   UNL     1       0.831   8.837  20.090  0.00  0.00    +0.000 A 
ATOM     10  C   UNL     1      -0.128   9.489  20.882  0.00  0.00    +0.000 A 
ATOM     11  C   UNL     1      -0.641  10.728  20.493  0.00  0.00    +0.000 A 
ATOM     12  C   UNL     1      -0.200  11.322  19.313  0.00  0.00    +0.000 A 
ATOM     13  C   UNL     1       0.759  10.681  18.528  0.00  0.00    +0.000 A 
ATOM     14  C   UNL     1       1.277   9.436  18.920  0.00  0.00    +0.000 A 
ATOM     15  C   UNL     1       2.305   8.782  18.098  0.00  0.00    +0.000 C 
ATOM     16  O   UNL     1       2.728   9.372  17.107  0.00  0.00    +0.000 OA
ENDROOT
BRANCH   3  17
ATOM     17  S   UNL     1       5.578   4.723  17.163  0.00  0.00    +0.000 S 
ATOM     18  O   UNL     1       4.864   3.749  16.364  0.00  0.00    +0.000 OA
ATOM     19  O   UNL     1       6.475   5.683  16.551  0.00  0.00    +0.000 OA
BRANCH  17  20
ATOM     20  O   UNL     1       6.412   3.887  18.259  0.00  0.00    +0.000 OA
ATOM     21  H   UNL     1       6.836   3.128  17.807  0.00  0.00    +0.000 HD
ENDBRANCH  17  20
ENDBRANCH   3  17
BRANCH   4  22
ATOM     22  N   UNL     1       4.132   7.318  16.389  0.00  0.00    +0.000 N 
ATOM     23  H   UNL     1       3.386   7.900  15.993  0.00  0.00    +0.000 HD
ATOM     24  H   UNL     1       4.362   6.550  15.740  0.00  0.00    +0.000 HD
ENDBRANCH   4  22
BRANCH   1  25
ATOM     25  N   UNL     1       2.552   4.980  21.293  0.00  0.00    +0.000 N 
ATOM     26  H   UNL     1       3.119   5.189  22.125  0.00  0.00    +0.000 HD
BRANCH  25  27
ATOM     27  C   UNL     1       2.009   3.626  21.233  0.00  0.00    +0.000 C 
BRANCH  27  29
ATOM     28  C   UNL     1       1.005   2.629  19.115  0.00  0.00    +0.000 C 
ATOM     29  C   UNL     1       0.793   3.558  20.304  0.00  0.00    +0.000 C 
ENDBRANCH  27  29
ENDBRANCH  25  27
ENDBRANCH   1  25
TORSDOF 6
ENDMDL
MODEL 4
REMARK VINA RESULT:      -7.1      2.377      4.439
REMARK  Name = 
REMARK  7 active torsions:
REMARK  status: ('A' for Active; 'I' for Inactive)
REMARK    1  A    between atoms: C_1  and  C_2
REMARK    2  A    between atoms: C_2  and  C_3
REMARK    3  A    between atoms: C_3  and  N_4
REMARK    4  A    between atoms: N_4  and  C_5
REMARK    5  A    between atoms: C_7  and  S_8
REMARK    6  A    between atoms: S_8  and  O_11
REMARK    7  A    between atoms: C_12  and  N_13
REMARK                            x       y       z     vdW  Elec       q    Type
REMARK                         _______ _______ _______ _____ _____    ______ ____
ROOT
ATOM      1  C   UNL     1       3.896   5.629  17.609  0.00  0.00    +0.000 A 
ATOM      2  C   UNL     1       3.999   4.340  18.141  0.00  0.00    +0.000 A 
ATOM      3  C   UNL     1       3.418   4.010  19.371  0.00  0.00    +0.000 A 
ATOM      4  C   UNL     1       2.646   4.935  20.088  0.00  0.00    +0.000 A 
ATOM      5  C   UNL     1       2.525   6.246  19.550  0.00  0.00    +0.000 A 
ATOM      6  C   UNL     1       3.152   6.594  18.337  0.00  0.00    +0.000 A 
ATOM      7  C   UNL     1       3.012   7.986  17.816  0.00  0.00    +0.000 C 
ATOM      8  O   UNL     1       3.596   8.350  16.797  0.00  0.00    +0.000 OA
ATOM      9  C   UNL     1       2.163   8.961  18.521  0.00  0.00    +0.000 A 
ATOM     10  C   UNL     1       1.991  10.251  17.996  0.00  0.00    +0.000 A 
ATOM     11  C   UNL     1       1.195  11.185  18.664  0.00  0.00    +0.000 A 
ATOM     12  C   UNL     1       0.567  10.834  19.857  0.00  0.00    +0.000 A 
ATOM     13  C   UNL     1       0.730   9.549  20.377  0.00  0.00    +0.000 A 
ATOM     14  C   UNL     1       1.528   8.610  19.704  0.00  0.00    +0.000 A 
ATOM     15  C   UNL     1       1.671   7.252  20.248  0.00  0.00    +0.000 C 
ATOM     16  O   UNL     1       1.039   6.954  21.259  0.00  0.00    +0.000 OA
ENDROOT
BRANCH   3  17
ATOM     17  S   UNL     1       3.702   2.366  19.993  0.00  0.00    +0.000 S 
ATOM     18  O   UNL     1       3.468   2.385  21.423  0.00  0.00    +0.000 OA
ATOM     19  O   UNL     1       3.009   1.429  19.133  0.00  0.00    +0.000 OA
BRANCH  17  20
ATOM     20  O   UNL     1       5.286   2.150  19.796  0.00  0.00    +0.000 OA
ATOM     21  H   UNL     1       5.544   1.330  20.264  0.00  0.00    +0.000 HD
ENDBRANCH  17  20
ENDBRANCH   3  17
BRANCH   4  22
ATOM     22  N   UNL     1       2.211   4.649  21.403  0.00  0.00    +0.000 N 
ATOM     23  H   UNL     1       1.190   4.630  21.509  0.00  0.00    +0.000 HD
ATOM     24  H   UNL     1       2.625   5.294  22.093  0.00  0.00    +0.000 HD
ENDBRANCH   4  22
BRANCH   1  25
ATOM     25  N   UNL     1       4.583   5.948  16.434  0.00  0.00    +0.000 N 
ATOM     26  H   UNL     1       4.068   5.696  15.581  0.00  0.00    +0.000 HD
BRANCH  25  27
ATOM     27  C   UNL     1       6.035   5.825  16.346  0.00  0.00    +0.000 C 
BRANCH  27  29
ATOM     28  C   UNL     1       7.554   6.143  18.365  0.00  0.00    +0.000 C 
ATOM     29  C   UNL     1       6.734   6.822  17.275  0.00  0.00    +0.000 C 
ENDBRANCH  27  29
ENDBRANCH  25  27
ENDBRANCH   1  25
TORSDOF 6
ENDMDL
MODEL 5
REMARK VINA RESULT:      -7.1      0.605      1.152
REMARK  Name = 
REMARK  7 active torsions:
REMARK  status: ('A' for Active; 'I' for Inactive)
REMARK    1  A    between atoms: C_1  and  C_2
REMARK    2  A    between atoms: C_2  and  C_3
REMARK    3  A    between atoms: C_3  and  N_4
REMARK    4  A    between atoms: N_4  and  C_5
REMARK    5  A    between atoms: C_7  and  S_8
REMARK    6  A    between atoms: S_8  and  O_11
REMARK    7  A    between atoms: C_12  and  N_13
REMARK                            x       y       z     vdW  Elec       q    Type
REMARK                         _______ _______ _______ _____ _____    ______ ____
ROOT
ATOM      1  C   UNL     1       4.009   4.617  18.961  0.00  0.00    +0.000 A 
ATOM      2  C   UNL     1       4.921   4.347  17.935  0.00  0.00    +0.000 A 
ATOM      3  C   UNL     1       5.127   5.251  16.886  0.00  0.00    +0.000 A 
ATOM      4  C   UNL     1       4.482   6.496  16.855  0.00  0.00    +0.000 A 
ATOM      5  C   UNL     1       3.560   6.785  17.899  0.00  0.00    +0.000 A 
ATOM      6  C   UNL     1       3.315   5.855  18.929  0.00  0.00    +0.000 A 
ATOM      7  C   UNL     1       2.328   6.192  19.997  0.00  0.00    +0.000 C 
ATOM      8  O   UNL     1       2.036   5.385  20.876  0.00  0.00    +0.000 OA
ATOM      9  C   UNL     1       1.678   7.513  20.017  0.00  0.00    +0.000 A 
ATOM     10  C   UNL     1       0.794   7.845  21.055  0.00  0.00    +0.000 A 
ATOM     11  C   UNL     1       0.166   9.093  21.076  0.00  0.00    +0.000 A 
ATOM     12  C   UNL     1       0.420  10.014  20.063  0.00  0.00    +0.000 A 
ATOM     13  C   UNL     1       1.306   9.690  19.034  0.00  0.00    +0.000 A 
ATOM     14  C   UNL     1       1.938   8.437  19.014  0.00  0.00    +0.000 A 
ATOM     15  C   UNL     1       2.888   8.116  17.939  0.00  0.00    +0.000 C 
ATOM     16  O   UNL     1       3.148   8.982  17.107  0.00  0.00    +0.000 OA
ENDROOT
BRANCH   3  17
ATOM     17  S   UNL     1       6.237   4.753  15.587  0.00  0.00    +0.000 S 
ATOM     18  O   UNL     1       7.349   5.682  15.572  0.00  0.00    +0.000 OA
ATOM     19  O   UNL     1       6.455   3.325  15.698  0.00  0.00    +0.000 OA
BRANCH  17  20
ATOM     20  O   UNL     1       5.399   5.029  14.239  0.00  0.00    +0.000 OA
ATOM     21  H   UNL     1       5.925   5.627  13.669  0.00  0.00    +0.000 HD
ENDBRANCH  17  20
ENDBRANCH   3  17
BRANCH   4  22
ATOM     22  N   UNL     1       4.562   7.323  15.710  0.00  0.00    +0.000 N 
ATOM     23  H   UNL     1       3.699   7.839  15.508  0.00  0.00    +0.000 HD
ATOM     24  H   UNL     1       4.859   6.795  14.875  0.00  0.00    +0.000 HD
ENDBRANCH   4  22
BRANCH   1  25
ATOM     25  N   UNL     1       3.751   3.642  19.929  0.00  0.00    +0.000 N 
ATOM     26  H   UNL     1       4.432   3.645  20.700  0.00  0.00    +0.000 HD
BRANCH  25  27
ATOM     27  C   UNL     1       3.226   2.330  19.566  0.00  0.00    +0.000 C 
BRANCH  27  29
ATOM     28  C   UNL     1       0.814   2.481  18.763  0.00  0.00    +0.000 C 
ATOM     29  C   UNL     1       1.745   2.204  19.937  0.00  0.00    +0.000 C 
ENDBRANCH  27  29
ENDBRANCH  25  27
ENDBRANCH   1  25
TORSDOF 6
ENDMDL
MODEL 6
REMARK VINA RESULT:      -7.0      2.334      4.351
REMARK  Name = 
REMARK  7 active torsions:
REMARK  status: ('A' for Active; 'I' for Inactive)
REMARK    1  A    between atoms: C_1  and  C_2
REMARK    2  A    between atoms: C_2  and  C_3
REMARK    3  A    between atoms: C_3  and  N_4
REMARK    4  A    between atoms: N_4  and  C_5
REMARK    5  A    between atoms: C_7  and  S_8
REMARK    6  A    between atoms: S_8  and  O_11
REMARK    7  A    between atoms: C_12  and  N_13
REMARK                            x       y       z     vdW  Elec       q    Type
REMARK                         _______ _______ _______ _____ _____    ______ ____
ROOT
ATOM      1  C   UNL     1       4.034   5.425  17.484  0.00  0.00    +0.000 A 
ATOM      2  C   UNL     1       4.151   4.132  18.003  0.00  0.00    +0.000 A 
ATOM      3  C   UNL     1       3.574   3.784  19.230  0.00  0.00    +0.000 A 
ATOM      4  C   UNL     1       2.794   4.694  19.958  0.00  0.00    +0.000 A 
ATOM      5  C   UNL     1       2.660   6.009  19.433  0.00  0.00    +0.000 A 
ATOM      6  C   UNL     1       3.281   6.375  18.222  0.00  0.00    +0.000 A 
ATOM      7  C   UNL     1       3.127   7.771  17.715  0.00  0.00    +0.000 C 
ATOM      8  O   UNL     1       3.705   8.151  16.700  0.00  0.00    +0.000 OA
ATOM      9  C   UNL     1       2.270   8.731  18.432  0.00  0.00    +0.000 A 
ATOM     10  C   UNL     1       2.084  10.024  17.920  0.00  0.00    +0.000 A 
ATOM     11  C   UNL     1       1.280  10.943  18.598  0.00  0.00    +0.000 A 
ATOM     12  C   UNL     1       0.657  10.575  19.788  0.00  0.00    +0.000 A 
ATOM     13  C   UNL     1       0.833   9.286  20.295  0.00  0.00    +0.000 A 
ATOM     14  C   UNL     1       1.640   8.362  19.612  0.00  0.00    +0.000 A 
ATOM     15  C   UNL     1       1.797   7.000  20.142  0.00  0.00    +0.000 C 
ATOM     16  O   UNL     1       1.170   6.685  21.151  0.00  0.00    +0.000 OA
ENDROOT
BRANCH   3  17
ATOM     17  S   UNL     1       3.876   2.137  19.836  0.00  0.00    +0.000 S 
ATOM     18  O   UNL     1       5.182   2.126  20.462  0.00  0.00    +0.000 OA
ATOM     19  O   UNL     1       2.697   1.694  20.552  0.00  0.00    +0.000 OA
BRANCH  17  20
ATOM     20  O   UNL     1       4.009   1.254  18.495  0.00  0.00    +0.000 OA
ATOM     21  H   UNL     1       3.147   0.820  18.327  0.00  0.00    +0.000 HD
ENDBRANCH  17  20
ENDBRANCH   3  17
BRANCH   4  22
ATOM     22  N   UNL     1       2.364   4.391  21.271  0.00  0.00    +0.000 N 
ATOM     23  H   UNL     1       1.541   4.923  21.572  0.00  0.00    +0.000 HD
ATOM     24  H   UNL     1       3.125   4.500  21.958  0.00  0.00    +0.000 HD
ENDBRANCH   4  22
BRANCH   1  25
ATOM     25  N   UNL     1       4.716   5.763  16.311  0.00  0.00    +0.000 N 
ATOM     26  H   UNL     1       4.255   5.417  15.459  0.00  0.00    +0.000 HD
BRANCH  25  27
ATOM     27  C   UNL     1       6.175   5.793  16.262  0.00  0.00    +0.000 C 
BRANCH  27  29
ATOM     28  C   UNL     1       5.786   4.213  14.303  0.00  0.00    +0.000 C 
ATOM     29  C   UNL     1       6.725   4.633  15.427  0.00  0.00    +0.000 C 
ENDBRANCH  27  29
ENDBRANCH  25  27
ENDBRANCH   1  25
TORSDOF 6
ENDMDL
MODEL 7
REMARK VINA RESULT:      -6.9      2.355      4.407
REMARK  Name = 
REMARK  7 active torsions:
REMARK  status: ('A' for Active; 'I' for Inactive)
REMARK    1  A    between atoms: C_1  and  C_2
REMARK    2  A    between atoms: C_2  and  C_3
REMARK    3  A    between atoms: C_3  and  N_4
REMARK    4  A    between atoms: N_4  and  C_5
REMARK    5  A    between atoms: C_7  and  S_8
REMARK    6  A    between atoms: S_8  and  O_11
REMARK    7  A    between atoms: C_12  and  N_13
REMARK                            x       y       z     vdW  Elec       q    Type
REMARK                         _______ _______ _______ _____ _____    ______ ____
ROOT
ATOM      1  C   UNL     1       3.950   5.526  17.472  0.00  0.00    +0.000 A 
ATOM      2  C   UNL     1       4.049   4.216  17.953  0.00  0.00    +0.000 A 
ATOM      3  C   UNL     1       3.462   3.839  19.167  0.00  0.00    +0.000 A 
ATOM      4  C   UNL     1       2.690   4.737  19.917  0.00  0.00    +0.000 A 
ATOM      5  C   UNL     1       2.574   6.069  19.431  0.00  0.00    +0.000 A 
ATOM      6  C   UNL     1       3.206   6.463  18.235  0.00  0.00    +0.000 A 
ATOM      7  C   UNL     1       3.071   7.875  17.768  0.00  0.00    +0.000 C 
ATOM      8  O   UNL     1       3.659   8.277  16.767  0.00  0.00    +0.000 OA
ATOM      9  C   UNL     1       2.222   8.823  18.509  0.00  0.00    +0.000 A 
ATOM     10  C   UNL     1       2.054  10.134  18.035  0.00  0.00    +0.000 A 
ATOM     11  C   UNL     1       1.258  11.042  18.737  0.00  0.00    +0.000 A 
ATOM     12  C   UNL     1       0.625  10.646  19.912  0.00  0.00    +0.000 A 
ATOM     13  C   UNL     1       0.783   9.341  20.381  0.00  0.00    +0.000 A 
ATOM     14  C   UNL     1       1.582   8.428  19.675  0.00  0.00    +0.000 A 
ATOM     15  C   UNL     1       1.720   7.049  20.165  0.00  0.00    +0.000 C 
ATOM     16  O   UNL     1       1.084   6.712  21.161  0.00  0.00    +0.000 OA
ENDROOT
BRANCH   3  17
ATOM     17  S   UNL     1       3.741   2.172  19.724  0.00  0.00    +0.000 S 
ATOM     18  O   UNL     1       3.927   1.337  18.555  0.00  0.00    +0.000 OA
ATOM     19  O   UNL     1       4.727   2.207  20.785  0.00  0.00    +0.000 OA
BRANCH  17  20
ATOM     20  O   UNL     1       2.328   1.742  20.368  0.00  0.00    +0.000 OA
ATOM     21  H   UNL     1       1.664   1.702  19.650  0.00  0.00    +0.000 HD
ENDBRANCH  17  20
ENDBRANCH   3  17
BRANCH   4  22
ATOM     22  N   UNL     1       2.249   4.401  21.219  0.00  0.00    +0.000 N 
ATOM     23  H   UNL     1       1.506   3.694  21.236  0.00  0.00    +0.000 HD
ATOM     24  H   UNL     1       1.956   5.233  21.752  0.00  0.00    +0.000 HD
ENDBRANCH   4  22
BRANCH   1  25
ATOM     25  N   UNL     1       4.642   5.889  16.313  0.00  0.00    +0.000 N 
ATOM     26  H   UNL     1       4.127   5.677  15.449  0.00  0.00    +0.000 HD
BRANCH  25  27
ATOM     27  C   UNL     1       6.093   5.759  16.222  0.00  0.00    +0.000 C 
BRANCH  27  29
ATOM     28  C   UNL     1       7.553   5.983  18.297  0.00  0.00    +0.000 C 
ATOM     29  C   UNL     1       6.797   6.712  17.193  0.00  0.00    +0.000 C 
ENDBRANCH  27  29
ENDBRANCH  25  27
ENDBRANCH   1  25
TORSDOF 6
ENDMDL
MODEL 8
REMARK VINA RESULT:      -6.3     11.663     14.267
REMARK  Name = 
REMARK  7 active torsions:
REMARK  status: ('A' for Active; 'I' for Inactive)
REMARK    1  A    between atoms: C_1  and  C_2
REMARK    2  A    between atoms: C_2  and  C_3
REMARK    3  A    between atoms: C_3  and  N_4
REMARK    4  A    between atoms: N_4  and  C_5
REMARK    5  A    between atoms: C_7  and  S_8
REMARK    6  A    between atoms: S_8  and  O_11
REMARK    7  A    between atoms: C_12  and  N_13
REMARK                            x       y       z     vdW  Elec       q    Type
REMARK                         _______ _______ _______ _____ _____    ______ ____
ROOT
ATOM      1  C   UNL     1      -7.332  12.347  19.681  0.00  0.00    +0.000 A 
ATOM      2  C   UNL     1      -7.317  11.982  21.031  0.00  0.00    +0.000 A 
ATOM      3  C   UNL     1      -7.140  12.934  22.042  0.00  0.00    +0.000 A 
ATOM      4  C   UNL     1      -7.043  14.302  21.751  0.00  0.00    +0.000 A 
ATOM      5  C   UNL     1      -7.069  14.686  20.382  0.00  0.00    +0.000 A 
ATOM      6  C   UNL     1      -7.197  13.723  19.361  0.00  0.00    +0.000 A 
ATOM      7  C   UNL     1      -7.203  14.167  17.935  0.00  0.00    +0.000 C 
ATOM      8  O   UNL     1      -7.246  13.357  17.012  0.00  0.00    +0.000 OA
ATOM      9  C   UNL     1      -7.157  15.602  17.605  0.00  0.00    +0.000 A 
ATOM     10  C   UNL     1      -7.221  16.016  16.265  0.00  0.00    +0.000 A 
ATOM     11  C   UNL     1      -7.168  17.374  15.943  0.00  0.00    +0.000 A 
ATOM     12  C   UNL     1      -7.054  18.324  16.955  0.00  0.00    +0.000 A 
ATOM     13  C   UNL     1      -7.000  17.915  18.289  0.00  0.00    +0.000 A 
ATOM     14  C   UNL     1      -7.054  16.551  18.613  0.00  0.00    +0.000 A 
ATOM     15  C   UNL     1      -7.022  16.133  20.022  0.00  0.00    +0.000 C 
ATOM     16  O   UNL     1      -7.001  17.001  20.892  0.00  0.00    +0.000 OA
ENDROOT
BRANCH   3  17
ATOM     17  S   UNL     1      -7.037  12.336  23.716  0.00  0.00    +0.000 S 
ATOM     18  O   UNL     1      -7.744  11.074  23.782  0.00  0.00    +0.000 OA
ATOM     19  O   UNL     1      -5.660  12.448  24.154  0.00  0.00    +0.000 OA
BRANCH  17  20
ATOM     20  O   UNL     1      -7.917  13.393  24.555  0.00  0.00    +0.000 OA
ATOM     21  H   UNL     1      -7.554  13.441  25.463  0.00  0.00    +0.000 HD
ENDBRANCH  17  20
ENDBRANCH   3  17
BRANCH   4  22
ATOM     22  N   UNL     1      -6.692  15.232  22.757  0.00  0.00    +0.000 N 
ATOM     23  H   UNL     1      -6.579  14.816  23.688  0.00  0.00    +0.000 HD
ATOM     24  H   UNL     1      -7.359  16.019  22.802  0.00  0.00    +0.000 HD
ENDBRANCH   4  22
BRANCH   1  25
ATOM     25  N   UNL     1      -7.400  11.355  18.698  0.00  0.00    +0.000 N 
ATOM     26  H   UNL     1      -8.359  11.039  18.506  0.00  0.00    +0.000 HD
BRANCH  25  27
ATOM     27  C   UNL     1      -6.369  10.327  18.583  0.00  0.00    +0.000 C 
BRANCH  27  29
ATOM     28  C   UNL     1      -4.711  11.229  16.874  0.00  0.00    +0.000 C 
ATOM     29  C   UNL     1      -4.990  10.950  18.346  0.00  0.00    +0.000 C 
ENDBRANCH  27  29
ENDBRANCH  25  27
ENDBRANCH   1  25
TORSDOF 6
ENDMDL
MODEL 9
REMARK VINA RESULT:      -6.2      7.568     10.816
REMARK  Name = 
REMARK  7 active torsions:
REMARK  status: ('A' for Active; 'I' for Inactive)
REMARK    1  A    between atoms: C_1  and  C_2
REMARK    2  A    between atoms: C_2  and  C_3
REMARK    3  A    between atoms: C_3  and  N_4
REMARK    4  A    between atoms: N_4  and  C_5
REMARK    5  A    between atoms: C_7  and  S_8
REMARK    6  A    between atoms: S_8  and  O_11
REMARK    7  A    between atoms: C_12  and  N_13
REMARK                            x       y       z     vdW  Elec       q    Type
REMARK                         _______ _______ _______ _____ _____    ______ ____
ROOT
ATOM      1  C   UNL     1      -1.744  11.938  21.611  0.00  0.00    +0.000 A 
ATOM      2  C   UNL     1      -2.366  12.640  22.649  0.00  0.00    +0.000 A 
ATOM      3  C   UNL     1      -3.602  13.269  22.465  0.00  0.00    +0.000 A 
ATOM      4  C   UNL     1      -4.306  13.163  21.257  0.00  0.00    +0.000 A 
ATOM      5  C   UNL     1      -3.687  12.441  20.198  0.00  0.00    +0.000 A 
ATOM      6  C   UNL     1      -2.419  11.850  20.367  0.00  0.00    +0.000 A 
ATOM      7  C   UNL     1      -1.799  11.114  19.225  0.00  0.00    +0.000 C 
ATOM      8  O   UNL     1      -0.669  10.641  19.307  0.00  0.00    +0.000 OA
ATOM      9  C   UNL     1      -2.540  10.942  17.963  0.00  0.00    +0.000 A 
ATOM     10  C   UNL     1      -1.975  10.202  16.913  0.00  0.00    +0.000 A 
ATOM     11  C   UNL     1      -2.667  10.042  15.710  0.00  0.00    +0.000 A 
ATOM     12  C   UNL     1      -3.925  10.618  15.551  0.00  0.00    +0.000 A 
ATOM     13  C   UNL     1      -4.493  11.347  16.597  0.00  0.00    +0.000 A 
ATOM     14  C   UNL     1      -3.798  11.506  17.806  0.00  0.00    +0.000 A 
ATOM     15  C   UNL     1      -4.417  12.255  18.910  0.00  0.00    +0.000 C 
ATOM     16  O   UNL     1      -5.561  12.681  18.763  0.00  0.00    +0.000 OA
ENDROOT
BRANCH   3  17
ATOM     17  S   UNL     1      -4.246  14.218  23.827  0.00  0.00    +0.000 S 
ATOM     18  O   UNL     1      -3.374  14.009  24.965  0.00  0.00    +0.000 OA
ATOM     19  O   UNL     1      -4.548  15.551  23.349  0.00  0.00    +0.000 OA
BRANCH  17  20
ATOM     20  O   UNL     1      -5.636  13.485  24.182  0.00  0.00    +0.000 OA
ATOM     21  H   UNL     1      -5.755  12.737  23.560  0.00  0.00    +0.000 HD
ENDBRANCH  17  20
ENDBRANCH   3  17
BRANCH   4  22
ATOM     22  N   UNL     1      -5.464  13.941  21.023  0.00  0.00    +0.000 N 
ATOM     23  H   UNL     1      -6.056  14.064  21.851  0.00  0.00    +0.000 HD
ATOM     24  H   UNL     1      -6.024  13.569  20.241  0.00  0.00    +0.000 HD
ENDBRANCH   4  22
BRANCH   1  25
ATOM     25  N   UNL     1      -0.460  11.418  21.802  0.00  0.00    +0.000 N 
ATOM     26  H   UNL     1       0.078  11.336  20.930  0.00  0.00    +0.000 HD
BRANCH  25  27
ATOM     27  C   UNL     1      -0.200  10.381  22.796  0.00  0.00    +0.000 C 
BRANCH  27  29
ATOM     28  C   UNL     1       1.021   8.509  21.575  0.00  0.00    +0.000 C 
ATOM     29  C   UNL     1      -0.296   8.983  22.176  0.00  0.00    +0.000 C 
ENDBRANCH  27  29
ENDBRANCH  25  27
ENDBRANCH   1  25
TORSDOF 6
ENDMDL
