MODEL 1
REMARK VINA RESULT:      -8.8      0.000      0.000
REMARK  Name = 
REMARK  6 active torsions:
REMARK  status: ('A' for Active; 'I' for Inactive)
REMARK    1  A    between atoms: C_2  and  C_12
REMARK    2  A    between atoms: N_3  and  C_4
REMARK    3  A    between atoms: C_4  and  C_5
REMARK    4  A    between atoms: C_5  and  C_6
REMARK    5  A    between atoms: C_6  and  N_7
REMARK    6  A    between atoms: C_14  and  C_15
REMARK                            x       y       z     vdW  Elec       q    Type
REMARK                         _______ _______ _______ _____ _____    ______ ____
ROOT
ATOM      1  C   UNL     1       6.439   5.436  17.847  0.00  0.00    +0.000 A 
ATOM      2  C   UNL     1       5.433   5.061  18.741  0.00  0.00    +0.000 A 
ATOM      3  C   UNL     1       4.419   4.186  18.343  0.00  0.00    +0.000 A 
ATOM      4  N   UNL     1       4.373   3.622  17.107  0.00  0.00    +0.000 NA
ATOM      5  C   UNL     1       5.377   3.994  16.291  0.00  0.00    +0.000 A 
ATOM      6  N   UNL     1       5.580   3.565  15.010  0.00  0.00    +0.000 N 
ATOM      7  N   UNL     1       6.671   4.099  14.424  0.00  0.00    +0.000 NA
ATOM      8  C   UNL     1       7.186   4.876  15.383  0.00  0.00    +0.000 A 
ATOM      9  C   UNL     1       6.416   4.871  16.568  0.00  0.00    +0.000 A 
ATOM     10  H   UNL     1       5.013   2.905  14.492  0.00  0.00    +0.000 HD
ENDROOT
BRANCH   3  11
ATOM     11  C   UNL     1       3.338   3.790  19.274  0.00  0.00    +0.000 A 
ATOM     12  C   UNL     1       3.583   2.921  20.355  0.00  0.00    +0.000 A 
ATOM     13  C   UNL     1       2.577   2.602  21.278  0.00  0.00    +0.000 A 
ATOM     14  C   UNL     1       1.304   3.139  21.141  0.00  0.00    +0.000 A 
ATOM     15  C   UNL     1       1.026   3.980  20.071  0.00  0.00    +0.000 A 
ATOM     16  C   UNL     1       2.028   4.279  19.145  0.00  0.00    +0.000 A 
ATOM     17  F   UNL     1       1.685   5.059  18.107  0.00  0.00    +0.000 F 
ENDBRANCH   3  11
BRANCH   1  19
ATOM     18  O   UNL     1       8.214   6.035  19.250  0.00  0.00    +0.000 OA
ATOM     19  C   UNL     1       7.488   6.360  18.318  0.00  0.00    +0.000 C 
ATOM     20  N   UNL     1       7.550   7.587  17.702  0.00  0.00    +0.000 N 
ATOM     21  H   UNL     1       6.757   7.896  17.153  0.00  0.00    +0.000 HD
BRANCH  20  22
ATOM     22  C   UNL     1       8.499   8.590  18.152  0.00  0.00    +0.000 C 
BRANCH  22  23
ATOM     23  C   UNL     1       7.941   9.981  17.909  0.00  0.00    +0.000 C 
BRANCH  23  24
ATOM     24  C   UNL     1       8.988  11.083  18.118  0.00  0.00    +0.000 C 
BRANCH  24  25
ATOM     25  N   UNL     1       9.923  10.722  19.196  0.00  0.00    +0.000 NA
ATOM     26  C   UNL     1       9.426  11.113  20.526  0.00  0.00    +0.000 C 
ATOM     27  C   UNL     1      10.196  12.365  20.896  0.00  0.00    +0.000 C 
ATOM     28  C   UNL     1      11.561  12.105  20.300  0.00  0.00    +0.000 C 
ATOM     29  C   UNL     1      11.254  11.329  19.031  0.00  0.00    +0.000 C 
ENDBRANCH  24  25
ENDBRANCH  23  24
ENDBRANCH  22  23
ENDBRANCH  20  22
ENDBRANCH   1  19
TORSDOF 6
ENDMDL
MODEL 2
REMARK VINA RESULT:      -8.6      1.057      1.560
REMARK  Name = 
REMARK  6 active torsions:
REMARK  status: ('A' for Active; 'I' for Inactive)
REMARK    1  A    between atoms: C_2  and  C_12
REMARK    2  A    between atoms: N_3  and  C_4
REMARK    3  A    between atoms: C_4  and  C_5
REMARK    4  A    between atoms: C_5  and  C_6
REMARK    5  A    between atoms: C_6  and  N_7
REMARK    6  A    between atoms: C_14  and  C_15
REMARK                            x       y       z     vdW  Elec       q    Type
REMARK                         _______ _______ _______ _____ _____    ______ ____
ROOT
ATOM      1  C   UNL     1       6.431   5.345  18.031  0.00  0.00    +0.000 A 
ATOM      2  C   UNL     1       5.414   4.990  18.922  0.00  0.00    +0.000 A 
ATOM      3  C   UNL     1       4.349   4.189  18.502  0.00  0.00    +0.000 A 
ATOM      4  N   UNL     1       4.259   3.679  17.244  0.00  0.00    +0.000 NA
ATOM      5  C   UNL     1       5.274   4.028  16.431  0.00  0.00    +0.000 A 
ATOM      6  N   UNL     1       5.440   3.640  15.132  0.00  0.00    +0.000 N 
ATOM      7  N   UNL     1       6.553   4.138  14.554  0.00  0.00    +0.000 NA
ATOM      8  C   UNL     1       7.120   4.845  15.537  0.00  0.00    +0.000 A 
ATOM      9  C   UNL     1       6.363   4.834  16.730  0.00  0.00    +0.000 A 
ATOM     10  H   UNL     1       4.832   3.034  14.595  0.00  0.00    +0.000 HD
ENDROOT
BRANCH   3  11
ATOM     11  C   UNL     1       3.258   3.816  19.429  0.00  0.00    +0.000 A 
ATOM     12  C   UNL     1       1.988   4.420  19.349  0.00  0.00    +0.000 A 
ATOM     13  C   UNL     1       0.934   4.017  20.181  0.00  0.00    +0.000 A 
ATOM     14  C   UNL     1       1.124   3.005  21.113  0.00  0.00    +0.000 A 
ATOM     15  C   UNL     1       2.372   2.408  21.232  0.00  0.00    +0.000 A 
ATOM     16  C   UNL     1       3.422   2.826  20.413  0.00  0.00    +0.000 A 
ATOM     17  F   UNL     1       4.617   2.243  20.608  0.00  0.00    +0.000 F 
ENDBRANCH   3  11
BRANCH   1  19
ATOM     18  O   UNL     1       8.266   5.777  19.416  0.00  0.00    +0.000 OA
ATOM     19  C   UNL     1       7.534   6.190  18.525  0.00  0.00    +0.000 C 
ATOM     20  N   UNL     1       7.640   7.447  17.978  0.00  0.00    +0.000 N 
ATOM     21  H   UNL     1       6.849   7.824  17.470  0.00  0.00    +0.000 HD
BRANCH  20  22
ATOM     22  C   UNL     1       8.646   8.376  18.460  0.00  0.00    +0.000 C 
BRANCH  22  23
ATOM     23  C   UNL     1       8.251   9.800  18.108  0.00  0.00    +0.000 C 
BRANCH  23  24
ATOM     24  C   UNL     1       9.453  10.753  18.066  0.00  0.00    +0.000 C 
BRANCH  24  25
ATOM     25  N   UNL     1       9.271  11.871  19.006  0.00  0.00    +0.000 NA
ATOM     26  C   UNL     1      10.320  12.895  18.873  0.00  0.00    +0.000 C 
ATOM     27  C   UNL     1      11.263  12.666  20.038  0.00  0.00    +0.000 C 
ATOM     28  C   UNL     1      10.326  12.233  21.143  0.00  0.00    +0.000 C 
ATOM     29  C   UNL     1       9.255  11.442  20.414  0.00  0.00    +0.000 C 
ENDBRANCH  24  25
ENDBRANCH  23  24
ENDBRANCH  22  23
ENDBRANCH  20  22
ENDBRANCH   1  19
TORSDOF 6
ENDMDL
MODEL 3
REMARK VINA RESULT:      -8.6      4.145      7.857
REMARK  Name = 
REMARK  6 active torsions:
REMARK  status: ('A' for Active; 'I' for Inactive)
REMARK    1  A    between atoms: C_2  and  C_12
REMARK    2  A    between atoms: N_3  and  C_4
REMARK    3  A    between atoms: C_4  and  C_5
REMARK    4  A    between atoms: C_5  and  C_6
REMARK    5  A    between atoms: C_6  and  N_7
REMARK    6  A    between atoms: C_14  and  C_15
REMARK                            x       y       z     vdW  Elec       q    Type
REMARK                         _______ _______ _______ _____ _____    ______ ____
ROOT
ATOM      1  C   UNL     1       5.260   5.654  17.442  0.00  0.00    +0.000 A 
ATOM      2  C   UNL     1       5.280   5.285  16.094  0.00  0.00    +0.000 A 
ATOM      3  C   UNL     1       6.437   4.754  15.520  0.00  0.00    +0.000 A 
ATOM      4  N   UNL     1       7.575   4.525  16.228  0.00  0.00    +0.000 NA
ATOM      5  C   UNL     1       7.499   4.873  17.526  0.00  0.00    +0.000 A 
ATOM      6  N   UNL     1       8.485   4.731  18.461  0.00  0.00    +0.000 N 
ATOM      7  N   UNL     1       8.134   5.161  19.691  0.00  0.00    +0.000 NA
ATOM      8  C   UNL     1       6.870   5.564  19.527  0.00  0.00    +0.000 A 
ATOM      9  C   UNL     1       6.417   5.429  18.195  0.00  0.00    +0.000 A 
ATOM     10  H   UNL     1       9.409   4.343  18.318  0.00  0.00    +0.000 HD
ENDROOT
BRANCH   3  11
ATOM     11  C   UNL     1       6.478   4.371  14.091  0.00  0.00    +0.000 A 
ATOM     12  C   UNL     1       5.541   3.471  13.545  0.00  0.00    +0.000 A 
ATOM     13  C   UNL     1       5.536   3.163  12.177  0.00  0.00    +0.000 A 
ATOM     14  C   UNL     1       6.466   3.743  11.324  0.00  0.00    +0.000 A 
ATOM     15  C   UNL     1       7.417   4.614  11.838  0.00  0.00    +0.000 A 
ATOM     16  C   UNL     1       7.429   4.903  13.204  0.00  0.00    +0.000 A 
ATOM     17  F   UNL     1       8.402   5.716  13.647  0.00  0.00    +0.000 F 
ENDBRANCH   3  11
BRANCH   1  19
ATOM     18  O   UNL     1       3.424   7.104  17.408  0.00  0.00    +0.000 OA
ATOM     19  C   UNL     1       4.012   6.208  18.001  0.00  0.00    +0.000 C 
ATOM     20  N   UNL     1       3.606   5.708  19.215  0.00  0.00    +0.000 N 
ATOM     21  H   UNL     1       4.272   5.191  19.775  0.00  0.00    +0.000 HD
BRANCH  20  22
ATOM     22  C   UNL     1       2.432   6.249  19.877  0.00  0.00    +0.000 C 
BRANCH  22  23
ATOM     23  C   UNL     1       1.593   5.122  20.454  0.00  0.00    +0.000 C 
BRANCH  23  24
ATOM     24  C   UNL     1       1.164   4.102  19.391  0.00  0.00    +0.000 C 
BRANCH  24  25
ATOM     25  N   UNL     1       1.674   2.760  19.713  0.00  0.00    +0.000 NA
ATOM     26  C   UNL     1       2.755   2.792  20.713  0.00  0.00    +0.000 C 
ATOM     27  C   UNL     1       4.039   2.597  19.931  0.00  0.00    +0.000 C 
ATOM     28  C   UNL     1       3.621   1.636  18.841  0.00  0.00    +0.000 C 
ATOM     29  C   UNL     1       2.190   2.043  18.535  0.00  0.00    +0.000 C 
ENDBRANCH  24  25
ENDBRANCH  23  24
ENDBRANCH  22  23
ENDBRANCH  20  22
ENDBRANCH   1  19
TORSDOF 6
ENDMDL
MODEL 4
REMARK VINA RESULT:      -8.5      0.929      1.175
REMARK  Name = 
REMARK  6 active torsions:
REMARK  status: ('A' for Active; 'I' for Inactive)
REMARK    1  A    between atoms: C_2  and  C_12
REMARK    2  A    between atoms: N_3  and  C_4
REMARK    3  A    between atoms: C_4  and  C_5
REMARK    4  A    between atoms: C_5  and  C_6
REMARK    5  A    between atoms: C_6  and  N_7
REMARK    6  A    between atoms: C_14  and  C_15
REMARK                            x       y       z     vdW  Elec       q    Type
REMARK                         _______ _______ _______ _____ _____    ______ ____
ROOT
ATOM      1  C   UNL     1       6.407   5.216  18.019  0.00  0.00    +0.000 A 
ATOM      2  C   UNL     1       5.379   4.827  18.882  0.00  0.00    +0.000 A 
ATOM      3  C   UNL     1       4.320   4.044  18.418  0.00  0.00    +0.000 A 
ATOM      4  N   UNL     1       4.246   3.583  17.141  0.00  0.00    +0.000 NA
ATOM      5  C   UNL     1       5.271   3.963  16.355  0.00  0.00    +0.000 A 
ATOM      6  N   UNL     1       5.453   3.626  15.044  0.00  0.00    +0.000 N 
ATOM      7  N   UNL     1       6.574   4.145  14.500  0.00  0.00    +0.000 NA
ATOM      8  C   UNL     1       7.129   4.813  15.516  0.00  0.00    +0.000 A 
ATOM      9  C   UNL     1       6.356   4.756  16.699  0.00  0.00    +0.000 A 
ATOM     10  H   UNL     1       4.853   3.042  14.476  0.00  0.00    +0.000 HD
ENDROOT
BRANCH   3  11
ATOM     11  C   UNL     1       3.217   3.635  19.316  0.00  0.00    +0.000 A 
ATOM     12  C   UNL     1       3.454   2.836  20.452  0.00  0.00    +0.000 A 
ATOM     13  C   UNL     1       2.421   2.508  21.342  0.00  0.00    +0.000 A 
ATOM     14  C   UNL     1       1.129   2.966  21.118  0.00  0.00    +0.000 A 
ATOM     15  C   UNL     1       0.861   3.735  19.993  0.00  0.00    +0.000 A 
ATOM     16  C   UNL     1       1.890   4.043  19.101  0.00  0.00    +0.000 A 
ATOM     17  F   UNL     1       1.558   4.751  18.008  0.00  0.00    +0.000 F 
ENDBRANCH   3  11
BRANCH   1  19
ATOM     18  O   UNL     1       8.228   5.591  19.440  0.00  0.00    +0.000 OA
ATOM     19  C   UNL     1       7.504   6.041  18.560  0.00  0.00    +0.000 C 
ATOM     20  N   UNL     1       7.613   7.320  18.068  0.00  0.00    +0.000 N 
ATOM     21  H   UNL     1       6.827   7.717  17.569  0.00  0.00    +0.000 HD
BRANCH  20  22
ATOM     22  C   UNL     1       8.613   8.229  18.599  0.00  0.00    +0.000 C 
BRANCH  22  23
ATOM     23  C   UNL     1       8.369   9.634  18.076  0.00  0.00    +0.000 C 
BRANCH  23  24
ATOM     24  C   UNL     1       9.559  10.571  18.323  0.00  0.00    +0.000 C 
BRANCH  24  25
ATOM     25  N   UNL     1       9.103  11.885  18.803  0.00  0.00    +0.000 NA
ATOM     26  C   UNL     1       8.884  12.842  17.704  0.00  0.00    +0.000 C 
ATOM     27  C   UNL     1      10.089  13.762  17.720  0.00  0.00    +0.000 C 
ATOM     28  C   UNL     1      10.396  13.881  19.196  0.00  0.00    +0.000 C 
ATOM     29  C   UNL     1      10.043  12.512  19.747  0.00  0.00    +0.000 C 
ENDBRANCH  24  25
ENDBRANCH  23  24
ENDBRANCH  22  23
ENDBRANCH  20  22
ENDBRANCH   1  19
TORSDOF 6
ENDMDL
MODEL 5
REMARK VINA RESULT:      -8.5      1.084      1.396
REMARK  Name = 
REMARK  6 active torsions:
REMARK  status: ('A' for Active; 'I' for Inactive)
REMARK    1  A    between atoms: C_2  and  C_12
REMARK    2  A    between atoms: N_3  and  C_4
REMARK    3  A    between atoms: C_4  and  C_5
REMARK    4  A    between atoms: C_5  and  C_6
REMARK    5  A    between atoms: C_6  and  N_7
REMARK    6  A    between atoms: C_14  and  C_15
REMARK                            x       y       z     vdW  Elec       q    Type
REMARK                         _______ _______ _______ _____ _____    ______ ____
ROOT
ATOM      1  C   UNL     1       6.321   5.330  17.700  0.00  0.00    +0.000 A 
ATOM      2  C   UNL     1       5.192   4.993  18.453  0.00  0.00    +0.000 A 
ATOM      3  C   UNL     1       4.106   4.350  17.856  0.00  0.00    +0.000 A 
ATOM      4  N   UNL     1       4.095   3.979  16.548  0.00  0.00    +0.000 NA
ATOM      5  C   UNL     1       5.213   4.302  15.871  0.00  0.00    +0.000 A 
ATOM      6  N   UNL     1       5.471   4.030  14.558  0.00  0.00    +0.000 N 
ATOM      7  N   UNL     1       6.677   4.466  14.138  0.00  0.00    +0.000 NA
ATOM      8  C   UNL     1       7.206   5.012  15.239  0.00  0.00    +0.000 A 
ATOM      9  C   UNL     1       6.337   4.960  16.352  0.00  0.00    +0.000 A 
ATOM     10  H   UNL     1       4.867   3.545  13.906  0.00  0.00    +0.000 HD
ENDROOT
BRANCH   3  11
ATOM     11  C   UNL     1       2.898   4.000  18.636  0.00  0.00    +0.000 A 
ATOM     12  C   UNL     1       2.194   2.802  18.401  0.00  0.00    +0.000 A 
ATOM     13  C   UNL     1       1.093   2.436  19.187  0.00  0.00    +0.000 A 
ATOM     14  C   UNL     1       0.666   3.258  20.223  0.00  0.00    +0.000 A 
ATOM     15  C   UNL     1       1.325   4.457  20.463  0.00  0.00    +0.000 A 
ATOM     16  C   UNL     1       2.410   4.824  19.664  0.00  0.00    +0.000 A 
ATOM     17  F   UNL     1       2.976   6.016  19.915  0.00  0.00    +0.000 F 
ENDBRANCH   3  11
BRANCH   1  19
ATOM     18  O   UNL     1       8.078   5.413  19.243  0.00  0.00    +0.000 OA
ATOM     19  C   UNL     1       7.443   6.006  18.380  0.00  0.00    +0.000 C 
ATOM     20  N   UNL     1       7.674   7.315  18.032  0.00  0.00    +0.000 N 
ATOM     21  H   UNL     1       6.950   7.822  17.538  0.00  0.00    +0.000 HD
BRANCH  20  22
ATOM     22  C   UNL     1       8.706   8.083  18.705  0.00  0.00    +0.000 C 
BRANCH  22  23
ATOM     23  C   UNL     1       8.574   9.555  18.352  0.00  0.00    +0.000 C 
BRANCH  23  24
ATOM     24  C   UNL     1       9.062  10.479  19.475  0.00  0.00    +0.000 C 
BRANCH  24  25
ATOM     25  N   UNL     1       9.563  11.751  18.930  0.00  0.00    +0.000 NA
ATOM     26  C   UNL     1      10.426  11.559  17.753  0.00  0.00    +0.000 C 
ATOM     27  C   UNL     1      11.845  11.739  18.255  0.00  0.00    +0.000 C 
ATOM     28  C   UNL     1      11.692  12.818  19.302  0.00  0.00    +0.000 C 
ATOM     29  C   UNL     1      10.331  12.535  19.912  0.00  0.00    +0.000 C 
ENDBRANCH  24  25
ENDBRANCH  23  24
ENDBRANCH  22  23
ENDBRANCH  20  22
ENDBRANCH   1  19
TORSDOF 6
ENDMDL
MODEL 6
REMARK VINA RESULT:      -8.4      1.479      2.055
REMARK  Name = 
REMARK  6 active torsions:
REMARK  status: ('A' for Active; 'I' for Inactive)
REMARK    1  A    between atoms: C_2  and  C_12
REMARK    2  A    between atoms: N_3  and  C_4
REMARK    3  A    between atoms: C_4  and  C_5
REMARK    4  A    between atoms: C_5  and  C_6
REMARK    5  A    between atoms: C_6  and  N_7
REMARK    6  A    between atoms: C_14  and  C_15
REMARK                            x       y       z     vdW  Elec       q    Type
REMARK                         _______ _______ _______ _____ _____    ______ ____
ROOT
ATOM      1  C   UNL     1       6.410   5.450  17.989  0.00  0.00    +0.000 A 
ATOM      2  C   UNL     1       5.404   5.086  18.888  0.00  0.00    +0.000 A 
ATOM      3  C   UNL     1       4.343   4.276  18.477  0.00  0.00    +0.000 A 
ATOM      4  N   UNL     1       4.248   3.764  17.220  0.00  0.00    +0.000 NA
ATOM      5  C   UNL     1       5.254   4.122  16.400  0.00  0.00    +0.000 A 
ATOM      6  N   UNL     1       5.413   3.735  15.099  0.00  0.00    +0.000 N 
ATOM      7  N   UNL     1       6.517   4.242  14.512  0.00  0.00    +0.000 NA
ATOM      8  C   UNL     1       7.086   4.955  15.490  0.00  0.00    +0.000 A 
ATOM      9  C   UNL     1       6.338   4.938  16.690  0.00  0.00    +0.000 A 
ATOM     10  H   UNL     1       4.807   3.123  14.567  0.00  0.00    +0.000 HD
ENDROOT
BRANCH   3  11
ATOM     11  C   UNL     1       3.263   3.893  19.413  0.00  0.00    +0.000 A 
ATOM     12  C   UNL     1       1.988   4.488  19.345  0.00  0.00    +0.000 A 
ATOM     13  C   UNL     1       0.944   4.076  20.185  0.00  0.00    +0.000 A 
ATOM     14  C   UNL     1       1.148   3.063  21.113  0.00  0.00    +0.000 A 
ATOM     15  C   UNL     1       2.402   2.475  21.220  0.00  0.00    +0.000 A 
ATOM     16  C   UNL     1       3.442   2.903  20.393  0.00  0.00    +0.000 A 
ATOM     17  F   UNL     1       4.643   2.328  20.577  0.00  0.00    +0.000 F 
ENDBRANCH   3  11
BRANCH   1  19
ATOM     18  O   UNL     1       8.242   5.907  19.371  0.00  0.00    +0.000 OA
ATOM     19  C   UNL     1       7.510   6.306  18.475  0.00  0.00    +0.000 C 
ATOM     20  N   UNL     1       7.610   7.557  17.914  0.00  0.00    +0.000 N 
ATOM     21  H   UNL     1       6.819   7.924  17.401  0.00  0.00    +0.000 HD
BRANCH  20  22
ATOM     22  C   UNL     1       8.612   8.496  18.385  0.00  0.00    +0.000 C 
BRANCH  22  23
ATOM     23  C   UNL     1       8.213   9.914  18.015  0.00  0.00    +0.000 C 
BRANCH  23  24
ATOM     24  C   UNL     1       9.249  10.955  18.458  0.00  0.00    +0.000 C 
BRANCH  24  25
ATOM     25  N   UNL     1       9.172  12.163  17.622  0.00  0.00    +0.000 NA
ATOM     26  C   UNL     1       9.798  13.332  18.261  0.00  0.00    +0.000 C 
ATOM     27  C   UNL     1       8.650  14.173  18.785  0.00  0.00    +0.000 C 
ATOM     28  C   UNL     1       7.585  13.975  17.730  0.00  0.00    +0.000 C 
ATOM     29  C   UNL     1       7.790  12.540  17.281  0.00  0.00    +0.000 C 
ENDBRANCH  24  25
ENDBRANCH  23  24
ENDBRANCH  22  23
ENDBRANCH  20  22
ENDBRANCH   1  19
TORSDOF 6
ENDMDL
MODEL 7
REMARK VINA RESULT:      -8.4      1.068      1.387
REMARK  Name = 
REMARK  6 active torsions:
REMARK  status: ('A' for Active; 'I' for Inactive)
REMARK    1  A    between atoms: C_2  and  C_12
REMARK    2  A    between atoms: N_3  and  C_4
REMARK    3  A    between atoms: C_4  and  C_5
REMARK    4  A    between atoms: C_5  and  C_6
REMARK    5  A    between atoms: C_6  and  N_7
REMARK    6  A    between atoms: C_14  and  C_15
REMARK                            x       y       z     vdW  Elec       q    Type
REMARK                         _______ _______ _______ _____ _____    ______ ____
ROOT
ATOM      1  C   UNL     1       6.346   5.483  17.690  0.00  0.00    +0.000 A 
ATOM      2  C   UNL     1       5.251   5.107  18.473  0.00  0.00    +0.000 A 
ATOM      3  C   UNL     1       4.199   4.374  17.918  0.00  0.00    +0.000 A 
ATOM      4  N   UNL     1       4.195   3.951  16.626  0.00  0.00    +0.000 NA
ATOM      5  C   UNL     1       5.282   4.315  15.920  0.00  0.00    +0.000 A 
ATOM      6  N   UNL     1       5.540   4.007  14.615  0.00  0.00    +0.000 N 
ATOM      7  N   UNL     1       6.710   4.500  14.160  0.00  0.00    +0.000 NA
ATOM      8  C   UNL     1       7.218   5.121  15.230  0.00  0.00    +0.000 A 
ATOM      9  C   UNL     1       6.368   5.060  16.357  0.00  0.00    +0.000 A 
ATOM     10  H   UNL     1       4.958   3.459  13.992  0.00  0.00    +0.000 HD
ENDROOT
BRANCH   3  11
ATOM     11  C   UNL     1       3.026   3.981  18.731  0.00  0.00    +0.000 A 
ATOM     12  C   UNL     1       2.511   4.827  19.733  0.00  0.00    +0.000 A 
ATOM     13  C   UNL     1       1.358   4.486  20.454  0.00  0.00    +0.000 A 
ATOM     14  C   UNL     1       0.695   3.293  20.194  0.00  0.00    +0.000 A 
ATOM     15  C   UNL     1       1.194   2.428  19.230  0.00  0.00    +0.000 A 
ATOM     16  C   UNL     1       2.353   2.765  18.528  0.00  0.00    +0.000 A 
ATOM     17  F   UNL     1       2.812   1.866  17.641  0.00  0.00    +0.000 F 
ENDBRANCH   3  11
BRANCH   1  19
ATOM     18  O   UNL     1       8.064   5.765  19.254  0.00  0.00    +0.000 OA
ATOM     19  C   UNL     1       7.432   6.254  18.325  0.00  0.00    +0.000 C 
ATOM     20  N   UNL     1       7.634   7.531  17.859  0.00  0.00    +0.000 N 
ATOM     21  H   UNL     1       6.908   7.967  17.305  0.00  0.00    +0.000 HD
BRANCH  20  22
ATOM     22  C   UNL     1       8.628   8.391  18.478  0.00  0.00    +0.000 C 
BRANCH  22  23
ATOM     23  C   UNL     1       8.281   9.849  18.231  0.00  0.00    +0.000 C 
BRANCH  23  24
ATOM     24  C   UNL     1       9.507  10.695  17.868  0.00  0.00    +0.000 C 
BRANCH  24  25
ATOM     25  N   UNL     1       9.605  11.880  18.735  0.00  0.00    +0.000 NA
ATOM     26  C   UNL     1      10.941  12.498  18.697  0.00  0.00    +0.000 C 
ATOM     27  C   UNL     1      11.627  12.067  19.978  0.00  0.00    +0.000 C 
ATOM     28  C   UNL     1      10.488  12.045  20.973  0.00  0.00    +0.000 C 
ATOM     29  C   UNL     1       9.299  11.588  20.146  0.00  0.00    +0.000 C 
ENDBRANCH  24  25
ENDBRANCH  23  24
ENDBRANCH  22  23
ENDBRANCH  20  22
ENDBRANCH   1  19
TORSDOF 6
ENDMDL
MODEL 8
REMARK VINA RESULT:      -8.4      1.092      1.442
REMARK  Name = 
REMARK  6 active torsions:
REMARK  status: ('A' for Active; 'I' for Inactive)
REMARK    1  A    between atoms: C_2  and  C_12
REMARK    2  A    between atoms: N_3  and  C_4
REMARK    3  A    between atoms: C_4  and  C_5
REMARK    4  A    between atoms: C_5  and  C_6
REMARK    5  A    between atoms: C_6  and  N_7
REMARK    6  A    between atoms: C_14  and  C_15
REMARK                            x       y       z     vdW  Elec       q    Type
REMARK                         _______ _______ _______ _____ _____    ______ ____
ROOT
ATOM      1  C   UNL     1       6.444   5.558  17.889  0.00  0.00    +0.000 A 
ATOM      2  C   UNL     1       5.400   5.171  18.733  0.00  0.00    +0.000 A 
ATOM      3  C   UNL     1       4.331   4.417  18.241  0.00  0.00    +0.000 A 
ATOM      4  N   UNL     1       4.263   3.983  16.955  0.00  0.00    +0.000 NA
ATOM      5  C   UNL     1       5.304   4.360  16.188  0.00  0.00    +0.000 A 
ATOM      6  N   UNL     1       5.495   4.045  14.872  0.00  0.00    +0.000 N 
ATOM      7  N   UNL     1       6.631   4.553  14.351  0.00  0.00    +0.000 NA
ATOM      8  C   UNL     1       7.186   5.191  15.386  0.00  0.00    +0.000 A 
ATOM      9  C   UNL     1       6.400   5.125  16.559  0.00  0.00    +0.000 A 
ATOM     10  H   UNL     1       4.890   3.483  14.287  0.00  0.00    +0.000 HD
ENDROOT
BRANCH   3  11
ATOM     11  C   UNL     1       3.211   4.011  19.120  0.00  0.00    +0.000 A 
ATOM     12  C   UNL     1       2.288   4.954  19.614  0.00  0.00    +0.000 A 
ATOM     13  C   UNL     1       1.187   4.561  20.388  0.00  0.00    +0.000 A 
ATOM     14  C   UNL     1       0.983   3.220  20.688  0.00  0.00    +0.000 A 
ATOM     15  C   UNL     1       1.890   2.271  20.235  0.00  0.00    +0.000 A 
ATOM     16  C   UNL     1       2.995   2.671  19.481  0.00  0.00    +0.000 A 
ATOM     17  F   UNL     1       3.861   1.713  19.112  0.00  0.00    +0.000 F 
ENDBRANCH   3  11
BRANCH   1  19
ATOM     18  O   UNL     1       8.215   5.896  19.380  0.00  0.00    +0.000 OA
ATOM     19  C   UNL     1       7.550   6.352  18.458  0.00  0.00    +0.000 C 
ATOM     20  N   UNL     1       7.733   7.612  17.941  0.00  0.00    +0.000 N 
ATOM     21  H   UNL     1       6.987   8.027  17.397  0.00  0.00    +0.000 HD
BRANCH  20  22
ATOM     22  C   UNL     1       8.746   8.493  18.493  0.00  0.00    +0.000 C 
BRANCH  22  23
ATOM     23  C   UNL     1       8.385   9.942  18.213  0.00  0.00    +0.000 C 
BRANCH  23  24
ATOM     24  C   UNL     1       9.019  10.914  19.216  0.00  0.00    +0.000 C 
BRANCH  24  25
ATOM     25  N   UNL     1      10.472  11.015  19.004  0.00  0.00    +0.000 NA
ATOM     26  C   UNL     1      11.149  11.758  20.081  0.00  0.00    +0.000 C 
ATOM     27  C   UNL     1      11.428  13.135  19.512  0.00  0.00    +0.000 C 
ATOM     28  C   UNL     1      11.737  12.839  18.062  0.00  0.00    +0.000 C 
ATOM     29  C   UNL     1      10.824  11.671  17.733  0.00  0.00    +0.000 C 
ENDBRANCH  24  25
ENDBRANCH  23  24
ENDBRANCH  22  23
ENDBRANCH  20  22
ENDBRANCH   1  19
TORSDOF 6
ENDMDL
MODEL 9
REMARK VINA RESULT:      -8.3      3.423      6.044
REMARK  Name = 
REMARK  6 active torsions:
REMARK  status: ('A' for Active; 'I' for Inactive)
REMARK    1  A    between atoms: C_2  and  C_12
REMARK    2  A    between atoms: N_3  and  C_4
REMARK    3  A    between atoms: C_4  and  C_5
REMARK    4  A    between atoms: C_5  and  C_6
REMARK    5  A    between atoms: C_6  and  N_7
REMARK    6  A    between atoms: C_14  and  C_15
REMARK                            x       y       z     vdW  Elec       q    Type
REMARK                         _______ _______ _______ _____ _____    ______ ____
ROOT
ATOM      1  C   UNL     1       3.197   4.224  18.705  0.00  0.00    +0.000 A 
ATOM      2  C   UNL     1       2.883   5.573  18.515  0.00  0.00    +0.000 A 
ATOM      3  C   UNL     1       2.284   6.313  19.538  0.00  0.00    +0.000 A 
ATOM      4  N   UNL     1       2.017   5.795  20.766  0.00  0.00    +0.000 NA
ATOM      5  C   UNL     1       2.360   4.501  20.908  0.00  0.00    +0.000 A 
ATOM      6  N   UNL     1       2.221   3.746  22.038  0.00  0.00    +0.000 N 
ATOM      7  N   UNL     1       2.653   2.475  21.900  0.00  0.00    +0.000 NA
ATOM      8  C   UNL     1       3.103   2.438  20.641  0.00  0.00    +0.000 A 
ATOM      9  C   UNL     1       2.933   3.665  19.960  0.00  0.00    +0.000 A 
ATOM     10  H   UNL     1       1.847   4.047  22.929  0.00  0.00    +0.000 HD
ENDROOT
BRANCH   3  11
ATOM     11  C   UNL     1       1.934   7.738  19.347  0.00  0.00    +0.000 A 
ATOM     12  C   UNL     1       2.163   8.393  18.121  0.00  0.00    +0.000 A 
ATOM     13  C   UNL     1       1.766   9.722  17.918  0.00  0.00    +0.000 A 
ATOM     14  C   UNL     1       1.135  10.429  18.934  0.00  0.00    +0.000 A 
ATOM     15  C   UNL     1       0.919   9.818  20.162  0.00  0.00    +0.000 A 
ATOM     16  C   UNL     1       1.333   8.500  20.364  0.00  0.00    +0.000 A 
ATOM     17  F   UNL     1       1.138   7.980  21.587  0.00  0.00    +0.000 F 
ENDBRANCH   3  11
BRANCH   1  19
ATOM     18  O   UNL     1       3.936   2.268  17.654  0.00  0.00    +0.000 OA
ATOM     19  C   UNL     1       3.831   3.487  17.595  0.00  0.00    +0.000 C 
ATOM     20  N   UNL     1       4.329   4.242  16.560  0.00  0.00    +0.000 N 
ATOM     21  H   UNL     1       4.466   5.235  16.705  0.00  0.00    +0.000 HD
BRANCH  20  22
ATOM     22  C   UNL     1       5.039   3.609  15.463  0.00  0.00    +0.000 C 
BRANCH  22  23
ATOM     23  C   UNL     1       6.090   4.555  14.908  0.00  0.00    +0.000 C 
BRANCH  23  24
ATOM     24  C   UNL     1       6.195   5.858  15.710  0.00  0.00    +0.000 C 
BRANCH  24  25
ATOM     25  N   UNL     1       7.453   5.907  16.472  0.00  0.00    +0.000 NA
ATOM     26  C   UNL     1       7.615   4.748  17.367  0.00  0.00    +0.000 C 
ATOM     27  C   UNL     1       7.284   5.257  18.756  0.00  0.00    +0.000 C 
ATOM     28  C   UNL     1       7.822   6.669  18.729  0.00  0.00    +0.000 C 
ATOM     29  C   UNL     1       7.578   7.118  17.300  0.00  0.00    +0.000 C 
ENDBRANCH  24  25
ENDBRANCH  23  24
ENDBRANCH  22  23
ENDBRANCH  20  22
ENDBRANCH   1  19
TORSDOF 6
ENDMDL
