MODEL 1
REMARK VINA RESULT:      -8.7      0.000      0.000
REMARK  Name = 
REMARK  10 active torsions:
REMARK  status: ('A' for Active; 'I' for Inactive)
REMARK    1  A    between atoms: C_1  and  C_2
REMARK    2  A    between atoms: C_8  and  C_9
REMARK    3  A    between atoms: C_9  and  C_10
REMARK    4  A    between atoms: C_9  and  C_11
REMARK    5  A    between atoms: C_9  and  C_12
REMARK    6  A    between atoms: C_12  and  C_13
REMARK    7  A    between atoms: C_13  and  O_14
REMARK    8  A    between atoms: C_13  and  C_15
REMARK    9  A    between atoms: C_13  and  C_30
REMARK   10  A    between atoms: C_15  and  C_16
REMARK                            x       y       z     vdW  Elec       q    Type
REMARK                         _______ _______ _______ _____ _____    ______ ____
ROOT
ATOM      1  C   UNL     1       2.657   4.275  20.219  0.00  0.00    +0.000 C 
ENDROOT
BRANCH   1   2
ATOM      2  C   UNL     1       1.341   3.504  20.595  0.00  0.00    +0.000 C 
ATOM      3  F   UNL     1       1.126   3.379  21.909  0.00  0.00    +0.000 F 
ATOM      4  F   UNL     1       0.249   4.107  20.070  0.00  0.00    +0.000 F 
ATOM      5  F   UNL     1       1.348   2.238  20.101  0.00  0.00    +0.000 F 
ENDBRANCH   1   2
BRANCH   1   6
ATOM      6  O   UNL     1       3.245   4.897  21.385  0.00  0.00    +0.000 OA
ATOM      7  H   UNL     1       3.000   5.839  21.414  0.00  0.00    +0.000 HD
ENDBRANCH   1   6
BRANCH   1   8
ATOM      8  C   UNL     1       3.748   3.354  19.567  0.00  0.00    +0.000 C 
BRANCH   8   9
ATOM      9  C   UNL     1       3.880   3.196  17.976  0.00  0.00    +0.000 C 
ATOM     10  C   UNL     1       2.479   3.520  17.379  0.00  0.00    +0.000 C 
ATOM     11  C   UNL     1       4.126   1.685  17.689  0.00  0.00    +0.000 C 
BRANCH   9  19
ATOM     12  C   UNL     1       6.067   5.212  19.164  0.00  0.00    +0.000 C 
ATOM     13  C   UNL     1       6.024   4.757  17.730  0.00  0.00    +0.000 A 
ATOM     14  C   UNL     1       7.081   5.235  16.914  0.00  0.00    +0.000 A 
ATOM     15  C   UNL     1       7.194   4.895  15.571  0.00  0.00    +0.000 A 
ATOM     16  C   UNL     1       6.244   4.063  15.026  0.00  0.00    +0.000 A 
ATOM     17  F   UNL     1       6.346   3.688  13.743  0.00  0.00    +0.000 F 
ATOM     18  C   UNL     1       5.186   3.586  15.797  0.00  0.00    +0.000 A 
ATOM     19  C   UNL     1       5.024   3.904  17.174  0.00  0.00    +0.000 A 
ENDBRANCH   9  19
ENDBRANCH   8   9
ENDBRANCH   1   8
BRANCH   1  20
ATOM     20  C   UNL     1       2.181   5.428  19.264  0.00  0.00    +0.000 C 
BRANCH  20  21
ATOM     21  C   UNL     1       1.889   6.803  19.820  0.00  0.00    +0.000 A 
ATOM     22  C   UNL     1       1.300   7.218  21.014  0.00  0.00    +0.000 A 
ATOM     23  C   UNL     1       0.985   8.607  20.895  0.00  0.00    +0.000 A 
ATOM     24  N   UNL     1       0.347   9.442  21.749  0.00  0.00    +0.000 NA
ATOM     25  C   UNL     1       0.149  10.692  21.291  0.00  0.00    +0.000 A 
ATOM     26  N   UNL     1      -0.470  11.629  22.097  0.00  0.00    +0.000 N 
ATOM     27  C   UNL     1      -1.351  11.207  23.176  0.00  0.00    +0.000 C 
ATOM     28  C   UNL     1      -2.532  12.179  23.086  0.00  0.00    +0.000 C 
ATOM     29  C   UNL     1      -1.915  13.439  22.500  0.00  0.00    +0.000 C 
ATOM     30  C   UNL     1      -0.915  12.880  21.492  0.00  0.00    +0.000 C 
ATOM     31  N   UNL     1       0.531  11.122  20.066  0.00  0.00    +0.000 NA
ATOM     32  C   UNL     1       1.157  10.286  19.219  0.00  0.00    +0.000 A 
ATOM     33  C   UNL     1       1.404   9.005  19.638  0.00  0.00    +0.000 A 
ATOM     34  N   UNL     1       1.997   7.927  19.029  0.00  0.00    +0.000 N 
ATOM     35  H   UNL     1       2.349   7.938  18.081  0.00  0.00    +0.000 HD
ENDBRANCH  20  21
ENDBRANCH   1  20
TORSDOF 7
ENDMDL
MODEL 2
REMARK VINA RESULT:      -8.7      1.911      2.980
REMARK  Name = 
REMARK  10 active torsions:
REMARK  status: ('A' for Active; 'I' for Inactive)
REMARK    1  A    between atoms: C_1  and  C_2
REMARK    2  A    between atoms: C_8  and  C_9
REMARK    3  A    between atoms: C_9  and  C_10
REMARK    4  A    between atoms: C_9  and  C_11
REMARK    5  A    between atoms: C_9  and  C_12
REMARK    6  A    between atoms: C_12  and  C_13
REMARK    7  A    between atoms: C_13  and  O_14
REMARK    8  A    between atoms: C_13  and  C_15
REMARK    9  A    between atoms: C_13  and  C_30
REMARK   10  A    between atoms: C_15  and  C_16
REMARK                            x       y       z     vdW  Elec       q    Type
REMARK                         _______ _______ _______ _____ _____    ______ ____
ROOT
ATOM      1  C   UNL     1       4.223   4.140  17.954  0.00  0.00    +0.000 C 
ENDROOT
BRANCH   1   2
ATOM      2  C   UNL     1       3.893   2.936  18.907  0.00  0.00    +0.000 C 
ATOM      3  F   UNL     1       4.843   2.664  19.808  0.00  0.00    +0.000 F 
ATOM      4  F   UNL     1       2.745   3.148  19.591  0.00  0.00    +0.000 F 
ATOM      5  F   UNL     1       3.710   1.785  18.207  0.00  0.00    +0.000 F 
ENDBRANCH   1   2
BRANCH   1   6
ATOM      6  O   UNL     1       5.145   5.062  18.582  0.00  0.00    +0.000 OA
ATOM      7  H   UNL     1       5.989   4.612  18.760  0.00  0.00    +0.000 HD
ENDBRANCH   1   6
BRANCH   1   8
ATOM      8  C   UNL     1       4.850   3.693  16.586  0.00  0.00    +0.000 C 
BRANCH   8   9
ATOM      9  C   UNL     1       5.851   4.640  15.765  0.00  0.00    +0.000 C 
ATOM     10  C   UNL     1       7.176   4.702  16.581  0.00  0.00    +0.000 C 
ATOM     11  C   UNL     1       5.255   6.079  15.812  0.00  0.00    +0.000 C 
BRANCH   9  19
ATOM     12  C   UNL     1       8.356   5.745  14.104  0.00  0.00    +0.000 C 
ATOM     13  C   UNL     1       7.276   4.869  13.527  0.00  0.00    +0.000 A 
ATOM     14  C   UNL     1       7.465   4.492  12.172  0.00  0.00    +0.000 A 
ATOM     15  C   UNL     1       6.566   3.675  11.498  0.00  0.00    +0.000 A 
ATOM     16  C   UNL     1       5.459   3.220  12.177  0.00  0.00    +0.000 A 
ATOM     17  F   UNL     1       4.593   2.401  11.565  0.00  0.00    +0.000 F 
ATOM     18  C   UNL     1       5.238   3.583  13.504  0.00  0.00    +0.000 A 
ATOM     19  C   UNL     1       6.126   4.416  14.239  0.00  0.00    +0.000 A 
ENDBRANCH   9  19
ENDBRANCH   8   9
ENDBRANCH   1   8
BRANCH   1  20
ATOM     20  C   UNL     1       2.855   4.894  17.781  0.00  0.00    +0.000 C 
BRANCH  20  21
ATOM     21  C   UNL     1       2.596   6.180  18.532  0.00  0.00    +0.000 A 
ATOM     22  C   UNL     1       2.242   6.429  19.857  0.00  0.00    +0.000 A 
ATOM     23  C   UNL     1       1.820   7.791  19.957  0.00  0.00    +0.000 A 
ATOM     24  N   UNL     1       1.320   8.484  21.007  0.00  0.00    +0.000 NA
ATOM     25  C   UNL     1       0.950   9.750  20.737  0.00  0.00    +0.000 A 
ATOM     26  N   UNL     1       0.453  10.550  21.749  0.00  0.00    +0.000 N 
ATOM     27  C   UNL     1      -0.156   9.954  22.928  0.00  0.00    +0.000 C 
ATOM     28  C   UNL     1      -1.391  10.825  23.183  0.00  0.00    +0.000 C 
ATOM     29  C   UNL     1      -0.991  12.183  22.628  0.00  0.00    +0.000 C 
ATOM     30  C   UNL     1      -0.188  11.810  21.385  0.00  0.00    +0.000 C 
ATOM     31  N   UNL     1       1.042  10.324  19.516  0.00  0.00    +0.000 NA
ATOM     32  C   UNL     1       1.532   9.628  18.474  0.00  0.00    +0.000 A 
ATOM     33  C   UNL     1       1.943   8.340  18.693  0.00  0.00    +0.000 A 
ATOM     34  N   UNL     1       2.466   7.379  17.863  0.00  0.00    +0.000 N 
ATOM     35  H   UNL     1       2.612   7.509  16.871  0.00  0.00    +0.000 HD
ENDBRANCH  20  21
ENDBRANCH   1  20
TORSDOF 7
ENDMDL
MODEL 3
REMARK VINA RESULT:      -8.5      1.448      1.902
REMARK  Name = 
REMARK  10 active torsions:
REMARK  status: ('A' for Active; 'I' for Inactive)
REMARK    1  A    between atoms: C_1  and  C_2
REMARK    2  A    between atoms: C_8  and  C_9
REMARK    3  A    between atoms: C_9  and  C_10
REMARK    4  A    between atoms: C_9  and  C_11
REMARK    5  A    between atoms: C_9  and  C_12
REMARK    6  A    between atoms: C_12  and  C_13
REMARK    7  A    between atoms: C_13  and  O_14
REMARK    8  A    between atoms: C_13  and  C_15
REMARK    9  A    between atoms: C_13  and  C_30
REMARK   10  A    between atoms: C_15  and  C_16
REMARK                            x       y       z     vdW  Elec       q    Type
REMARK                         _______ _______ _______ _____ _____    ______ ____
ROOT
ATOM      1  C   UNL     1       2.542   4.520  20.225  0.00  0.00    +0.000 C 
ENDROOT
BRANCH   1   2
ATOM      2  C   UNL     1       2.309   3.189  21.025  0.00  0.00    +0.000 C 
ATOM      3  F   UNL     1       3.426   2.521  21.331  0.00  0.00    +0.000 F 
ATOM      4  F   UNL     1       1.653   3.419  22.187  0.00  0.00    +0.000 F 
ATOM      5  F   UNL     1       1.539   2.315  20.323  0.00  0.00    +0.000 F 
ENDBRANCH   1   2
BRANCH   1   6
ATOM      6  O   UNL     1       3.766   5.168  20.641  0.00  0.00    +0.000 OA
ATOM      7  H   UNL     1       3.611   5.667  21.462  0.00  0.00    +0.000 HD
ENDBRANCH   1   6
BRANCH   1   8
ATOM      8  C   UNL     1       2.619   4.303  18.672  0.00  0.00    +0.000 C 
BRANCH   8   9
ATOM      9  C   UNL     1       3.918   3.677  17.970  0.00  0.00    +0.000 C 
ATOM     10  C   UNL     1       3.599   2.178  17.697  0.00  0.00    +0.000 C 
ATOM     11  C   UNL     1       5.056   3.684  19.033  0.00  0.00    +0.000 C 
BRANCH   9  19
ATOM     12  C   UNL     1       4.272   6.824  17.488  0.00  0.00    +0.000 C 
ATOM     13  C   UNL     1       4.785   5.760  16.553  0.00  0.00    +0.000 A 
ATOM     14  C   UNL     1       5.516   6.240  15.436  0.00  0.00    +0.000 A 
ATOM     15  C   UNL     1       6.068   5.387  14.489  0.00  0.00    +0.000 A 
ATOM     16  C   UNL     1       5.895   4.031  14.651  0.00  0.00    +0.000 A 
ATOM     17  F   UNL     1       6.446   3.181  13.774  0.00  0.00    +0.000 F 
ATOM     18  C   UNL     1       5.171   3.528  15.730  0.00  0.00    +0.000 A 
ATOM     19  C   UNL     1       4.586   4.358  16.726  0.00  0.00    +0.000 A 
ENDBRANCH   9  19
ENDBRANCH   8   9
ENDBRANCH   1   8
BRANCH   1  20
ATOM     20  C   UNL     1       1.351   5.452  20.652  0.00  0.00    +0.000 C 
BRANCH  20  21
ATOM     21  C   UNL     1       1.460   6.950  20.480  0.00  0.00    +0.000 A 
ATOM     22  C   UNL     1       1.001   8.011  21.257  0.00  0.00    +0.000 A 
ATOM     23  C   UNL     1       1.099   9.208  20.480  0.00  0.00    +0.000 A 
ATOM     24  N   UNL     1       0.717  10.476  20.762  0.00  0.00    +0.000 NA
ATOM     25  C   UNL     1       0.892  11.364  19.766  0.00  0.00    +0.000 A 
ATOM     26  N   UNL     1       0.559  12.691  19.963  0.00  0.00    +0.000 N 
ATOM     27  C   UNL     1      -0.420  13.063  20.973  0.00  0.00    +0.000 C 
ATOM     28  C   UNL     1      -1.270  14.134  20.283  0.00  0.00    +0.000 C 
ATOM     29  C   UNL     1      -0.310  14.769  19.289  0.00  0.00    +0.000 C 
ATOM     30  C   UNL     1       0.500  13.571  18.800  0.00  0.00    +0.000 C 
ATOM     31  N   UNL     1       1.397  11.052  18.550  0.00  0.00    +0.000 NA
ATOM     32  C   UNL     1       1.767   9.789  18.272  0.00  0.00    +0.000 A 
ATOM     33  C   UNL     1       1.631   8.844  19.255  0.00  0.00    +0.000 A 
ATOM     34  N   UNL     1       1.897   7.498  19.292  0.00  0.00    +0.000 N 
ATOM     35  H   UNL     1       2.249   6.971  18.504  0.00  0.00    +0.000 HD
ENDBRANCH  20  21
ENDBRANCH   1  20
TORSDOF 7
ENDMDL
MODEL 4
REMARK VINA RESULT:      -8.4      1.951      2.590
REMARK  Name = 
REMARK  10 active torsions:
REMARK  status: ('A' for Active; 'I' for Inactive)
REMARK    1  A    between atoms: C_1  and  C_2
REMARK    2  A    between atoms: C_8  and  C_9
REMARK    3  A    between atoms: C_9  and  C_10
REMARK    4  A    between atoms: C_9  and  C_11
REMARK    5  A    between atoms: C_9  and  C_12
REMARK    6  A    between atoms: C_12  and  C_13
REMARK    7  A    between atoms: C_13  and  O_14
REMARK    8  A    between atoms: C_13  and  C_15
REMARK    9  A    between atoms: C_13  and  C_30
REMARK   10  A    between atoms: C_15  and  C_16
REMARK                            x       y       z     vdW  Elec       q    Type
REMARK                         _______ _______ _______ _____ _____    ______ ____
ROOT
ATOM      1  C   UNL     1       2.744   4.773  20.048  0.00  0.00    +0.000 C 
ENDROOT
BRANCH   1   2
ATOM      2  C   UNL     1       2.548   3.450  20.871  0.00  0.00    +0.000 C 
ATOM      3  F   UNL     1       1.631   2.615  20.370  0.00  0.00    +0.000 F 
ATOM      4  F   UNL     1       3.705   2.754  20.971  0.00  0.00    +0.000 F 
ATOM      5  F   UNL     1       2.151   3.711  22.144  0.00  0.00    +0.000 F 
ENDBRANCH   1   2
BRANCH   1   6
ATOM      6  O   UNL     1       3.937   5.475  20.470  0.00  0.00    +0.000 OA
ATOM      7  H   UNL     1       4.726   4.984  20.183  0.00  0.00    +0.000 HD
ENDBRANCH   1   6
BRANCH   1   8
ATOM      8  C   UNL     1       2.854   4.528  18.501  0.00  0.00    +0.000 C 
BRANCH   8   9
ATOM      9  C   UNL     1       4.249   4.159  17.801  0.00  0.00    +0.000 C 
ATOM     10  C   UNL     1       3.914   3.716  16.346  0.00  0.00    +0.000 C 
ATOM     11  C   UNL     1       4.794   2.888  18.518  0.00  0.00    +0.000 C 
BRANCH   9  19
ATOM     12  C   UNL     1       4.437   7.010  16.354  0.00  0.00    +0.000 C 
ATOM     13  C   UNL     1       5.516   6.432  17.230  0.00  0.00    +0.000 A 
ATOM     14  C   UNL     1       6.638   7.274  17.442  0.00  0.00    +0.000 A 
ATOM     15  C   UNL     1       7.711   6.894  18.237  0.00  0.00    +0.000 A 
ATOM     16  C   UNL     1       7.674   5.656  18.837  0.00  0.00    +0.000 A 
ATOM     17  F   UNL     1       8.678   5.275  19.640  0.00  0.00    +0.000 F 
ATOM     18  C   UNL     1       6.593   4.799  18.639  0.00  0.00    +0.000 A 
ATOM     19  C   UNL     1       5.470   5.140  17.836  0.00  0.00    +0.000 A 
ENDBRANCH   9  19
ENDBRANCH   8   9
ENDBRANCH   1   8
BRANCH   1  20
ATOM     20  C   UNL     1       1.513   5.667  20.438  0.00  0.00    +0.000 C 
BRANCH  20  21
ATOM     21  C   UNL     1       1.592   7.171  20.298  0.00  0.00    +0.000 A 
ATOM     22  C   UNL     1       1.107   8.206  21.096  0.00  0.00    +0.000 A 
ATOM     23  C   UNL     1       1.185   9.421  20.345  0.00  0.00    +0.000 A 
ATOM     24  N   UNL     1       0.777  10.674  20.653  0.00  0.00    +0.000 NA
ATOM     25  C   UNL     1       0.939  11.587  19.676  0.00  0.00    +0.000 A 
ATOM     26  N   UNL     1       0.578  12.903  19.900  0.00  0.00    +0.000 N 
ATOM     27  C   UNL     1      -0.414  13.233  20.913  0.00  0.00    +0.000 C 
ATOM     28  C   UNL     1      -1.282  14.301  20.241  0.00  0.00    +0.000 C 
ATOM     29  C   UNL     1      -0.330  14.977  19.267  0.00  0.00    +0.000 C 
ATOM     30  C   UNL     1       0.506  13.806  18.756  0.00  0.00    +0.000 C 
ATOM     31  N   UNL     1       1.455  11.312  18.457  0.00  0.00    +0.000 NA
ATOM     32  C   UNL     1       1.852  10.063  18.154  0.00  0.00    +0.000 A 
ATOM     33  C   UNL     1       1.730   9.094  19.116  0.00  0.00    +0.000 A 
ATOM     34  N   UNL     1       2.024   7.753  19.125  0.00  0.00    +0.000 N 
ATOM     35  H   UNL     1       2.390   7.250  18.328  0.00  0.00    +0.000 HD
ENDBRANCH  20  21
ENDBRANCH   1  20
TORSDOF 7
ENDMDL
MODEL 5
REMARK VINA RESULT:      -8.4      6.002      8.143
REMARK  Name = 
REMARK  10 active torsions:
REMARK  status: ('A' for Active; 'I' for Inactive)
REMARK    1  A    between atoms: C_1  and  C_2
REMARK    2  A    between atoms: C_8  and  C_9
REMARK    3  A    between atoms: C_9  and  C_10
REMARK    4  A    between atoms: C_9  and  C_11
REMARK    5  A    between atoms: C_9  and  C_12
REMARK    6  A    between atoms: C_12  and  C_13
REMARK    7  A    between atoms: C_13  and  O_14
REMARK    8  A    between atoms: C_13  and  C_15
REMARK    9  A    between atoms: C_13  and  C_30
REMARK   10  A    between atoms: C_15  and  C_16
REMARK                            x       y       z     vdW  Elec       q    Type
REMARK                         _______ _______ _______ _____ _____    ______ ____
ROOT
ATOM      1  C   UNL     1       7.193   6.429  17.638  0.00  0.00    +0.000 C 
ENDROOT
BRANCH   1   2
ATOM      2  C   UNL     1       7.217   4.888  17.941  0.00  0.00    +0.000 C 
ATOM      3  F   UNL     1       6.384   4.500  18.913  0.00  0.00    +0.000 F 
ATOM      4  F   UNL     1       6.907   4.164  16.840  0.00  0.00    +0.000 F 
ATOM      5  F   UNL     1       8.452   4.476  18.330  0.00  0.00    +0.000 F 
ENDBRANCH   1   2
BRANCH   1   6
ATOM      6  O   UNL     1       7.568   6.694  16.267  0.00  0.00    +0.000 OA
ATOM      7  H   UNL     1       7.222   5.992  15.689  0.00  0.00    +0.000 HD
ENDBRANCH   1   6
BRANCH   1   8
ATOM      8  C   UNL     1       5.790   7.086  17.887  0.00  0.00    +0.000 C 
BRANCH   8   9
ATOM      9  C   UNL     1       4.462   6.540  17.173  0.00  0.00    +0.000 C 
ATOM     10  C   UNL     1       4.865   6.147  15.722  0.00  0.00    +0.000 C 
ATOM     11  C   UNL     1       3.491   7.751  17.033  0.00  0.00    +0.000 C 
BRANCH   9  19
ATOM     12  C   UNL     1       2.524   6.935  19.693  0.00  0.00    +0.000 C 
ATOM     13  C   UNL     1       2.667   5.646  18.928  0.00  0.00    +0.000 A 
ATOM     14  C   UNL     1       1.820   4.592  19.357  0.00  0.00    +0.000 A 
ATOM     15  C   UNL     1       1.820   3.345  18.745  0.00  0.00    +0.000 A 
ATOM     16  C   UNL     1       2.674   3.136  17.687  0.00  0.00    +0.000 A 
ATOM     17  F   UNL     1       2.671   1.955  17.053  0.00  0.00    +0.000 F 
ATOM     18  C   UNL     1       3.528   4.146  17.248  0.00  0.00    +0.000 A 
ATOM     19  C   UNL     1       3.567   5.439  17.839  0.00  0.00    +0.000 A 
ENDBRANCH   9  19
ENDBRANCH   8   9
ENDBRANCH   1   8
BRANCH   1  20
ATOM     20  C   UNL     1       8.319   7.029  18.555  0.00  0.00    +0.000 C 
BRANCH  20  21
ATOM     21  C   UNL     1       8.499   8.527  18.655  0.00  0.00    +0.000 A 
ATOM     22  C   UNL     1       8.626   9.515  17.681  0.00  0.00    +0.000 A 
ATOM     23  C   UNL     1       9.085  10.711  18.316  0.00  0.00    +0.000 A 
ATOM     24  N   UNL     1       9.423  11.913  17.793  0.00  0.00    +0.000 NA
ATOM     25  C   UNL     1       9.890  12.814  18.678  0.00  0.00    +0.000 A 
ATOM     26  N   UNL     1      10.237  14.081  18.249  0.00  0.00    +0.000 N 
ATOM     27  C   UNL     1      10.603  14.314  16.859  0.00  0.00    +0.000 C 
ATOM     28  C   UNL     1      11.811  15.252  16.951  0.00  0.00    +0.000 C 
ATOM     29  C   UNL     1      11.576  16.013  18.246  0.00  0.00    +0.000 C 
ATOM     30  C   UNL     1      10.988  14.941  19.158  0.00  0.00    +0.000 C 
ATOM     31  N   UNL     1      10.040  12.573  20.000  0.00  0.00    +0.000 NA
ATOM     32  C   UNL     1       9.710  11.374  20.513  0.00  0.00    +0.000 A 
ATOM     33  C   UNL     1       9.210  10.422  19.664  0.00  0.00    +0.000 A 
ATOM     34  N   UNL     1       8.798   9.127  19.860  0.00  0.00    +0.000 N 
ATOM     35  H   UNL     1       8.834   8.652  20.752  0.00  0.00    +0.000 HD
ENDBRANCH  20  21
ENDBRANCH   1  20
TORSDOF 7
ENDMDL
MODEL 6
REMARK VINA RESULT:      -8.4      2.069      3.052
REMARK  Name = 
REMARK  10 active torsions:
REMARK  status: ('A' for Active; 'I' for Inactive)
REMARK    1  A    between atoms: C_1  and  C_2
REMARK    2  A    between atoms: C_8  and  C_9
REMARK    3  A    between atoms: C_9  and  C_10
REMARK    4  A    between atoms: C_9  and  C_11
REMARK    5  A    between atoms: C_9  and  C_12
REMARK    6  A    between atoms: C_12  and  C_13
REMARK    7  A    between atoms: C_13  and  O_14
REMARK    8  A    between atoms: C_13  and  C_15
REMARK    9  A    between atoms: C_13  and  C_30
REMARK   10  A    between atoms: C_15  and  C_16
REMARK                            x       y       z     vdW  Elec       q    Type
REMARK                         _______ _______ _______ _____ _____    ______ ____
ROOT
ATOM      1  C   UNL     1       3.157   3.723  18.279  0.00  0.00    +0.000 C 
ENDROOT
BRANCH   1   2
ATOM      2  C   UNL     1       1.624   3.485  18.523  0.00  0.00    +0.000 C 
ATOM      3  F   UNL     1       1.220   3.705  19.779  0.00  0.00    +0.000 F 
ATOM      4  F   UNL     1       0.869   4.270  17.720  0.00  0.00    +0.000 F 
ATOM      5  F   UNL     1       1.269   2.203  18.242  0.00  0.00    +0.000 F 
ENDBRANCH   1   2
BRANCH   1   6
ATOM      6  O   UNL     1       3.927   2.549  18.624  0.00  0.00    +0.000 OA
ATOM      7  H   UNL     1       4.717   2.495  18.058  0.00  0.00    +0.000 HD
ENDBRANCH   1   6
BRANCH   1   8
ATOM      8  C   UNL     1       3.496   4.098  16.793  0.00  0.00    +0.000 C 
BRANCH   8   9
ATOM      9  C   UNL     1       5.010   4.227  16.277  0.00  0.00    +0.000 C 
ATOM     10  C   UNL     1       4.941   4.399  14.732  0.00  0.00    +0.000 C 
ATOM     11  C   UNL     1       5.691   2.847  16.522  0.00  0.00    +0.000 C 
BRANCH   9  19
ATOM     12  C   UNL     1       5.015   7.406  15.888  0.00  0.00    +0.000 C 
ATOM     13  C   UNL     1       5.967   6.660  16.784  0.00  0.00    +0.000 A 
ATOM     14  C   UNL     1       6.862   7.475  17.525  0.00  0.00    +0.000 A 
ATOM     15  C   UNL     1       7.793   6.942  18.407  0.00  0.00    +0.000 A 
ATOM     16  C   UNL     1       7.840   5.575  18.562  0.00  0.00    +0.000 A 
ATOM     17  F   UNL     1       8.702   5.034  19.433  0.00  0.00    +0.000 F 
ATOM     18  C   UNL     1       6.984   4.746  17.840  0.00  0.00    +0.000 A 
ATOM     19  C   UNL     1       6.013   5.241  16.925  0.00  0.00    +0.000 A 
ENDBRANCH   9  19
ENDBRANCH   8   9
ENDBRANCH   1   8
BRANCH   1  20
ATOM     20  C   UNL     1       3.548   4.854  19.298  0.00  0.00    +0.000 C 
BRANCH  20  21
ATOM     21  C   UNL     1       2.705   6.105  19.403  0.00  0.00    +0.000 A 
ATOM     22  C   UNL     1       2.534   7.187  18.542  0.00  0.00    +0.000 A 
ATOM     23  C   UNL     1       1.877   8.232  19.264  0.00  0.00    +0.000 A 
ATOM     24  N   UNL     1       1.555   9.492  18.891  0.00  0.00    +0.000 NA
ATOM     25  C   UNL     1       0.996  10.251  19.852  0.00  0.00    +0.000 A 
ATOM     26  N   UNL     1       0.605  11.546  19.565  0.00  0.00    +0.000 N 
ATOM     27  C   UNL     1       1.220  12.275  18.466  0.00  0.00    +0.000 C 
ATOM     28  C   UNL     1       1.441  13.680  19.036  0.00  0.00    +0.000 C 
ATOM     29  C   UNL     1       0.333  13.826  20.066  0.00  0.00    +0.000 C 
ATOM     30  C   UNL     1       0.259  12.429  20.675  0.00  0.00    +0.000 C 
ATOM     31  N   UNL     1       0.767   9.829  21.117  0.00  0.00    +0.000 NA
ATOM     32  C   UNL     1       1.097   8.577  21.484  0.00  0.00    +0.000 A 
ATOM     33  C   UNL     1       1.652   7.752  20.542  0.00  0.00    +0.000 A 
ATOM     34  N   UNL     1       2.100   6.455  20.592  0.00  0.00    +0.000 N 
ATOM     35  H   UNL     1       2.095   5.888  21.430  0.00  0.00    +0.000 HD
ENDBRANCH  20  21
ENDBRANCH   1  20
TORSDOF 7
ENDMDL
MODEL 7
REMARK VINA RESULT:      -8.4      1.203      1.939
REMARK  Name = 
REMARK  10 active torsions:
REMARK  status: ('A' for Active; 'I' for Inactive)
REMARK    1  A    between atoms: C_1  and  C_2
REMARK    2  A    between atoms: C_8  and  C_9
REMARK    3  A    between atoms: C_9  and  C_10
REMARK    4  A    between atoms: C_9  and  C_11
REMARK    5  A    between atoms: C_9  and  C_12
REMARK    6  A    between atoms: C_12  and  C_13
REMARK    7  A    between atoms: C_13  and  O_14
REMARK    8  A    between atoms: C_13  and  C_15
REMARK    9  A    between atoms: C_13  and  C_30
REMARK   10  A    between atoms: C_15  and  C_16
REMARK                            x       y       z     vdW  Elec       q    Type
REMARK                         _______ _______ _______ _____ _____    ______ ____
ROOT
ATOM      1  C   UNL     1       2.658   4.605  19.927  0.00  0.00    +0.000 C 
ENDROOT
BRANCH   1   2
ATOM      2  C   UNL     1       1.156   4.205  19.706  0.00  0.00    +0.000 C 
ATOM      3  F   UNL     1       0.674   4.504  18.494  0.00  0.00    +0.000 F 
ATOM      4  F   UNL     1       0.965   2.878  19.893  0.00  0.00    +0.000 F 
ATOM      5  F   UNL     1       0.338   4.834  20.591  0.00  0.00    +0.000 F 
ENDBRANCH   1   2
BRANCH   1   6
ATOM      6  O   UNL     1       2.913   4.919  21.316  0.00  0.00    +0.000 OA
ATOM      7  H   UNL     1       2.072   5.092  21.774  0.00  0.00    +0.000 HD
ENDBRANCH   1   6
BRANCH   1   8
ATOM      8  C   UNL     1       3.667   3.481  19.498  0.00  0.00    +0.000 C 
BRANCH   8   9
ATOM      9  C   UNL     1       3.975   3.166  17.956  0.00  0.00    +0.000 C 
ATOM     10  C   UNL     1       2.612   3.233  17.206  0.00  0.00    +0.000 C 
ATOM     11  C   UNL     1       4.430   1.677  17.880  0.00  0.00    +0.000 C 
BRANCH   9  19
ATOM     12  C   UNL     1       6.265   5.008  19.228  0.00  0.00    +0.000 C 
ATOM     13  C   UNL     1       6.145   4.697  17.759  0.00  0.00    +0.000 A 
ATOM     14  C   UNL     1       7.176   5.231  16.944  0.00  0.00    +0.000 A 
ATOM     15  C   UNL     1       7.218   5.023  15.571  0.00  0.00    +0.000 A 
ATOM     16  C   UNL     1       6.222   4.269  14.993  0.00  0.00    +0.000 A 
ATOM     17  F   UNL     1       6.255   4.019  13.676  0.00  0.00    +0.000 F 
ATOM     18  C   UNL     1       5.189   3.741  15.764  0.00  0.00    +0.000 A 
ATOM     19  C   UNL     1       5.099   3.924  17.172  0.00  0.00    +0.000 A 
ENDBRANCH   9  19
ENDBRANCH   8   9
ENDBRANCH   1   8
BRANCH   1  20
ATOM     20  C   UNL     1       2.839   5.933  19.107  0.00  0.00    +0.000 C 
BRANCH  20  21
ATOM     21  C   UNL     1       2.071   7.176  19.496  0.00  0.00    +0.000 A 
ATOM     22  C   UNL     1       1.717   8.314  18.775  0.00  0.00    +0.000 A 
ATOM     23  C   UNL     1       1.275   9.309  19.701  0.00  0.00    +0.000 A 
ATOM     24  N   UNL     1       0.896  10.593  19.501  0.00  0.00    +0.000 NA
ATOM     25  C   UNL     1       0.602  11.286  20.617  0.00  0.00    +0.000 A 
ATOM     26  N   UNL     1       0.178  12.599  20.519  0.00  0.00    +0.000 N 
ATOM     27  C   UNL     1       0.522  13.399  19.353  0.00  0.00    +0.000 C 
ATOM     28  C   UNL     1       0.902  14.761  19.942  0.00  0.00    +0.000 C 
ATOM     29  C   UNL     1       0.080  14.841  21.219  0.00  0.00    +0.000 C 
ATOM     30  C   UNL     1       0.129  13.405  21.734  0.00  0.00    +0.000 C 
ATOM     31  N   UNL     1       0.678  10.780  21.869  0.00  0.00    +0.000 NA
ATOM     32  C   UNL     1       1.063   9.505  22.063  0.00  0.00    +0.000 A 
ATOM     33  C   UNL     1       1.357   8.744  20.962  0.00  0.00    +0.000 A 
ATOM     34  N   UNL     1       1.779   7.446  20.817  0.00  0.00    +0.000 N 
ATOM     35  H   UNL     1       1.966   6.823  21.592  0.00  0.00    +0.000 HD
ENDBRANCH  20  21
ENDBRANCH   1  20
TORSDOF 7
ENDMDL
MODEL 8
REMARK VINA RESULT:      -8.4      2.054      2.672
REMARK  Name = 
REMARK  10 active torsions:
REMARK  status: ('A' for Active; 'I' for Inactive)
REMARK    1  A    between atoms: C_1  and  C_2
REMARK    2  A    between atoms: C_8  and  C_9
REMARK    3  A    between atoms: C_9  and  C_10
REMARK    4  A    between atoms: C_9  and  C_11
REMARK    5  A    between atoms: C_9  and  C_12
REMARK    6  A    between atoms: C_12  and  C_13
REMARK    7  A    between atoms: C_13  and  O_14
REMARK    8  A    between atoms: C_13  and  C_15
REMARK    9  A    between atoms: C_13  and  C_30
REMARK   10  A    between atoms: C_15  and  C_16
REMARK                            x       y       z     vdW  Elec       q    Type
REMARK                         _______ _______ _______ _____ _____    ______ ____
ROOT
ATOM      1  C   UNL     1       2.305   4.160  19.802  0.00  0.00    +0.000 C 
ENDROOT
BRANCH   1   2
ATOM      2  C   UNL     1       1.285   3.026  19.427  0.00  0.00    +0.000 C 
ATOM      3  F   UNL     1       1.810   1.796  19.389  0.00  0.00    +0.000 F 
ATOM      4  F   UNL     1       0.248   2.988  20.296  0.00  0.00    +0.000 F 
ATOM      5  F   UNL     1       0.742   3.232  18.198  0.00  0.00    +0.000 F 
ENDBRANCH   1   2
BRANCH   1   6
ATOM      6  O   UNL     1       3.359   3.650  20.651  0.00  0.00    +0.000 OA
ATOM      7  H   UNL     1       3.680   2.800  20.302  0.00  0.00    +0.000 HD
ENDBRANCH   1   6
BRANCH   1   8
ATOM      8  C   UNL     1       2.978   4.825  18.549  0.00  0.00    +0.000 C 
BRANCH   8   9
ATOM      9  C   UNL     1       4.390   4.320  17.981  0.00  0.00    +0.000 C 
ATOM     10  C   UNL     1       4.116   3.730  16.566  0.00  0.00    +0.000 C 
ATOM     11  C   UNL     1       4.831   3.116  18.866  0.00  0.00    +0.000 C 
BRANCH   9  19
ATOM     12  C   UNL     1       4.832   6.931  16.179  0.00  0.00    +0.000 C 
ATOM     13  C   UNL     1       5.811   6.438  17.211  0.00  0.00    +0.000 A 
ATOM     14  C   UNL     1       6.955   7.256  17.397  0.00  0.00    +0.000 A 
ATOM     15  C   UNL     1       7.945   6.948  18.323  0.00  0.00    +0.000 A 
ATOM     16  C   UNL     1       7.799   5.809  19.081  0.00  0.00    +0.000 A 
ATOM     17  F   UNL     1       8.719   5.504  20.007  0.00  0.00    +0.000 F 
ATOM     18  C   UNL     1       6.694   4.977  18.914  0.00  0.00    +0.000 A 
ATOM     19  C   UNL     1       5.653   5.247  17.981  0.00  0.00    +0.000 A 
ENDBRANCH   9  19
ENDBRANCH   8   9
ENDBRANCH   1   8
BRANCH   1  20
ATOM     20  C   UNL     1       1.467   5.178  20.657  0.00  0.00    +0.000 C 
BRANCH  20  21
ATOM     21  C   UNL     1       1.601   6.664  20.413  0.00  0.00    +0.000 A 
ATOM     22  C   UNL     1       1.164   7.769  21.141  0.00  0.00    +0.000 A 
ATOM     23  C   UNL     1       1.279   8.926  20.308  0.00  0.00    +0.000 A 
ATOM     24  N   UNL     1       0.920  10.212  20.531  0.00  0.00    +0.000 NA
ATOM     25  C   UNL     1       1.105  11.048  19.493  0.00  0.00    +0.000 A 
ATOM     26  N   UNL     1       0.796  12.389  19.628  0.00  0.00    +0.000 N 
ATOM     27  C   UNL     1      -0.171  12.826  20.625  0.00  0.00    +0.000 C 
ATOM     28  C   UNL     1      -1.007  13.877  19.888  0.00  0.00    +0.000 C 
ATOM     29  C   UNL     1      -0.041  14.448  18.862  0.00  0.00    +0.000 C 
ATOM     30  C   UNL     1       0.745  13.214  18.426  0.00  0.00    +0.000 C 
ATOM     31  N   UNL     1       1.598  10.671  18.291  0.00  0.00    +0.000 NA
ATOM     32  C   UNL     1       1.945   9.390  18.072  0.00  0.00    +0.000 A 
ATOM     33  C   UNL     1       1.798   8.495  19.100  0.00  0.00    +0.000 A 
ATOM     34  N   UNL     1       2.041   7.148  19.199  0.00  0.00    +0.000 N 
ATOM     35  H   UNL     1       2.379   6.578  18.435  0.00  0.00    +0.000 HD
ENDBRANCH  20  21
ENDBRANCH   1  20
TORSDOF 7
ENDMDL
MODEL 9
REMARK VINA RESULT:      -8.3      1.376      1.840
REMARK  Name = 
REMARK  10 active torsions:
REMARK  status: ('A' for Active; 'I' for Inactive)
REMARK    1  A    between atoms: C_1  and  C_2
REMARK    2  A    between atoms: C_8  and  C_9
REMARK    3  A    between atoms: C_9  and  C_10
REMARK    4  A    between atoms: C_9  and  C_11
REMARK    5  A    between atoms: C_9  and  C_12
REMARK    6  A    between atoms: C_12  and  C_13
REMARK    7  A    between atoms: C_13  and  O_14
REMARK    8  A    between atoms: C_13  and  C_15
REMARK    9  A    between atoms: C_13  and  C_30
REMARK   10  A    between atoms: C_15  and  C_16
REMARK                            x       y       z     vdW  Elec       q    Type
REMARK                         _______ _______ _______ _____ _____    ______ ____
ROOT
ATOM      1  C   UNL     1       2.410   4.324  20.335  0.00  0.00    +0.000 C 
ENDROOT
BRANCH   1   2
ATOM      2  C   UNL     1       2.001   2.997  21.069  0.00  0.00    +0.000 C 
ATOM      3  F   UNL     1       0.990   3.130  21.934  0.00  0.00    +0.000 F 
ATOM      4  F   UNL     1       1.643   2.035  20.186  0.00  0.00    +0.000 F 
ATOM      5  F   UNL     1       3.035   2.487  21.787  0.00  0.00    +0.000 F 
ENDBRANCH   1   2
BRANCH   1   6
ATOM      6  O   UNL     1       3.617   4.882  20.904  0.00  0.00    +0.000 OA
ATOM      7  H   UNL     1       3.869   5.687  20.418  0.00  0.00    +0.000 HD
ENDBRANCH   1   6
BRANCH   1   8
ATOM      8  C   UNL     1       2.652   4.130  18.796  0.00  0.00    +0.000 C 
BRANCH   8   9
ATOM      9  C   UNL     1       3.923   3.329  18.234  0.00  0.00    +0.000 C 
ATOM     10  C   UNL     1       3.380   2.007  17.619  0.00  0.00    +0.000 C 
ATOM     11  C   UNL     1       4.774   2.906  19.469  0.00  0.00    +0.000 C 
BRANCH   9  19
ATOM     12  C   UNL     1       6.151   5.459  19.104  0.00  0.00    +0.000 C 
ATOM     13  C   UNL     1       5.995   4.918  17.707  0.00  0.00    +0.000 A 
ATOM     14  C   UNL     1       6.962   5.371  16.773  0.00  0.00    +0.000 A 
ATOM     15  C   UNL     1       6.965   4.953  15.448  0.00  0.00    +0.000 A 
ATOM     16  C   UNL     1       5.992   4.070  15.038  0.00  0.00    +0.000 A 
ATOM     17  F   UNL     1       5.991   3.622  13.775  0.00  0.00    +0.000 F 
ATOM     18  C   UNL     1       5.020   3.617  15.928  0.00  0.00    +0.000 A 
ATOM     19  C   UNL     1       4.973   4.013  17.293  0.00  0.00    +0.000 A 
ENDBRANCH   9  19
ENDBRANCH   8   9
ENDBRANCH   1   8
BRANCH   1  20
ATOM     20  C   UNL     1       1.240   5.326  20.647  0.00  0.00    +0.000 C 
BRANCH  20  21
ATOM     21  C   UNL     1       1.433   6.810  20.432  0.00  0.00    +0.000 A 
ATOM     22  C   UNL     1       0.982   7.919  21.145  0.00  0.00    +0.000 A 
ATOM     23  C   UNL     1       1.186   9.081  20.337  0.00  0.00    +0.000 A 
ATOM     24  N   UNL     1       0.852  10.375  20.554  0.00  0.00    +0.000 NA
ATOM     25  C   UNL     1       1.130  11.217  19.542  0.00  0.00    +0.000 A 
ATOM     26  N   UNL     1       0.853  12.565  19.675  0.00  0.00    +0.000 N 
ATOM     27  C   UNL     1      -0.165  13.020  20.612  0.00  0.00    +0.000 C 
ATOM     28  C   UNL     1      -0.918  14.105  19.836  0.00  0.00    +0.000 C 
ATOM     29  C   UNL     1       0.130  14.657  18.883  0.00  0.00    +0.000 C 
ATOM     30  C   UNL     1       0.906  13.406  18.483  0.00  0.00    +0.000 C 
ATOM     31  N   UNL     1       1.689  10.839  18.370  0.00  0.00    +0.000 NA
ATOM     32  C   UNL     1       2.012   9.551  18.156  0.00  0.00    +0.000 A 
ATOM     33  C   UNL     1       1.770   8.649  19.160  0.00  0.00    +0.000 A 
ATOM     34  N   UNL     1       1.966   7.294  19.256  0.00  0.00    +0.000 N 
ATOM     35  H   UNL     1       2.337   6.722  18.509  0.00  0.00    +0.000 HD
ENDBRANCH  20  21
ENDBRANCH   1  20
TORSDOF 7
ENDMDL
