MODEL 1
REMARK VINA RESULT:      -7.2      0.000      0.000
REMARK  Name = 
REMARK  10 active torsions:
REMARK  status: ('A' for Active; 'I' for Inactive)
REMARK    1  A    between atoms: C_1  and  C_2
REMARK    2  A    between atoms: C_2  and  C_3
REMARK    3  A    between atoms: C_3  and  C_4
REMARK    4  A    between atoms: C_4  and  N_5
REMARK    5  A    between atoms: N_5  and  C_6
REMARK    6  A    between atoms: C_6  and  C_7
REMARK    7  A    between atoms: C_8  and  C_10
REMARK    8  A    between atoms: C_10  and  C_11
REMARK    9  A    between atoms: C_10  and  N_17
REMARK   10  A    between atoms: N_14  and  C_15
REMARK                            x       y       z     vdW  Elec       q    Type
REMARK                         _______ _______ _______ _____ _____    ______ ____
ROOT
ATOM      1  C   UNL     1       3.917   4.848  18.944  0.00  0.00    +0.000 C 
ENDROOT
BRANCH   1   2
ATOM      2  C   UNL     1       3.191   6.174  18.920  0.00  0.00    +0.000 A 
ATOM      3  C   UNL     1       2.373   6.705  19.952  0.00  0.00    +0.000 A 
ATOM      4  N   UNL     1       1.887   7.913  19.666  0.00  0.00    +0.000 NA
ATOM      5  N   UNL     1       2.377   8.168  18.443  0.00  0.00    +0.000 N 
ATOM      6  C   UNL     1       2.090   9.433  17.806  0.00  0.00    +0.000 C 
ATOM      7  C   UNL     1       3.153   7.161  17.947  0.00  0.00    +0.000 A 
ENDBRANCH   1   2
BRANCH   1   8
ATOM      8  N   UNL     1       3.360   3.977  17.853  0.00  0.00    +0.000 NA
ATOM      9  C   UNL     1       1.888   4.048  17.669  0.00  0.00    +0.000 C 
ATOM     10  C   UNL     1       1.079   3.289  18.733  0.00  0.00    +0.000 C 
ATOM     11  O   UNL     1       1.446   1.908  18.764  0.00  0.00    +0.000 OA
ATOM     12  C   UNL     1       2.849   1.757  19.002  0.00  0.00    +0.000 C 
ATOM     13  C   UNL     1       3.700   2.538  17.986  0.00  0.00    +0.000 C 
ENDBRANCH   1   8
BRANCH   1  15
ATOM     14  N   UNL     1       6.043   5.280  17.504  0.00  0.00    +0.000 N 
ATOM     15  C   UNL     1       5.493   5.060  18.785  0.00  0.00    +0.000 C 
ATOM     16  O   UNL     1       6.241   5.120  19.770  0.00  0.00    +0.000 OA
BRANCH  14  17
ATOM     17  C   UNL     1       7.365   5.930  17.449  0.00  0.00    +0.000 C 
ATOM     18  C   UNL     1       7.265   7.451  17.416  0.00  0.00    +0.000 C 
ENDBRANCH  14  17
BRANCH  14  19
ATOM     19  C   UNL     1       5.341   4.955  16.251  0.00  0.00    +0.000 C 
BRANCH  19  20
ATOM     20  C   UNL     1       5.995   3.889  15.364  0.00  0.00    +0.000 C 
BRANCH  20  22
ATOM     21  C   UNL     1       6.080   3.622  12.873  0.00  0.00    +0.000 C 
ATOM     22  C   UNL     1       6.523   4.472  14.055  0.00  0.00    +0.000 C 
ENDBRANCH  20  22
ENDBRANCH  19  20
ENDBRANCH  14  19
ENDBRANCH   1  15
TORSDOF 7
ENDMDL
MODEL 2
REMARK VINA RESULT:      -6.8      1.722      3.002
REMARK  Name = 
REMARK  10 active torsions:
REMARK  status: ('A' for Active; 'I' for Inactive)
REMARK    1  A    between atoms: C_1  and  C_2
REMARK    2  A    between atoms: C_2  and  C_3
REMARK    3  A    between atoms: C_3  and  C_4
REMARK    4  A    between atoms: C_4  and  N_5
REMARK    5  A    between atoms: N_5  and  C_6
REMARK    6  A    between atoms: C_6  and  C_7
REMARK    7  A    between atoms: C_8  and  C_10
REMARK    8  A    between atoms: C_10  and  C_11
REMARK    9  A    between atoms: C_10  and  N_17
REMARK   10  A    between atoms: N_14  and  C_15
REMARK                            x       y       z     vdW  Elec       q    Type
REMARK                         _______ _______ _______ _____ _____    ______ ____
ROOT
ATOM      1  C   UNL     1       3.784   5.226  18.860  0.00  0.00    +0.000 C 
ENDROOT
BRANCH   1   2
ATOM      2  C   UNL     1       3.129   6.584  18.736  0.00  0.00    +0.000 A 
ATOM      3  C   UNL     1       3.249   7.479  17.642  0.00  0.00    +0.000 A 
ATOM      4  N   UNL     1       2.532   8.593  17.796  0.00  0.00    +0.000 NA
ATOM      5  N   UNL     1       1.952   8.431  18.996  0.00  0.00    +0.000 N 
ATOM      6  C   UNL     1       1.048   9.441  19.497  0.00  0.00    +0.000 C 
ATOM      7  C   UNL     1       2.283   7.255  19.605  0.00  0.00    +0.000 A 
ENDBRANCH   1   2
BRANCH   1   8
ATOM      8  N   UNL     1       2.708   4.183  18.966  0.00  0.00    +0.000 NA
ATOM      9  C   UNL     1       1.754   4.361  20.089  0.00  0.00    +0.000 C 
ATOM     10  C   UNL     1       2.314   3.968  21.465  0.00  0.00    +0.000 C 
ATOM     11  O   UNL     1       2.741   2.604  21.473  0.00  0.00    +0.000 OA
ATOM     12  C   UNL     1       3.716   2.369  20.451  0.00  0.00    +0.000 C 
ATOM     13  C   UNL     1       3.214   2.789  19.059  0.00  0.00    +0.000 C 
ENDBRANCH   1   8
BRANCH   1  15
ATOM     14  N   UNL     1       6.156   5.040  17.803  0.00  0.00    +0.000 N 
ATOM     15  C   UNL     1       4.758   4.950  17.624  0.00  0.00    +0.000 C 
ATOM     16  O   UNL     1       4.323   4.574  16.527  0.00  0.00    +0.000 OA
BRANCH  14  17
ATOM     17  C   UNL     1       7.000   4.334  16.821  0.00  0.00    +0.000 C 
ATOM     18  C   UNL     1       6.999   5.013  15.457  0.00  0.00    +0.000 C 
ENDBRANCH  14  17
BRANCH  14  19
ATOM     19  C   UNL     1       6.787   5.738  18.934  0.00  0.00    +0.000 C 
BRANCH  19  20
ATOM     20  C   UNL     1       7.949   6.679  18.588  0.00  0.00    +0.000 C 
BRANCH  20  22
ATOM     21  C   UNL     1       8.309   9.083  17.978  0.00  0.00    +0.000 C 
ATOM     22  C   UNL     1       7.514   7.821  17.674  0.00  0.00    +0.000 C 
ENDBRANCH  20  22
ENDBRANCH  19  20
ENDBRANCH  14  19
ENDBRANCH   1  15
TORSDOF 7
ENDMDL
MODEL 3
REMARK VINA RESULT:      -6.7      1.631      4.556
REMARK  Name = 
REMARK  10 active torsions:
REMARK  status: ('A' for Active; 'I' for Inactive)
REMARK    1  A    between atoms: C_1  and  C_2
REMARK    2  A    between atoms: C_2  and  C_3
REMARK    3  A    between atoms: C_3  and  C_4
REMARK    4  A    between atoms: C_4  and  N_5
REMARK    5  A    between atoms: N_5  and  C_6
REMARK    6  A    between atoms: C_6  and  C_7
REMARK    7  A    between atoms: C_8  and  C_10
REMARK    8  A    between atoms: C_10  and  C_11
REMARK    9  A    between atoms: C_10  and  N_17
REMARK   10  A    between atoms: N_14  and  C_15
REMARK                            x       y       z     vdW  Elec       q    Type
REMARK                         _______ _______ _______ _____ _____    ______ ____
ROOT
ATOM      1  C   UNL     1       3.900   5.963  17.737  0.00  0.00    +0.000 C 
ENDROOT
BRANCH   1   2
ATOM      2  C   UNL     1       3.013   7.066  18.270  0.00  0.00    +0.000 A 
ATOM      3  C   UNL     1       2.388   7.103  19.543  0.00  0.00    +0.000 A 
ATOM      4  N   UNL     1       1.689   8.219  19.751  0.00  0.00    +0.000 NA
ATOM      5  N   UNL     1       1.847   8.908  18.609  0.00  0.00    +0.000 N 
ATOM      6  C   UNL     1       1.252  10.218  18.475  0.00  0.00    +0.000 C 
ATOM      7  C   UNL     1       2.619   8.261  17.688  0.00  0.00    +0.000 A 
ENDBRANCH   1   2
BRANCH   1   8
ATOM      8  N   UNL     1       5.160   6.579  17.198  0.00  0.00    +0.000 NA
ATOM      9  C   UNL     1       5.251   6.653  15.718  0.00  0.00    +0.000 C 
ATOM     10  C   UNL     1       5.575   5.315  15.035  0.00  0.00    +0.000 C 
ATOM     11  O   UNL     1       6.809   4.779  15.518  0.00  0.00    +0.000 OA
ATOM     12  C   UNL     1       6.773   4.618  16.940  0.00  0.00    +0.000 C 
ATOM     13  C   UNL     1       6.409   5.924  17.666  0.00  0.00    +0.000 C 
ENDBRANCH   1   8
BRANCH   1  15
ATOM     14  N   UNL     1       3.752   3.555  18.716  0.00  0.00    +0.000 N 
ATOM     15  C   UNL     1       4.207   4.882  18.873  0.00  0.00    +0.000 C 
ATOM     16  O   UNL     1       4.910   5.157  19.855  0.00  0.00    +0.000 OA
BRANCH  14  17
ATOM     17  C   UNL     1       4.440   2.517  19.505  0.00  0.00    +0.000 C 
ATOM     18  C   UNL     1       4.119   1.108  19.021  0.00  0.00    +0.000 C 
ENDBRANCH  14  17
BRANCH  14  19
ATOM     19  C   UNL     1       2.690   3.166  17.774  0.00  0.00    +0.000 C 
BRANCH  19  20
ATOM     20  C   UNL     1       1.260   3.565  18.162  0.00  0.00    +0.000 C 
BRANCH  20  22
ATOM     21  C   UNL     1       1.050   3.698  20.655  0.00  0.00    +0.000 C 
ATOM     22  C   UNL     1       0.783   2.848  19.422  0.00  0.00    +0.000 C 
ENDBRANCH  20  22
ENDBRANCH  19  20
ENDBRANCH  14  19
ENDBRANCH   1  15
TORSDOF 7
ENDMDL
MODEL 4
REMARK VINA RESULT:      -6.5      1.474      2.693
REMARK  Name = 
REMARK  10 active torsions:
REMARK  status: ('A' for Active; 'I' for Inactive)
REMARK    1  A    between atoms: C_1  and  C_2
REMARK    2  A    between atoms: C_2  and  C_3
REMARK    3  A    between atoms: C_3  and  C_4
REMARK    4  A    between atoms: C_4  and  N_5
REMARK    5  A    between atoms: N_5  and  C_6
REMARK    6  A    between atoms: C_6  and  C_7
REMARK    7  A    between atoms: C_8  and  C_10
REMARK    8  A    between atoms: C_10  and  C_11
REMARK    9  A    between atoms: C_10  and  N_17
REMARK   10  A    between atoms: N_14  and  C_15
REMARK                            x       y       z     vdW  Elec       q    Type
REMARK                         _______ _______ _______ _____ _____    ______ ____
ROOT
ATOM      1  C   UNL     1       3.450   5.553  18.165  0.00  0.00    +0.000 C 
ENDROOT
BRANCH   1   2
ATOM      2  C   UNL     1       2.717   6.755  18.718  0.00  0.00    +0.000 A 
ATOM      3  C   UNL     1       2.341   6.962  20.071  0.00  0.00    +0.000 A 
ATOM      4  N   UNL     1       1.732   8.131  20.272  0.00  0.00    +0.000 NA
ATOM      5  N   UNL     1       1.699   8.683  19.049  0.00  0.00    +0.000 N 
ATOM      6  C   UNL     1       1.135  10.003  18.874  0.00  0.00    +0.000 C 
ATOM      7  C   UNL     1       2.263   7.901  18.084  0.00  0.00    +0.000 A 
ENDBRANCH   1   2
BRANCH   1   8
ATOM      8  N   UNL     1       2.437   4.564  17.660  0.00  0.00    +0.000 NA
ATOM      9  C   UNL     1       1.460   4.081  18.668  0.00  0.00    +0.000 C 
ATOM     10  C   UNL     1       2.026   3.046  19.654  0.00  0.00    +0.000 C 
ATOM     11  O   UNL     1       2.534   1.904  18.960  0.00  0.00    +0.000 OA
ATOM     12  C   UNL     1       3.534   2.287  18.010  0.00  0.00    +0.000 C 
ATOM     13  C   UNL     1       3.025   3.356  17.028  0.00  0.00    +0.000 C 
ENDBRANCH   1   8
BRANCH   1  15
ATOM     14  N   UNL     1       5.708   5.317  16.891  0.00  0.00    +0.000 N 
ATOM     15  C   UNL     1       4.474   5.990  17.018  0.00  0.00    +0.000 C 
ATOM     16  O   UNL     1       4.178   6.852  16.180  0.00  0.00    +0.000 OA
BRANCH  14  17
ATOM     17  C   UNL     1       6.384   5.407  15.584  0.00  0.00    +0.000 C 
ATOM     18  C   UNL     1       6.395   4.076  14.841  0.00  0.00    +0.000 C 
ENDBRANCH  14  17
BRANCH  14  19
ATOM     19  C   UNL     1       6.301   4.497  17.960  0.00  0.00    +0.000 C 
BRANCH  19  20
ATOM     20  C   UNL     1       7.762   4.800  18.316  0.00  0.00    +0.000 C 
BRANCH  20  22
ATOM     21  C   UNL     1       8.045   7.290  18.287  0.00  0.00    +0.000 C 
ATOM     22  C   UNL     1       7.899   6.058  19.169  0.00  0.00    +0.000 C 
ENDBRANCH  20  22
ENDBRANCH  19  20
ENDBRANCH  14  19
ENDBRANCH   1  15
TORSDOF 7
ENDMDL
MODEL 5
REMARK VINA RESULT:      -6.4      2.163      5.933
REMARK  Name = 
REMARK  10 active torsions:
REMARK  status: ('A' for Active; 'I' for Inactive)
REMARK    1  A    between atoms: C_1  and  C_2
REMARK    2  A    between atoms: C_2  and  C_3
REMARK    3  A    between atoms: C_3  and  C_4
REMARK    4  A    between atoms: C_4  and  N_5
REMARK    5  A    between atoms: N_5  and  C_6
REMARK    6  A    between atoms: C_6  and  C_7
REMARK    7  A    between atoms: C_8  and  C_10
REMARK    8  A    between atoms: C_10  and  C_11
REMARK    9  A    between atoms: C_10  and  N_17
REMARK   10  A    between atoms: N_14  and  C_15
REMARK                            x       y       z     vdW  Elec       q    Type
REMARK                         _______ _______ _______ _____ _____    ______ ____
ROOT
ATOM      1  C   UNL     1       4.204   6.045  18.125  0.00  0.00    +0.000 C 
ENDROOT
BRANCH   1   2
ATOM      2  C   UNL     1       3.709   4.620  18.019  0.00  0.00    +0.000 A 
ATOM      3  C   UNL     1       2.604   4.168  17.252  0.00  0.00    +0.000 A 
ATOM      4  N   UNL     1       2.421   2.849  17.324  0.00  0.00    +0.000 NA
ATOM      5  N   UNL     1       3.400   2.440  18.148  0.00  0.00    +0.000 N 
ATOM      6  C   UNL     1       3.548   1.032  18.440  0.00  0.00    +0.000 C 
ATOM      7  C   UNL     1       4.190   3.457  18.600  0.00  0.00    +0.000 A 
ENDBRANCH   1   2
BRANCH   1   8
ATOM      8  N   UNL     1       4.972   6.380  16.878  0.00  0.00    +0.000 NA
ATOM      9  C   UNL     1       5.533   5.219  16.143  0.00  0.00    +0.000 C 
ATOM     10  C   UNL     1       6.787   4.606  16.788  0.00  0.00    +0.000 C 
ATOM     11  O   UNL     1       7.825   5.581  16.915  0.00  0.00    +0.000 OA
ATOM     12  C   UNL     1       7.375   6.710  17.671  0.00  0.00    +0.000 C 
ATOM     13  C   UNL     1       6.094   7.330  17.087  0.00  0.00    +0.000 C 
ENDBRANCH   1   8
BRANCH   1  15
ATOM     14  N   UNL     1       2.246   6.985  19.561  0.00  0.00    +0.000 N 
ATOM     15  C   UNL     1       2.987   7.054  18.361  0.00  0.00    +0.000 C 
ATOM     16  O   UNL     1       2.727   7.955  17.553  0.00  0.00    +0.000 OA
BRANCH  14  17
ATOM     17  C   UNL     1       1.485   8.189  19.942  0.00  0.00    +0.000 C 
ATOM     18  C   UNL     1       1.407   8.373  21.453  0.00  0.00    +0.000 C 
ENDBRANCH  14  17
BRANCH  14  19
ATOM     19  C   UNL     1       2.253   5.816  20.454  0.00  0.00    +0.000 C 
BRANCH  19  20
ATOM     20  C   UNL     1       0.958   4.996  20.508  0.00  0.00    +0.000 C 
BRANCH  20  22
ATOM     21  C   UNL     1       2.196   3.236  21.793  0.00  0.00    +0.000 C 
ATOM     22  C   UNL     1       1.226   3.500  20.650  0.00  0.00    +0.000 C 
ENDBRANCH  20  22
ENDBRANCH  19  20
ENDBRANCH  14  19
ENDBRANCH   1  15
TORSDOF 7
ENDMDL
MODEL 6
REMARK VINA RESULT:      -6.4      1.673      2.915
REMARK  Name = 
REMARK  10 active torsions:
REMARK  status: ('A' for Active; 'I' for Inactive)
REMARK    1  A    between atoms: C_1  and  C_2
REMARK    2  A    between atoms: C_2  and  C_3
REMARK    3  A    between atoms: C_3  and  C_4
REMARK    4  A    between atoms: C_4  and  N_5
REMARK    5  A    between atoms: N_5  and  C_6
REMARK    6  A    between atoms: C_6  and  C_7
REMARK    7  A    between atoms: C_8  and  C_10
REMARK    8  A    between atoms: C_10  and  C_11
REMARK    9  A    between atoms: C_10  and  N_17
REMARK   10  A    between atoms: N_14  and  C_15
REMARK                            x       y       z     vdW  Elec       q    Type
REMARK                         _______ _______ _______ _____ _____    ______ ____
ROOT
ATOM      1  C   UNL     1       3.329   4.705  18.822  0.00  0.00    +0.000 C 
ENDROOT
BRANCH   1   2
ATOM      2  C   UNL     1       2.751   6.102  18.870  0.00  0.00    +0.000 A 
ATOM      3  C   UNL     1       2.359   6.811  20.035  0.00  0.00    +0.000 A 
ATOM      4  N   UNL     1       1.912   8.040  19.775  0.00  0.00    +0.000 NA
ATOM      5  N   UNL     1       2.002   8.132  18.438  0.00  0.00    +0.000 N 
ATOM      6  C   UNL     1       1.635   9.364  17.779  0.00  0.00    +0.000 C 
ATOM      7  C   UNL     1       2.486   7.001  17.848  0.00  0.00    +0.000 A 
ENDBRANCH   1   2
BRANCH   1   8
ATOM      8  N   UNL     1       2.273   3.734  19.268  0.00  0.00    +0.000 NA
ATOM      9  C   UNL     1       1.544   4.109  20.507  0.00  0.00    +0.000 C 
ATOM     10  C   UNL     1       2.341   3.888  21.802  0.00  0.00    +0.000 C 
ATOM     11  O   UNL     1       2.739   2.521  21.931  0.00  0.00    +0.000 OA
ATOM     12  C   UNL     1       3.505   2.104  20.796  0.00  0.00    +0.000 C 
ATOM     13  C   UNL     1       2.764   2.347  19.471  0.00  0.00    +0.000 C 
ENDBRANCH   1   8
BRANCH   1  15
ATOM     14  N   UNL     1       5.215   4.624  17.029  0.00  0.00    +0.000 N 
ATOM     15  C   UNL     1       3.866   4.363  17.356  0.00  0.00    +0.000 C 
ATOM     16  O   UNL     1       3.151   3.795  16.520  0.00  0.00    +0.000 OA
BRANCH  14  17
ATOM     17  C   UNL     1       5.778   3.879  15.888  0.00  0.00    +0.000 C 
ATOM     18  C   UNL     1       5.893   4.737  14.633  0.00  0.00    +0.000 C 
ENDBRANCH  14  17
BRANCH  14  19
ATOM     19  C   UNL     1       6.077   5.535  17.799  0.00  0.00    +0.000 C 
BRANCH  19  20
ATOM     20  C   UNL     1       6.174   6.976  17.282  0.00  0.00    +0.000 C 
BRANCH  20  22
ATOM     21  C   UNL     1       8.218   6.952  18.731  0.00  0.00    +0.000 C 
ATOM     22  C   UNL     1       7.556   7.581  17.513  0.00  0.00    +0.000 C 
ENDBRANCH  20  22
ENDBRANCH  19  20
ENDBRANCH  14  19
ENDBRANCH   1  15
TORSDOF 7
ENDMDL
MODEL 7
REMARK VINA RESULT:      -6.3      1.655      3.043
REMARK  Name = 
REMARK  10 active torsions:
REMARK  status: ('A' for Active; 'I' for Inactive)
REMARK    1  A    between atoms: C_1  and  C_2
REMARK    2  A    between atoms: C_2  and  C_3
REMARK    3  A    between atoms: C_3  and  C_4
REMARK    4  A    between atoms: C_4  and  N_5
REMARK    5  A    between atoms: N_5  and  C_6
REMARK    6  A    between atoms: C_6  and  C_7
REMARK    7  A    between atoms: C_8  and  C_10
REMARK    8  A    between atoms: C_10  and  C_11
REMARK    9  A    between atoms: C_10  and  N_17
REMARK   10  A    between atoms: N_14  and  C_15
REMARK                            x       y       z     vdW  Elec       q    Type
REMARK                         _______ _______ _______ _____ _____    ______ ____
ROOT
ATOM      1  C   UNL     1       3.039   5.790  18.821  0.00  0.00    +0.000 C 
ENDROOT
BRANCH   1   2
ATOM      2  C   UNL     1       2.370   6.974  19.484  0.00  0.00    +0.000 A 
ATOM      3  C   UNL     1       2.005   8.194  18.858  0.00  0.00    +0.000 A 
ATOM      4  N   UNL     1       1.399   9.046  19.685  0.00  0.00    +0.000 NA
ATOM      5  N   UNL     1       1.378   8.388  20.855  0.00  0.00    +0.000 N 
ATOM      6  C   UNL     1       0.749   8.994  22.007  0.00  0.00    +0.000 C 
ATOM      7  C   UNL     1       1.952   7.152  20.794  0.00  0.00    +0.000 A 
ENDBRANCH   1   2
BRANCH   1   8
ATOM      8  N   UNL     1       1.979   4.806  18.414  0.00  0.00    +0.000 NA
ATOM      9  C   UNL     1       1.317   4.084  19.530  0.00  0.00    +0.000 C 
ATOM     10  C   UNL     1       2.166   2.963  20.151  0.00  0.00    +0.000 C 
ATOM     11  O   UNL     1       2.533   1.994  19.167  0.00  0.00    +0.000 OA
ATOM     12  C   UNL     1       3.237   2.610  18.083  0.00  0.00    +0.000 C 
ATOM     13  C   UNL     1       2.443   3.769  17.457  0.00  0.00    +0.000 C 
ENDBRANCH   1   8
BRANCH   1  15
ATOM     14  N   UNL     1       5.166   5.643  17.326  0.00  0.00    +0.000 N 
ATOM     15  C   UNL     1       3.921   6.261  17.574  0.00  0.00    +0.000 C 
ATOM     16  O   UNL     1       3.502   7.100  16.765  0.00  0.00    +0.000 OA
BRANCH  14  17
ATOM     17  C   UNL     1       5.701   5.750  15.957  0.00  0.00    +0.000 C 
ATOM     18  C   UNL     1       5.509   4.468  15.155  0.00  0.00    +0.000 C 
ENDBRANCH  14  17
BRANCH  14  19
ATOM     19  C   UNL     1       5.901   4.863  18.335  0.00  0.00    +0.000 C 
BRANCH  19  20
ATOM     20  C   UNL     1       7.432   4.947  18.273  0.00  0.00    +0.000 C 
BRANCH  20  22
ATOM     21  C   UNL     1       8.084   7.366  18.283  0.00  0.00    +0.000 C 
ATOM     22  C   UNL     1       7.982   6.096  19.114  0.00  0.00    +0.000 C 
ENDBRANCH  20  22
ENDBRANCH  19  20
ENDBRANCH  14  19
ENDBRANCH   1  15
TORSDOF 7
ENDMDL
MODEL 8
REMARK VINA RESULT:      -6.3      2.049      5.422
REMARK  Name = 
REMARK  10 active torsions:
REMARK  status: ('A' for Active; 'I' for Inactive)
REMARK    1  A    between atoms: C_1  and  C_2
REMARK    2  A    between atoms: C_2  and  C_3
REMARK    3  A    between atoms: C_3  and  C_4
REMARK    4  A    between atoms: C_4  and  N_5
REMARK    5  A    between atoms: N_5  and  C_6
REMARK    6  A    between atoms: C_6  and  C_7
REMARK    7  A    between atoms: C_8  and  C_10
REMARK    8  A    between atoms: C_10  and  C_11
REMARK    9  A    between atoms: C_10  and  N_17
REMARK   10  A    between atoms: N_14  and  C_15
REMARK                            x       y       z     vdW  Elec       q    Type
REMARK                         _______ _______ _______ _____ _____    ______ ____
ROOT
ATOM      1  C   UNL     1       5.730   5.230  17.251  0.00  0.00    +0.000 C 
ENDROOT
BRANCH   1   2
ATOM      2  C   UNL     1       6.689   6.298  17.726  0.00  0.00    +0.000 A 
ATOM      3  C   UNL     1       7.698   6.145  18.713  0.00  0.00    +0.000 A 
ATOM      4  N   UNL     1       8.415   7.253  18.904  0.00  0.00    +0.000 NA
ATOM      5  N   UNL     1       7.869   8.133  18.050  0.00  0.00    +0.000 N 
ATOM      6  C   UNL     1       8.421   9.465  17.944  0.00  0.00    +0.000 C 
ATOM      7  C   UNL     1       6.829   7.619  17.331  0.00  0.00    +0.000 A 
ENDBRANCH   1   2
BRANCH   1   8
ATOM      8  N   UNL     1       6.509   4.182  16.508  0.00  0.00    +0.000 NA
ATOM      9  C   UNL     1       7.607   4.693  15.649  0.00  0.00    +0.000 C 
ATOM     10  C   UNL     1       7.137   5.326  14.329  0.00  0.00    +0.000 C 
ATOM     11  O   UNL     1       6.381   4.393  13.555  0.00  0.00    +0.000 OA
ATOM     12  C   UNL     1       5.261   3.901  14.299  0.00  0.00    +0.000 C 
ATOM     13  C   UNL     1       5.679   3.297  15.651  0.00  0.00    +0.000 C 
ENDBRANCH   1   8
BRANCH   1  15
ATOM     14  N   UNL     1       3.528   4.816  18.577  0.00  0.00    +0.000 N 
ATOM     15  C   UNL     1       4.920   4.606  18.480  0.00  0.00    +0.000 C 
ATOM     16  O   UNL     1       5.469   3.868  19.309  0.00  0.00    +0.000 OA
BRANCH  14  17
ATOM     17  C   UNL     1       2.767   3.865  19.408  0.00  0.00    +0.000 C 
ATOM     18  C   UNL     1       1.699   3.123  18.614  0.00  0.00    +0.000 C 
ENDBRANCH  14  17
BRANCH  14  19
ATOM     19  C   UNL     1       2.813   5.878  17.851  0.00  0.00    +0.000 C 
BRANCH  19  20
ATOM     20  C   UNL     1       2.505   7.154  18.646  0.00  0.00    +0.000 C 
BRANCH  20  22
ATOM     21  C   UNL     1       1.448   9.326  17.980  0.00  0.00    +0.000 C 
ATOM     22  C   UNL     1       2.651   8.413  17.796  0.00  0.00    +0.000 C 
ENDBRANCH  20  22
ENDBRANCH  19  20
ENDBRANCH  14  19
ENDBRANCH   1  15
TORSDOF 7
ENDMDL
MODEL 9
REMARK VINA RESULT:      -6.2      1.644      4.701
REMARK  Name = 
REMARK  10 active torsions:
REMARK  status: ('A' for Active; 'I' for Inactive)
REMARK    1  A    between atoms: C_1  and  C_2
REMARK    2  A    between atoms: C_2  and  C_3
REMARK    3  A    between atoms: C_3  and  C_4
REMARK    4  A    between atoms: C_4  and  N_5
REMARK    5  A    between atoms: N_5  and  C_6
REMARK    6  A    between atoms: C_6  and  C_7
REMARK    7  A    between atoms: C_8  and  C_10
REMARK    8  A    between atoms: C_10  and  C_11
REMARK    9  A    between atoms: C_10  and  N_17
REMARK   10  A    between atoms: N_14  and  C_15
REMARK                            x       y       z     vdW  Elec       q    Type
REMARK                         _______ _______ _______ _____ _____    ______ ____
ROOT
ATOM      1  C   UNL     1       4.144   5.552  17.663  0.00  0.00    +0.000 C 
ENDROOT
BRANCH   1   2
ATOM      2  C   UNL     1       3.283   6.589  18.351  0.00  0.00    +0.000 A 
ATOM      3  C   UNL     1       2.849   7.823  17.800  0.00  0.00    +0.000 A 
ATOM      4  N   UNL     1       2.072   8.521  18.628  0.00  0.00    +0.000 NA
ATOM      5  N   UNL     1       2.006   7.749  19.725  0.00  0.00    +0.000 N 
ATOM      6  C   UNL     1       1.201   8.169  20.849  0.00  0.00    +0.000 C 
ATOM      7  C   UNL     1       2.719   6.590  19.617  0.00  0.00    +0.000 A 
ENDBRANCH   1   2
BRANCH   1   8
ATOM      8  N   UNL     1       5.352   6.237  17.090  0.00  0.00    +0.000 NA
ATOM      9  C   UNL     1       5.315   6.477  15.625  0.00  0.00    +0.000 C 
ATOM     10  C   UNL     1       5.579   5.226  14.771  0.00  0.00    +0.000 C 
ATOM     11  O   UNL     1       6.851   4.653  15.084  0.00  0.00    +0.000 OA
ATOM     12  C   UNL     1       6.938   4.334  16.477  0.00  0.00    +0.000 C 
ATOM     13  C   UNL     1       6.637   5.548  17.373  0.00  0.00    +0.000 C 
ENDBRANCH   1   8
BRANCH   1  15
ATOM     14  N   UNL     1       3.899   3.135  18.598  0.00  0.00    +0.000 N 
ATOM     15  C   UNL     1       4.549   4.386  18.677  0.00  0.00    +0.000 C 
ATOM     16  O   UNL     1       5.482   4.521  19.480  0.00  0.00    +0.000 OA
BRANCH  14  17
ATOM     17  C   UNL     1       4.601   1.982  19.190  0.00  0.00    +0.000 C 
ATOM     18  C   UNL     1       4.483   1.945  20.709  0.00  0.00    +0.000 C 
ENDBRANCH  14  17
BRANCH  14  19
ATOM     19  C   UNL     1       2.613   2.929  17.912  0.00  0.00    +0.000 C 
BRANCH  19  20
ATOM     20  C   UNL     1       1.538   2.171  18.701  0.00  0.00    +0.000 C 
BRANCH  20  22
ATOM     21  C   UNL     1       1.196   3.421  20.846  0.00  0.00    +0.000 C 
ATOM     22  C   UNL     1       0.617   3.112  19.473  0.00  0.00    +0.000 C 
ENDBRANCH  20  22
ENDBRANCH  19  20
ENDBRANCH  14  19
ENDBRANCH   1  15
TORSDOF 7
ENDMDL
