MODEL 1
REMARK VINA RESULT:      -8.1      0.000      0.000
REMARK  Name = 
REMARK  9 active torsions:
REMARK  status: ('A' for Active; 'I' for Inactive)
REMARK    1  A    between atoms: C_1  and  C_2
REMARK    2  A    between atoms: C_2  and  C_3
REMARK    3  A    between atoms: C_3  and  O_4
REMARK    4  A    between atoms: O_4  and  C_5
REMARK    5  A    between atoms: C_9  and  C_10
REMARK    6  A    between atoms: C_19  and  C_20
REMARK    7  A    between atoms: C_20  and  O_22
REMARK    8  A    between atoms: N_23  and  C_24
REMARK    9  A    between atoms: C_24  and  C_25
REMARK                            x       y       z     vdW  Elec       q    Type
REMARK                         _______ _______ _______ _____ _____    ______ ____
ROOT
ATOM      1  C   UNL     1      -4.006  11.042  17.366  0.00  0.00    +0.000 A 
ATOM      2  C   UNL     1      -3.139  10.029  16.967  0.00  0.00    +0.000 A 
ATOM      3  C   UNL     1      -1.894   9.886  17.565  0.00  0.00    +0.000 A 
ATOM      4  C   UNL     1      -1.537  10.730  18.631  0.00  0.00    +0.000 A 
ATOM      5  C   UNL     1      -0.467  10.694  19.566  0.00  0.00    +0.000 A 
ATOM      6  C   UNL     1      -0.633  11.747  20.456  0.00  0.00    +0.000 A 
ATOM      7  N   UNL     1      -1.700  12.499  19.969  0.00  0.00    +0.000 N 
ATOM      8  C   UNL     1      -2.360  11.798  18.967  0.00  0.00    +0.000 A 
ATOM      9  C   UNL     1      -3.603  11.980  18.329  0.00  0.00    +0.000 A 
ENDROOT
BRANCH   5  10
ATOM     10  C   UNL     1       0.542   9.655  19.650  0.00  0.00    +0.000 A 
ATOM     11  C   UNL     1       0.539   8.815  20.792  0.00  0.00    +0.000 A 
ATOM     12  C   UNL     1       1.355   7.688  20.857  0.00  0.00    +0.000 A 
ATOM     13  C   UNL     1       2.145   7.435  19.764  0.00  0.00    +0.000 A 
ATOM     14  C   UNL     1       2.194   8.286  18.679  0.00  0.00    +0.000 A 
ATOM     15  C   UNL     1       1.422   9.419  18.590  0.00  0.00    +0.000 A 
ATOM     16  O   UNL     1       3.025   7.821  17.705  0.00  0.00    +0.000 OA
ATOM     17  C   UNL     1       3.234   6.479  18.184  0.00  0.00    +0.000 C 
ATOM     18  O   UNL     1       2.916   6.329  19.583  0.00  0.00    +0.000 OA
ENDBRANCH   5  10
BRANCH   6  19
ATOM     19  C   UNL     1       0.107  12.042  21.658  0.00  0.00    +0.000 C 
ATOM     20  O   UNL     1      -0.208  11.716  22.791  0.00  0.00    +0.000 OA
BRANCH  19  21
ATOM     21  O   UNL     1       1.287  12.653  21.389  0.00  0.00    +0.000 OA
ATOM     22  H   UNL     1       1.785  12.886  22.189  0.00  0.00    +0.000 HD
ENDBRANCH  19  21
ENDBRANCH   6  19
BRANCH   1  23
ATOM     23  O   UNL     1      -5.285  11.197  16.880  0.00  0.00    +0.000 OA
BRANCH  23  24
ATOM     24  C   UNL     1      -6.212  11.752  17.817  0.00  0.00    +0.000 C 
BRANCH  24  26
ATOM     25  C   UNL     1      -7.212  11.165  20.021  0.00  0.00    +0.000 C 
ATOM     26  C   UNL     1      -6.862  10.649  18.634  0.00  0.00    +0.000 C 
ENDBRANCH  24  26
ENDBRANCH  23  24
ENDBRANCH   1  23
BRANCH   7  27
ATOM     27  C   UNL     1      -2.127  13.802  20.482  0.00  0.00    +0.000 C 
BRANCH  27  28
ATOM     28  C   UNL     1      -3.457  13.711  21.184  0.00  0.00    +0.000 A 
ATOM     29  C   UNL     1      -4.588  14.415  20.705  0.00  0.00    +0.000 A 
ATOM     30  C   UNL     1      -5.802  14.390  21.394  0.00  0.00    +0.000 A 
ATOM     31  C   UNL     1      -5.871  13.627  22.535  0.00  0.00    +0.000 A 
ATOM     32  C   UNL     1      -4.790  12.913  22.994  0.00  0.00    +0.000 A 
ATOM     33  C   UNL     1      -3.575  12.932  22.347  0.00  0.00    +0.000 A 
ATOM     34  O   UNL     1      -5.070  12.215  24.125  0.00  0.00    +0.000 OA
ATOM     35  C   UNL     1      -6.488  12.452  24.230  0.00  0.00    +0.000 C 
ATOM     36  O   UNL     1      -6.967  13.465  23.321  0.00  0.00    +0.000 OA
ENDBRANCH  27  28
ENDBRANCH   7  27
TORSDOF 8
ENDMDL
MODEL 2
REMARK VINA RESULT:      -8.1      0.732      1.188
REMARK  Name = 
REMARK  9 active torsions:
REMARK  status: ('A' for Active; 'I' for Inactive)
REMARK    1  A    between atoms: C_1  and  C_2
REMARK    2  A    between atoms: C_2  and  C_3
REMARK    3  A    between atoms: C_3  and  O_4
REMARK    4  A    between atoms: O_4  and  C_5
REMARK    5  A    between atoms: C_9  and  C_10
REMARK    6  A    between atoms: C_19  and  C_20
REMARK    7  A    between atoms: C_20  and  O_22
REMARK    8  A    between atoms: N_23  and  C_24
REMARK    9  A    between atoms: C_24  and  C_25
REMARK                            x       y       z     vdW  Elec       q    Type
REMARK                         _______ _______ _______ _____ _____    ______ ____
ROOT
ATOM      1  C   UNL     1      -3.764  10.987  17.211  0.00  0.00    +0.000 A 
ATOM      2  C   UNL     1      -2.871  10.023  16.751  0.00  0.00    +0.000 A 
ATOM      3  C   UNL     1      -1.644   9.840  17.373  0.00  0.00    +0.000 A 
ATOM      4  C   UNL     1      -1.332  10.589  18.522  0.00  0.00    +0.000 A 
ATOM      5  C   UNL     1      -0.292  10.480  19.484  0.00  0.00    +0.000 A 
ATOM      6  C   UNL     1      -0.500  11.446  20.459  0.00  0.00    +0.000 A 
ATOM      7  N   UNL     1      -1.561  12.228  20.008  0.00  0.00    +0.000 N 
ATOM      8  C   UNL     1      -2.180  11.613  18.926  0.00  0.00    +0.000 A 
ATOM      9  C   UNL     1      -3.405  11.839  18.267  0.00  0.00    +0.000 A 
ENDROOT
BRANCH   5  10
ATOM     10  C   UNL     1       0.728   9.449  19.508  0.00  0.00    +0.000 A 
ATOM     11  C   UNL     1       0.747   8.556  20.608  0.00  0.00    +0.000 A 
ATOM     12  C   UNL     1       1.575   7.436  20.610  0.00  0.00    +0.000 A 
ATOM     13  C   UNL     1       2.354   7.242  19.498  0.00  0.00    +0.000 A 
ATOM     14  C   UNL     1       2.382   8.144  18.453  0.00  0.00    +0.000 A 
ATOM     15  C   UNL     1       1.597   9.272  18.427  0.00  0.00    +0.000 A 
ATOM     16  O   UNL     1       3.205   7.734  17.449  0.00  0.00    +0.000 OA
ATOM     17  C   UNL     1       3.433   6.373  17.861  0.00  0.00    +0.000 C 
ATOM     18  O   UNL     1       3.133   6.154  19.256  0.00  0.00    +0.000 OA
ENDBRANCH   5  10
BRANCH   6  19
ATOM     19  C   UNL     1       0.198  11.639  21.707  0.00  0.00    +0.000 C 
ATOM     20  O   UNL     1      -0.039  11.065  22.757  0.00  0.00    +0.000 OA
BRANCH  19  21
ATOM     21  O   UNL     1       1.252  12.482  21.572  0.00  0.00    +0.000 OA
ATOM     22  H   UNL     1       1.937  12.140  20.977  0.00  0.00    +0.000 HD
ENDBRANCH  19  21
ENDBRANCH   6  19
BRANCH   1  23
ATOM     23  O   UNL     1      -5.029  11.171  16.700  0.00  0.00    +0.000 OA
BRANCH  23  24
ATOM     24  C   UNL     1      -5.742  12.275  17.264  0.00  0.00    +0.000 C 
BRANCH  24  26
ATOM     25  C   UNL     1      -6.833  10.931  19.054  0.00  0.00    +0.000 C 
ATOM     26  C   UNL     1      -7.070  11.809  17.835  0.00  0.00    +0.000 C 
ENDBRANCH  24  26
ENDBRANCH  23  24
ENDBRANCH   1  23
BRANCH   7  27
ATOM     27  C   UNL     1      -2.021  13.474  20.621  0.00  0.00    +0.000 C 
BRANCH  27  28
ATOM     28  C   UNL     1      -3.020  13.214  21.721  0.00  0.00    +0.000 A 
ATOM     29  C   UNL     1      -2.620  13.180  23.078  0.00  0.00    +0.000 A 
ATOM     30  C   UNL     1      -3.529  12.868  24.092  0.00  0.00    +0.000 A 
ATOM     31  C   UNL     1      -4.832  12.631  23.728  0.00  0.00    +0.000 A 
ATOM     32  C   UNL     1      -5.240  12.692  22.417  0.00  0.00    +0.000 A 
ATOM     33  C   UNL     1      -4.364  12.979  21.394  0.00  0.00    +0.000 A 
ATOM     34  O   UNL     1      -6.567  12.441  22.272  0.00  0.00    +0.000 OA
ATOM     35  C   UNL     1      -6.968  12.371  23.655  0.00  0.00    +0.000 C 
ATOM     36  O   UNL     1      -5.855  12.336  24.572  0.00  0.00    +0.000 OA
ENDBRANCH  27  28
ENDBRANCH   7  27
TORSDOF 8
ENDMDL
MODEL 3
REMARK VINA RESULT:      -7.6      1.272      1.674
REMARK  Name = 
REMARK  9 active torsions:
REMARK  status: ('A' for Active; 'I' for Inactive)
REMARK    1  A    between atoms: C_1  and  C_2
REMARK    2  A    between atoms: C_2  and  C_3
REMARK    3  A    between atoms: C_3  and  O_4
REMARK    4  A    between atoms: O_4  and  C_5
REMARK    5  A    between atoms: C_9  and  C_10
REMARK    6  A    between atoms: C_19  and  C_20
REMARK    7  A    between atoms: C_20  and  O_22
REMARK    8  A    between atoms: N_23  and  C_24
REMARK    9  A    between atoms: C_24  and  C_25
REMARK                            x       y       z     vdW  Elec       q    Type
REMARK                         _______ _______ _______ _____ _____    ______ ____
ROOT
ATOM      1  C   UNL     1      -3.774  10.978  17.370  0.00  0.00    +0.000 A 
ATOM      2  C   UNL     1      -2.999   9.894  16.967  0.00  0.00    +0.000 A 
ATOM      3  C   UNL     1      -1.702   9.737  17.436  0.00  0.00    +0.000 A 
ATOM      4  C   UNL     1      -1.193  10.645  18.382  0.00  0.00    +0.000 A 
ATOM      5  C   UNL     1      -0.028  10.631  19.194  0.00  0.00    +0.000 A 
ATOM      6  C   UNL     1      -0.050  11.758  20.004  0.00  0.00    +0.000 A 
ATOM      7  N   UNL     1      -1.133  12.521  19.574  0.00  0.00    +0.000 N 
ATOM      8  C   UNL     1      -1.929  11.776  18.713  0.00  0.00    +0.000 A 
ATOM      9  C   UNL     1      -3.228  11.969  18.200  0.00  0.00    +0.000 A 
ENDROOT
BRANCH   5  10
ATOM     10  C   UNL     1       0.941   9.552  19.257  0.00  0.00    +0.000 A 
ATOM     11  C   UNL     1       0.924   8.707  20.395  0.00  0.00    +0.000 A 
ATOM     12  C   UNL     1       1.697   7.549  20.441  0.00  0.00    +0.000 A 
ATOM     13  C   UNL     1       2.457   7.270  19.334  0.00  0.00    +0.000 A 
ATOM     14  C   UNL     1       2.522   8.125  18.252  0.00  0.00    +0.000 A 
ATOM     15  C   UNL     1       1.793   9.287  18.181  0.00  0.00    +0.000 A 
ATOM     16  O   UNL     1       3.317   7.633  17.261  0.00  0.00    +0.000 OA
ATOM     17  C   UNL     1       3.481   6.281  17.731  0.00  0.00    +0.000 C 
ATOM     18  O   UNL     1       3.181   6.136  19.135  0.00  0.00    +0.000 OA
ENDBRANCH   5  10
BRANCH   6  19
ATOM     19  C   UNL     1       0.832  12.111  21.090  0.00  0.00    +0.000 C 
ATOM     20  O   UNL     1       1.816  12.828  21.010  0.00  0.00    +0.000 OA
BRANCH  19  21
ATOM     21  O   UNL     1       0.389  11.630  22.278  0.00  0.00    +0.000 OA
ATOM     22  H   UNL     1      -0.501  11.248  22.224  0.00  0.00    +0.000 HD
ENDBRANCH  19  21
ENDBRANCH   6  19
BRANCH   1  23
ATOM     23  O   UNL     1      -5.092  11.158  17.014  0.00  0.00    +0.000 OA
BRANCH  23  24
ATOM     24  C   UNL     1      -6.029  10.907  18.064  0.00  0.00    +0.000 C 
BRANCH  24  26
ATOM     25  C   UNL     1      -6.861  13.020  17.041  0.00  0.00    +0.000 C 
ATOM     26  C   UNL     1      -6.943  12.106  18.253  0.00  0.00    +0.000 C 
ENDBRANCH  24  26
ENDBRANCH  23  24
ENDBRANCH   1  23
BRANCH   7  27
ATOM     27  C   UNL     1      -1.446  13.881  20.017  0.00  0.00    +0.000 C 
BRANCH  27  28
ATOM     28  C   UNL     1      -2.034  13.888  21.405  0.00  0.00    +0.000 A 
ATOM     29  C   UNL     1      -1.693  14.896  22.339  0.00  0.00    +0.000 A 
ATOM     30  C   UNL     1      -2.180  14.865  23.648  0.00  0.00    +0.000 A 
ATOM     31  C   UNL     1      -3.032  13.841  23.985  0.00  0.00    +0.000 A 
ATOM     32  C   UNL     1      -3.397  12.874  23.079  0.00  0.00    +0.000 A 
ATOM     33  C   UNL     1      -2.919  12.868  21.788  0.00  0.00    +0.000 A 
ATOM     34  O   UNL     1      -4.257  11.964  23.607  0.00  0.00    +0.000 OA
ATOM     35  C   UNL     1      -4.506  12.561  24.895  0.00  0.00    +0.000 C 
ATOM     36  O   UNL     1      -3.620  13.660  25.197  0.00  0.00    +0.000 OA
ENDBRANCH  27  28
ENDBRANCH   7  27
TORSDOF 8
ENDMDL
MODEL 4
REMARK VINA RESULT:      -7.4      1.042      1.831
REMARK  Name = 
REMARK  9 active torsions:
REMARK  status: ('A' for Active; 'I' for Inactive)
REMARK    1  A    between atoms: C_1  and  C_2
REMARK    2  A    between atoms: C_2  and  C_3
REMARK    3  A    between atoms: C_3  and  O_4
REMARK    4  A    between atoms: O_4  and  C_5
REMARK    5  A    between atoms: C_9  and  C_10
REMARK    6  A    between atoms: C_19  and  C_20
REMARK    7  A    between atoms: C_20  and  O_22
REMARK    8  A    between atoms: N_23  and  C_24
REMARK    9  A    between atoms: C_24  and  C_25
REMARK                            x       y       z     vdW  Elec       q    Type
REMARK                         _______ _______ _______ _____ _____    ______ ____
ROOT
ATOM      1  C   UNL     1      -3.756  11.050  17.350  0.00  0.00    +0.000 A 
ATOM      2  C   UNL     1      -3.029  10.065  16.689  0.00  0.00    +0.000 A 
ATOM      3  C   UNL     1      -1.728   9.767  17.072  0.00  0.00    +0.000 A 
ATOM      4  C   UNL     1      -1.167  10.420  18.184  0.00  0.00    +0.000 A 
ATOM      5  C   UNL     1       0.014  10.186  18.938  0.00  0.00    +0.000 A 
ATOM      6  C   UNL     1       0.049  11.099  19.983  0.00  0.00    +0.000 A 
ATOM      7  N   UNL     1      -1.016  11.971  19.770  0.00  0.00    +0.000 N 
ATOM      8  C   UNL     1      -1.856  11.466  18.785  0.00  0.00    +0.000 A 
ATOM      9  C   UNL     1      -3.158  11.809  18.368  0.00  0.00    +0.000 A 
ENDROOT
BRANCH   5  10
ATOM     10  C   UNL     1       0.946   9.095  18.725  0.00  0.00    +0.000 A 
ATOM     11  C   UNL     1       1.918   9.239  17.704  0.00  0.00    +0.000 A 
ATOM     12  C   UNL     1       2.954   8.319  17.563  0.00  0.00    +0.000 A 
ATOM     13  C   UNL     1       2.987   7.284  18.464  0.00  0.00    +0.000 A 
ATOM     14  C   UNL     1       2.006   7.109  19.420  0.00  0.00    +0.000 A 
ATOM     15  C   UNL     1       0.957   7.983  19.572  0.00  0.00    +0.000 A 
ATOM     16  O   UNL     1       2.258   6.034  20.217  0.00  0.00    +0.000 OA
ATOM     17  C   UNL     1       3.621   5.764  19.836  0.00  0.00    +0.000 C 
ATOM     18  O   UNL     1       3.976   6.357  18.570  0.00  0.00    +0.000 OA
ENDBRANCH   5  10
BRANCH   6  19
ATOM     19  C   UNL     1       0.966  11.168  21.095  0.00  0.00    +0.000 C 
ATOM     20  O   UNL     1       1.037  10.371  22.017  0.00  0.00    +0.000 OA
BRANCH  19  21
ATOM     21  O   UNL     1       1.846  12.191  20.962  0.00  0.00    +0.000 OA
ATOM     22  H   UNL     1       1.417  13.035  20.751  0.00  0.00    +0.000 HD
ENDBRANCH  19  21
ENDBRANCH   6  19
BRANCH   1  23
ATOM     23  O   UNL     1      -5.074  11.344  17.083  0.00  0.00    +0.000 OA
BRANCH  23  24
ATOM     24  C   UNL     1      -5.814  11.829  18.207  0.00  0.00    +0.000 C 
BRANCH  24  26
ATOM     25  C   UNL     1      -7.078  10.947  20.163  0.00  0.00    +0.000 C 
ATOM     26  C   UNL     1      -6.811  10.784  18.675  0.00  0.00    +0.000 C 
ENDBRANCH  24  26
ENDBRANCH  23  24
ENDBRANCH   1  23
BRANCH   7  27
ATOM     27  C   UNL     1      -1.272  13.202  20.520  0.00  0.00    +0.000 C 
BRANCH  27  28
ATOM     28  C   UNL     1      -2.308  12.989  21.594  0.00  0.00    +0.000 A 
ATOM     29  C   UNL     1      -1.994  12.292  22.786  0.00  0.00    +0.000 A 
ATOM     30  C   UNL     1      -2.971  12.032  23.750  0.00  0.00    +0.000 A 
ATOM     31  C   UNL     1      -4.239  12.508  23.517  0.00  0.00    +0.000 A 
ATOM     32  C   UNL     1      -4.549  13.213  22.379  0.00  0.00    +0.000 A 
ATOM     33  C   UNL     1      -3.613  13.471  21.403  0.00  0.00    +0.000 A 
ATOM     34  O   UNL     1      -5.849  13.607  22.349  0.00  0.00    +0.000 OA
ATOM     35  C   UNL     1      -6.272  13.201  23.666  0.00  0.00    +0.000 C 
ATOM     36  O   UNL     1      -5.306  12.372  24.346  0.00  0.00    +0.000 OA
ENDBRANCH  27  28
ENDBRANCH   7  27
TORSDOF 8
ENDMDL
MODEL 5
REMARK VINA RESULT:      -7.4      1.035      1.630
REMARK  Name = 
REMARK  9 active torsions:
REMARK  status: ('A' for Active; 'I' for Inactive)
REMARK    1  A    between atoms: C_1  and  C_2
REMARK    2  A    between atoms: C_2  and  C_3
REMARK    3  A    between atoms: C_3  and  O_4
REMARK    4  A    between atoms: O_4  and  C_5
REMARK    5  A    between atoms: C_9  and  C_10
REMARK    6  A    between atoms: C_19  and  C_20
REMARK    7  A    between atoms: C_20  and  O_22
REMARK    8  A    between atoms: N_23  and  C_24
REMARK    9  A    between atoms: C_24  and  C_25
REMARK                            x       y       z     vdW  Elec       q    Type
REMARK                         _______ _______ _______ _____ _____    ______ ____
ROOT
ATOM      1  C   UNL     1      -4.663  11.074  18.014  0.00  0.00    +0.000 A 
ATOM      2  C   UNL     1      -3.762  10.141  17.510  0.00  0.00    +0.000 A 
ATOM      3  C   UNL     1      -2.459  10.085  17.988  0.00  0.00    +0.000 A 
ATOM      4  C   UNL     1      -2.070  10.933  19.040  0.00  0.00    +0.000 A 
ATOM      5  C   UNL     1      -0.919  10.963  19.872  0.00  0.00    +0.000 A 
ATOM      6  C   UNL     1      -1.082  11.981  20.802  0.00  0.00    +0.000 A 
ATOM      7  N   UNL     1      -2.244  12.656  20.436  0.00  0.00    +0.000 N 
ATOM      8  C   UNL     1      -2.939  11.925  19.479  0.00  0.00    +0.000 A 
ATOM      9  C   UNL     1      -4.246  12.021  18.962  0.00  0.00    +0.000 A 
ENDROOT
BRANCH   5  10
ATOM     10  C   UNL     1       0.171  10.006  19.836  0.00  0.00    +0.000 A 
ATOM     11  C   UNL     1       0.359   9.169  20.963  0.00  0.00    +0.000 A 
ATOM     12  C   UNL     1       1.263   8.109  20.929  0.00  0.00    +0.000 A 
ATOM     13  C   UNL     1       1.944   7.918  19.753  0.00  0.00    +0.000 A 
ATOM     14  C   UNL     1       1.806   8.770  18.676  0.00  0.00    +0.000 A 
ATOM     15  C   UNL     1       0.943   9.839  18.683  0.00  0.00    +0.000 A 
ATOM     16  O   UNL     1       2.558   8.371  17.612  0.00  0.00    +0.000 OA
ATOM     17  C   UNL     1       2.922   7.049  18.054  0.00  0.00    +0.000 C 
ATOM     18  O   UNL     1       2.773   6.875  19.479  0.00  0.00    +0.000 OA
ENDBRANCH   5  10
BRANCH   6  19
ATOM     19  C   UNL     1      -0.258  12.310  21.940  0.00  0.00    +0.000 C 
ATOM     20  O   UNL     1      -0.400  11.883  23.074  0.00  0.00    +0.000 OA
BRANCH  19  21
ATOM     21  O   UNL     1       0.793  13.092  21.594  0.00  0.00    +0.000 OA
ATOM     22  H   UNL     1       0.770  13.966  22.015  0.00  0.00    +0.000 HD
ENDBRANCH  19  21
ENDBRANCH   6  19
BRANCH   1  23
ATOM     23  O   UNL     1      -5.990  11.136  17.652  0.00  0.00    +0.000 OA
BRANCH  23  24
ATOM     24  C   UNL     1      -6.619  12.392  17.918  0.00  0.00    +0.000 C 
BRANCH  24  26
ATOM     25  C   UNL     1      -7.352  14.551  16.914  0.00  0.00    +0.000 C 
ATOM     26  C   UNL     1      -6.493  13.312  16.715  0.00  0.00    +0.000 C 
ENDBRANCH  24  26
ENDBRANCH  23  24
ENDBRANCH   1  23
BRANCH   7  27
ATOM     27  C   UNL     1      -2.721  13.910  21.020  0.00  0.00    +0.000 C 
BRANCH  27  28
ATOM     28  C   UNL     1      -3.842  13.673  22.001  0.00  0.00    +0.000 A 
ATOM     29  C   UNL     1      -3.662  12.836  23.129  0.00  0.00    +0.000 A 
ATOM     30  C   UNL     1      -4.719  12.557  23.998  0.00  0.00    +0.000 A 
ATOM     31  C   UNL     1      -5.930  13.153  23.740  0.00  0.00    +0.000 A 
ATOM     32  C   UNL     1      -6.110  13.992  22.666  0.00  0.00    +0.000 A 
ATOM     33  C   UNL     1      -5.092  14.272  21.782  0.00  0.00    +0.000 A 
ATOM     34  O   UNL     1      -7.373  14.487  22.598  0.00  0.00    +0.000 OA
ATOM     35  C   UNL     1      -7.914  13.985  23.836  0.00  0.00    +0.000 C 
ATOM     36  O   UNL     1      -7.059  13.018  24.483  0.00  0.00    +0.000 OA
ENDBRANCH  27  28
ENDBRANCH   7  27
TORSDOF 8
ENDMDL
MODEL 6
REMARK VINA RESULT:      -7.2      2.276      3.734
REMARK  Name = 
REMARK  9 active torsions:
REMARK  status: ('A' for Active; 'I' for Inactive)
REMARK    1  A    between atoms: C_1  and  C_2
REMARK    2  A    between atoms: C_2  and  C_3
REMARK    3  A    between atoms: C_3  and  O_4
REMARK    4  A    between atoms: O_4  and  C_5
REMARK    5  A    between atoms: C_9  and  C_10
REMARK    6  A    between atoms: C_19  and  C_20
REMARK    7  A    between atoms: C_20  and  O_22
REMARK    8  A    between atoms: N_23  and  C_24
REMARK    9  A    between atoms: C_24  and  C_25
REMARK                            x       y       z     vdW  Elec       q    Type
REMARK                         _______ _______ _______ _____ _____    ______ ____
ROOT
ATOM      1  C   UNL     1      -3.823  10.998  17.240  0.00  0.00    +0.000 A 
ATOM      2  C   UNL     1      -2.938  10.015  16.807  0.00  0.00    +0.000 A 
ATOM      3  C   UNL     1      -1.701   9.857  17.417  0.00  0.00    +0.000 A 
ATOM      4  C   UNL     1      -1.370  10.652  18.528  0.00  0.00    +0.000 A 
ATOM      5  C   UNL     1      -0.315  10.582  19.477  0.00  0.00    +0.000 A 
ATOM      6  C   UNL     1      -0.507  11.589  20.414  0.00  0.00    +0.000 A 
ATOM      7  N   UNL     1      -1.575  12.351  19.948  0.00  0.00    +0.000 N 
ATOM      8  C   UNL     1      -2.212  11.693  18.903  0.00  0.00    +0.000 A 
ATOM      9  C   UNL     1      -3.447  11.893  18.255  0.00  0.00    +0.000 A 
ENDROOT
BRANCH   5  10
ATOM     10  C   UNL     1       0.705   9.552  19.527  0.00  0.00    +0.000 A 
ATOM     11  C   UNL     1       0.752   8.716  20.671  0.00  0.00    +0.000 A 
ATOM     12  C   UNL     1       1.579   7.597  20.710  0.00  0.00    +0.000 A 
ATOM     13  C   UNL     1       2.329   7.345  19.589  0.00  0.00    +0.000 A 
ATOM     14  C   UNL     1       2.330   8.192  18.499  0.00  0.00    +0.000 A 
ATOM     15  C   UNL     1       1.546   9.318  18.435  0.00  0.00    +0.000 A 
ATOM     16  O   UNL     1       3.127   7.730  17.496  0.00  0.00    +0.000 OA
ATOM     17  C   UNL     1       3.365   6.391  17.972  0.00  0.00    +0.000 C 
ATOM     18  O   UNL     1       3.101   6.245  19.383  0.00  0.00    +0.000 OA
ENDBRANCH   5  10
BRANCH   6  19
ATOM     19  C   UNL     1       0.211  11.833  21.642  0.00  0.00    +0.000 C 
ATOM     20  O   UNL     1      -0.137  11.481  22.757  0.00  0.00    +0.000 OA
BRANCH  19  21
ATOM     21  O   UNL     1       1.408  12.428  21.417  0.00  0.00    +0.000 OA
ATOM     22  H   UNL     1       2.161  11.875  21.681  0.00  0.00    +0.000 HD
ENDBRANCH  19  21
ENDBRANCH   6  19
BRANCH   1  23
ATOM     23  O   UNL     1      -5.096  11.162  16.743  0.00  0.00    +0.000 OA
BRANCH  23  24
ATOM     24  C   UNL     1      -5.740  12.374  17.145  0.00  0.00    +0.000 C 
BRANCH  24  26
ATOM     25  C   UNL     1      -6.919  10.747  18.617  0.00  0.00    +0.000 C 
ATOM     26  C   UNL     1      -7.039  12.067  17.870  0.00  0.00    +0.000 C 
ENDBRANCH  24  26
ENDBRANCH  23  24
ENDBRANCH   1  23
BRANCH   7  27
ATOM     27  C   UNL     1      -2.026  13.623  20.516  0.00  0.00    +0.000 C 
BRANCH  27  28
ATOM     28  C   UNL     1      -1.033  14.728  20.257  0.00  0.00    +0.000 A 
ATOM     29  C   UNL     1      -0.411  14.871  18.993  0.00  0.00    +0.000 A 
ATOM     30  C   UNL     1       0.562  15.848  18.772  0.00  0.00    +0.000 A 
ATOM     31  C   UNL     1       0.868  16.689  19.814  0.00  0.00    +0.000 A 
ATOM     32  C   UNL     1       0.250  16.581  21.036  0.00  0.00    +0.000 A 
ATOM     33  C   UNL     1      -0.700  15.617  21.290  0.00  0.00    +0.000 A 
ATOM     34  O   UNL     1       0.683  17.515  21.923  0.00  0.00    +0.000 OA
ATOM     35  C   UNL     1       1.526  18.311  21.067  0.00  0.00    +0.000 C 
ATOM     36  O   UNL     1       1.767  17.707  19.779  0.00  0.00    +0.000 OA
ENDBRANCH  27  28
ENDBRANCH   7  27
TORSDOF 8
ENDMDL
MODEL 7
REMARK VINA RESULT:      -7.2      2.424      4.379
REMARK  Name = 
REMARK  9 active torsions:
REMARK  status: ('A' for Active; 'I' for Inactive)
REMARK    1  A    between atoms: C_1  and  C_2
REMARK    2  A    between atoms: C_2  and  C_3
REMARK    3  A    between atoms: C_3  and  O_4
REMARK    4  A    between atoms: O_4  and  C_5
REMARK    5  A    between atoms: C_9  and  C_10
REMARK    6  A    between atoms: C_19  and  C_20
REMARK    7  A    between atoms: C_20  and  O_22
REMARK    8  A    between atoms: N_23  and  C_24
REMARK    9  A    between atoms: C_24  and  C_25
REMARK                            x       y       z     vdW  Elec       q    Type
REMARK                         _______ _______ _______ _____ _____    ______ ____
ROOT
ATOM      1  C   UNL     1      -3.506  11.130  17.177  0.00  0.00    +0.000 A 
ATOM      2  C   UNL     1      -2.715  10.062  16.765  0.00  0.00    +0.000 A 
ATOM      3  C   UNL     1      -1.464   9.847  17.328  0.00  0.00    +0.000 A 
ATOM      4  C   UNL     1      -1.026  10.677  18.375  0.00  0.00    +0.000 A 
ATOM      5  C   UNL     1       0.066  10.583  19.279  0.00  0.00    +0.000 A 
ATOM      6  C   UNL     1      -0.008  11.651  20.163  0.00  0.00    +0.000 A 
ATOM      7  N   UNL     1      -1.041  12.464  19.699  0.00  0.00    +0.000 N 
ATOM      8  C   UNL     1      -1.772  11.796  18.723  0.00  0.00    +0.000 A 
ATOM      9  C   UNL     1      -3.019  12.050  18.119  0.00  0.00    +0.000 A 
ENDROOT
BRANCH   5  10
ATOM     10  C   UNL     1       1.012   9.484  19.346  0.00  0.00    +0.000 A 
ATOM     11  C   UNL     1       0.964   8.633  20.478  0.00  0.00    +0.000 A 
ATOM     12  C   UNL     1       1.712   7.459  20.526  0.00  0.00    +0.000 A 
ATOM     13  C   UNL     1       2.478   7.170  19.426  0.00  0.00    +0.000 A 
ATOM     14  C   UNL     1       2.573   8.029  18.349  0.00  0.00    +0.000 A 
ATOM     15  C   UNL     1       1.869   9.208  18.278  0.00  0.00    +0.000 A 
ATOM     16  O   UNL     1       3.369   7.527  17.365  0.00  0.00    +0.000 OA
ATOM     17  C   UNL     1       3.499   6.169  17.828  0.00  0.00    +0.000 C 
ATOM     18  O   UNL     1       3.180   6.022  19.228  0.00  0.00    +0.000 OA
ENDBRANCH   5  10
BRANCH   6  19
ATOM     19  C   UNL     1       0.783  11.910  21.341  0.00  0.00    +0.000 C 
ATOM     20  O   UNL     1       1.847  12.507  21.372  0.00  0.00    +0.000 OA
BRANCH  19  21
ATOM     21  O   UNL     1       0.158  11.498  22.471  0.00  0.00    +0.000 OA
ATOM     22  H   UNL     1       0.703  11.605  23.266  0.00  0.00    +0.000 HD
ENDBRANCH  19  21
ENDBRANCH   6  19
BRANCH   1  23
ATOM     23  O   UNL     1      -4.787  11.360  16.726  0.00  0.00    +0.000 OA
BRANCH  23  24
ATOM     24  C   UNL     1      -5.795  11.279  17.737  0.00  0.00    +0.000 C 
BRANCH  24  26
ATOM     25  C   UNL     1      -6.451  13.549  18.524  0.00  0.00    +0.000 C 
ATOM     26  C   UNL     1      -6.796  12.411  17.576  0.00  0.00    +0.000 C 
ENDBRANCH  24  26
ENDBRANCH  23  24
ENDBRANCH   1  23
BRANCH   7  27
ATOM     27  C   UNL     1      -1.372  13.795  20.210  0.00  0.00    +0.000 C 
BRANCH  27  28
ATOM     28  C   UNL     1      -0.512  14.860  19.577  0.00  0.00    +0.000 A 
ATOM     29  C   UNL     1      -0.976  16.191  19.443  0.00  0.00    +0.000 A 
ATOM     30  C   UNL     1      -0.211  17.161  18.792  0.00  0.00    +0.000 A 
ATOM     31  C   UNL     1       1.023  16.787  18.319  0.00  0.00    +0.000 A 
ATOM     32  C   UNL     1       1.499  15.507  18.470  0.00  0.00    +0.000 A 
ATOM     33  C   UNL     1       0.761  14.524  19.091  0.00  0.00    +0.000 A 
ATOM     34  O   UNL     1       2.743  15.349  17.948  0.00  0.00    +0.000 OA
ATOM     35  C   UNL     1       3.049  16.712  17.593  0.00  0.00    +0.000 C 
ATOM     36  O   UNL     1       1.911  17.595  17.683  0.00  0.00    +0.000 OA
ENDBRANCH  27  28
ENDBRANCH   7  27
TORSDOF 8
ENDMDL
MODEL 8
REMARK VINA RESULT:      -7.2      1.385      1.774
REMARK  Name = 
REMARK  9 active torsions:
REMARK  status: ('A' for Active; 'I' for Inactive)
REMARK    1  A    between atoms: C_1  and  C_2
REMARK    2  A    between atoms: C_2  and  C_3
REMARK    3  A    between atoms: C_3  and  O_4
REMARK    4  A    between atoms: O_4  and  C_5
REMARK    5  A    between atoms: C_9  and  C_10
REMARK    6  A    between atoms: C_19  and  C_20
REMARK    7  A    between atoms: C_20  and  O_22
REMARK    8  A    between atoms: N_23  and  C_24
REMARK    9  A    between atoms: C_24  and  C_25
REMARK                            x       y       z     vdW  Elec       q    Type
REMARK                         _______ _______ _______ _____ _____    ______ ____
ROOT
ATOM      1  C   UNL     1      -3.965  10.917  17.558  0.00  0.00    +0.000 A 
ATOM      2  C   UNL     1      -3.228   9.785  17.224  0.00  0.00    +0.000 A 
ATOM      3  C   UNL     1      -1.902   9.661  17.616  0.00  0.00    +0.000 A 
ATOM      4  C   UNL     1      -1.322  10.659  18.419  0.00  0.00    +0.000 A 
ATOM      5  C   UNL     1      -0.103  10.717  19.146  0.00  0.00    +0.000 A 
ATOM      6  C   UNL     1      -0.060  11.926  19.827  0.00  0.00    +0.000 A 
ATOM      7  N   UNL     1      -1.165  12.653  19.392  0.00  0.00    +0.000 N 
ATOM      8  C   UNL     1      -2.026  11.830  18.675  0.00  0.00    +0.000 A 
ATOM      9  C   UNL     1      -3.355  11.985  18.235  0.00  0.00    +0.000 A 
ENDROOT
BRANCH   5  10
ATOM     10  C   UNL     1       0.861   9.638  19.260  0.00  0.00    +0.000 A 
ATOM     11  C   UNL     1       0.835   8.843  20.432  0.00  0.00    +0.000 A 
ATOM     12  C   UNL     1       1.602   7.685  20.532  0.00  0.00    +0.000 A 
ATOM     13  C   UNL     1       2.367   7.355  19.441  0.00  0.00    +0.000 A 
ATOM     14  C   UNL     1       2.440   8.162  18.323  0.00  0.00    +0.000 A 
ATOM     15  C   UNL     1       1.716   9.324  18.200  0.00  0.00    +0.000 A 
ATOM     16  O   UNL     1       3.238   7.625  17.359  0.00  0.00    +0.000 OA
ATOM     17  C   UNL     1       3.394   6.294  17.887  0.00  0.00    +0.000 C 
ATOM     18  O   UNL     1       3.086   6.211  19.294  0.00  0.00    +0.000 OA
ENDBRANCH   5  10
BRANCH   6  19
ATOM     19  C   UNL     1       0.898  12.382  20.804  0.00  0.00    +0.000 C 
ATOM     20  O   UNL     1       1.841  13.127  20.590  0.00  0.00    +0.000 OA
BRANCH  19  21
ATOM     21  O   UNL     1       0.581  11.968  22.055  0.00  0.00    +0.000 OA
ATOM     22  H   UNL     1       0.085  11.134  22.065  0.00  0.00    +0.000 HD
ENDBRANCH  19  21
ENDBRANCH   6  19
BRANCH   1  23
ATOM     23  O   UNL     1      -5.304  11.075  17.277  0.00  0.00    +0.000 OA
BRANCH  23  24
ATOM     24  C   UNL     1      -6.103  11.467  18.396  0.00  0.00    +0.000 C 
BRANCH  24  26
ATOM     25  C   UNL     1      -7.375  10.643  20.373  0.00  0.00    +0.000 C 
ATOM     26  C   UNL     1      -6.712  10.245  19.063  0.00  0.00    +0.000 C 
ENDBRANCH  24  26
ENDBRANCH  23  24
ENDBRANCH   1  23
BRANCH   7  27
ATOM     27  C   UNL     1      -1.438  14.057  19.704  0.00  0.00    +0.000 C 
BRANCH  27  28
ATOM     28  C   UNL     1      -2.144  14.203  21.028  0.00  0.00    +0.000 A 
ATOM     29  C   UNL     1      -3.530  13.940  21.150  0.00  0.00    +0.000 A 
ATOM     30  C   UNL     1      -4.201  14.144  22.358  0.00  0.00    +0.000 A 
ATOM     31  C   UNL     1      -3.460  14.573  23.433  0.00  0.00    +0.000 A 
ATOM     32  C   UNL     1      -2.109  14.801  23.336  0.00  0.00    +0.000 A 
ATOM     33  C   UNL     1      -1.423  14.627  22.155  0.00  0.00    +0.000 A 
ATOM     34  O   UNL     1      -1.563  15.204  24.513  0.00  0.00    +0.000 OA
ATOM     35  C   UNL     1      -2.698  15.052  25.389  0.00  0.00    +0.000 C 
ATOM     36  O   UNL     1      -3.933  14.803  24.686  0.00  0.00    +0.000 OA
ENDBRANCH  27  28
ENDBRANCH   7  27
TORSDOF 8
ENDMDL
MODEL 9
REMARK VINA RESULT:      -7.2      0.971      1.514
REMARK  Name = 
REMARK  9 active torsions:
REMARK  status: ('A' for Active; 'I' for Inactive)
REMARK    1  A    between atoms: C_1  and  C_2
REMARK    2  A    between atoms: C_2  and  C_3
REMARK    3  A    between atoms: C_3  and  O_4
REMARK    4  A    between atoms: O_4  and  C_5
REMARK    5  A    between atoms: C_9  and  C_10
REMARK    6  A    between atoms: C_19  and  C_20
REMARK    7  A    between atoms: C_20  and  O_22
REMARK    8  A    between atoms: N_23  and  C_24
REMARK    9  A    between atoms: C_24  and  C_25
REMARK                            x       y       z     vdW  Elec       q    Type
REMARK                         _______ _______ _______ _____ _____    ______ ____
ROOT
ATOM      1  C   UNL     1      -3.878  11.146  17.362  0.00  0.00    +0.000 A 
ATOM      2  C   UNL     1      -3.178  10.116  16.741  0.00  0.00    +0.000 A 
ATOM      3  C   UNL     1      -1.869   9.829  17.105  0.00  0.00    +0.000 A 
ATOM      4  C   UNL     1      -1.273  10.540  18.161  0.00  0.00    +0.000 A 
ATOM      5  C   UNL     1      -0.073  10.340  18.895  0.00  0.00    +0.000 A 
ATOM      6  C   UNL     1      -0.001  11.313  19.884  0.00  0.00    +0.000 A 
ATOM      7  N   UNL     1      -1.064  12.181  19.648  0.00  0.00    +0.000 N 
ATOM      8  C   UNL     1      -1.936  11.627  18.718  0.00  0.00    +0.000 A 
ATOM      9  C   UNL     1      -3.245  11.958  18.317  0.00  0.00    +0.000 A 
ENDROOT
BRANCH   5  10
ATOM     10  C   UNL     1       0.844   9.228  18.723  0.00  0.00    +0.000 A 
ATOM     11  C   UNL     1       1.842   9.337  17.723  0.00  0.00    +0.000 A 
ATOM     12  C   UNL     1       2.864   8.396  17.622  0.00  0.00    +0.000 A 
ATOM     13  C   UNL     1       2.856   7.377  18.540  0.00  0.00    +0.000 A 
ATOM     14  C   UNL     1       1.851   7.236  19.475  0.00  0.00    +0.000 A 
ATOM     15  C   UNL     1       0.814   8.131  19.588  0.00  0.00    +0.000 A 
ATOM     16  O   UNL     1       2.064   6.170  20.296  0.00  0.00    +0.000 OA
ATOM     17  C   UNL     1       3.430   5.869  19.952  0.00  0.00    +0.000 C 
ATOM     18  O   UNL     1       3.826   6.434  18.685  0.00  0.00    +0.000 OA
ENDBRANCH   5  10
BRANCH   6  19
ATOM     19  C   UNL     1       0.947  11.439  20.964  0.00  0.00    +0.000 C 
ATOM     20  O   UNL     1       1.882  12.222  21.009  0.00  0.00    +0.000 OA
BRANCH  19  21
ATOM     21  O   UNL     1       0.629  10.639  22.011  0.00  0.00    +0.000 OA
ATOM     22  H   UNL     1      -0.315  10.420  22.049  0.00  0.00    +0.000 HD
ENDBRANCH  19  21
ENDBRANCH   6  19
BRANCH   1  23
ATOM     23  O   UNL     1      -5.201  11.437  17.114  0.00  0.00    +0.000 OA
BRANCH  23  24
ATOM     24  C   UNL     1      -5.900  12.010  18.222  0.00  0.00    +0.000 C 
BRANCH  24  26
ATOM     25  C   UNL     1      -6.992  11.285  20.340  0.00  0.00    +0.000 C 
ATOM     26  C   UNL     1      -6.813  10.978  18.861  0.00  0.00    +0.000 C 
ENDBRANCH  24  26
ENDBRANCH  23  24
ENDBRANCH   1  23
BRANCH   7  27
ATOM     27  C   UNL     1      -1.288  13.457  20.330  0.00  0.00    +0.000 C 
BRANCH  27  28
ATOM     28  C   UNL     1      -2.514  13.407  21.206  0.00  0.00    +0.000 A 
ATOM     29  C   UNL     1      -3.657  14.189  20.910  0.00  0.00    +0.000 A 
ATOM     30  C   UNL     1      -4.766  14.199  21.760  0.00  0.00    +0.000 A 
ATOM     31  C   UNL     1      -4.722  13.396  22.874  0.00  0.00    +0.000 A 
ATOM     32  C   UNL     1      -3.632  12.609  23.156  0.00  0.00    +0.000 A 
ATOM     33  C   UNL     1      -2.517  12.591  22.348  0.00  0.00    +0.000 A 
ATOM     34  O   UNL     1      -3.795  11.881  24.291  0.00  0.00    +0.000 OA
ATOM     35  C   UNL     1      -5.169  12.188  24.599  0.00  0.00    +0.000 C 
ATOM     36  O   UNL     1      -5.709  13.259  23.797  0.00  0.00    +0.000 OA
ENDBRANCH  27  28
ENDBRANCH   7  27
TORSDOF 8
ENDMDL
