MODEL 1
REMARK VINA RESULT:      -8.0      0.000      0.000
REMARK  Name = 
REMARK  6 active torsions:
REMARK  status: ('A' for Active; 'I' for Inactive)
REMARK    1  A    between atoms: C_2  and  O_3
REMARK    2  A    between atoms: C_2  and  C_4
REMARK    3  A    between atoms: C_7  and  C_8
REMARK    4  A    between atoms: C_9  and  C_10
REMARK    5  A    between atoms: C_13  and  C_14
REMARK    6  A    between atoms: C_15  and  C_16
REMARK                            x       y       z     vdW  Elec       q    Type
REMARK                         _______ _______ _______ _____ _____    ______ ____
ROOT
ATOM      1  C   UNL     1       1.523   8.770  19.173  0.00  0.00    +0.000 A 
ATOM      2  C   UNL     1       1.494   8.340  20.504  0.00  0.00    +0.000 A 
ATOM      3  C   UNL     1       0.709   9.004  21.451  0.00  0.00    +0.000 A 
ATOM      4  C   UNL     1      -0.049  10.125  21.093  0.00  0.00    +0.000 A 
ATOM      5  C   UNL     1      -0.033  10.545  19.760  0.00  0.00    +0.000 A 
ATOM      6  C   UNL     1       0.756   9.885  18.813  0.00  0.00    +0.000 A 
ENDROOT
BRANCH   1   8
ATOM      7  C   UNL     1       3.045   6.921  18.507  0.00  0.00    +0.000 C 
ATOM      8  C   UNL     1       2.384   8.053  18.221  0.00  0.00    +0.000 C 
BRANCH   7  12
ATOM      9  C   UNL     1       5.739   5.070  15.747  0.00  0.00    +0.000 A 
ATOM     10  C   UNL     1       5.866   6.423  16.071  0.00  0.00    +0.000 A 
ATOM     11  C   UNL     1       4.986   7.007  16.985  0.00  0.00    +0.000 A 
ATOM     12  C   UNL     1       3.967   6.250  17.581  0.00  0.00    +0.000 A 
ATOM     13  C   UNL     1       3.888   4.880  17.296  0.00  0.00    +0.000 A 
ATOM     14  C   UNL     1       4.770   4.289  16.386  0.00  0.00    +0.000 A 
BRANCH   9  16
ATOM     15  O   UNL     1       7.685   5.055  14.378  0.00  0.00    +0.000 OA
ATOM     16  C   UNL     1       6.666   4.492  14.745  0.00  0.00    +0.000 C 
BRANCH  16  17
ATOM     17  O   UNL     1       6.245   3.315  14.237  0.00  0.00    +0.000 OA
ATOM     18  H   UNL     1       6.668   2.526  14.622  0.00  0.00    +0.000 HD
ENDBRANCH  16  17
ENDBRANCH   9  16
ENDBRANCH   7  12
ENDBRANCH   1   8
BRANCH   4  19
ATOM     19  C   UNL     1      -0.826  10.804  22.139  0.00  0.00    +0.000 C 
ATOM     20  C   UNL     1      -1.383  12.018  21.997  0.00  0.00    +0.000 C 
BRANCH  20  21
ATOM     21  C   UNL     1      -2.044  12.755  23.084  0.00  0.00    +0.000 A 
ATOM     22  C   UNL     1      -1.537  13.958  23.581  0.00  0.00    +0.000 A 
ATOM     23  C   UNL     1      -2.259  14.635  24.551  0.00  0.00    +0.000 A 
ATOM     24  N   UNL     1      -3.436  14.205  25.048  0.00  0.00    +0.000 NA
ATOM     25  C   UNL     1      -3.914  13.047  24.548  0.00  0.00    +0.000 A 
ATOM     26  C   UNL     1      -3.267  12.298  23.577  0.00  0.00    +0.000 A 
ENDBRANCH  20  21
ENDBRANCH   4  19
TORSDOF 6
ENDMDL
MODEL 2
REMARK VINA RESULT:      -7.9      0.344      1.378
REMARK  Name = 
REMARK  6 active torsions:
REMARK  status: ('A' for Active; 'I' for Inactive)
REMARK    1  A    between atoms: C_2  and  O_3
REMARK    2  A    between atoms: C_2  and  C_4
REMARK    3  A    between atoms: C_7  and  C_8
REMARK    4  A    between atoms: C_9  and  C_10
REMARK    5  A    between atoms: C_13  and  C_14
REMARK    6  A    between atoms: C_15  and  C_16
REMARK                            x       y       z     vdW  Elec       q    Type
REMARK                         _______ _______ _______ _____ _____    ______ ____
ROOT
ATOM      1  C   UNL     1       1.717   8.594  19.404  0.00  0.00    +0.000 A 
ATOM      2  C   UNL     1       1.177   9.854  19.122  0.00  0.00    +0.000 A 
ATOM      3  C   UNL     1       0.434  10.543  20.085  0.00  0.00    +0.000 A 
ATOM      4  C   UNL     1       0.197   9.980  21.344  0.00  0.00    +0.000 A 
ATOM      5  C   UNL     1       0.749   8.728  21.632  0.00  0.00    +0.000 A 
ATOM      6  C   UNL     1       1.488   8.036  20.667  0.00  0.00    +0.000 A 
ENDROOT
BRANCH   1   8
ATOM      7  C   UNL     1       3.223   6.808  18.554  0.00  0.00    +0.000 C 
ATOM      8  C   UNL     1       2.469   7.900  18.350  0.00  0.00    +0.000 C 
BRANCH   7  12
ATOM      9  C   UNL     1       5.585   5.030  15.462  0.00  0.00    +0.000 A 
ATOM     10  C   UNL     1       5.658   6.402  15.718  0.00  0.00    +0.000 A 
ATOM     11  C   UNL     1       4.890   6.963  16.741  0.00  0.00    +0.000 A 
ATOM     12  C   UNL     1       4.037   6.163  17.515  0.00  0.00    +0.000 A 
ATOM     13  C   UNL     1       4.018   4.780  17.291  0.00  0.00    +0.000 A 
ATOM     14  C   UNL     1       4.789   4.213  16.272  0.00  0.00    +0.000 A 
BRANCH   9  16
ATOM     15  O   UNL     1       7.175   5.142  13.696  0.00  0.00    +0.000 OA
ATOM     16  C   UNL     1       6.385   4.475  14.344  0.00  0.00    +0.000 C 
BRANCH  16  17
ATOM     17  O   UNL     1       6.112   3.181  14.077  0.00  0.00    +0.000 OA
ATOM     18  H   UNL     1       5.911   2.987  13.143  0.00  0.00    +0.000 HD
ENDBRANCH  16  17
ENDBRANCH   9  16
ENDBRANCH   7  12
ENDBRANCH   1   8
BRANCH   4  19
ATOM     19  C   UNL     1      -0.622  10.735  22.303  0.00  0.00    +0.000 C 
ATOM     20  C   UNL     1      -1.396  11.782  21.974  0.00  0.00    +0.000 C 
BRANCH  20  21
ATOM     21  C   UNL     1      -2.108  12.620  22.949  0.00  0.00    +0.000 A 
ATOM     22  C   UNL     1      -3.356  12.261  23.465  0.00  0.00    +0.000 A 
ATOM     23  C   UNL     1      -3.929  13.061  24.440  0.00  0.00    +0.000 A 
ATOM     24  N   UNL     1      -3.351  14.174  24.934  0.00  0.00    +0.000 NA
ATOM     25  C   UNL     1      -2.142  14.498  24.431  0.00  0.00    +0.000 A 
ATOM     26  C   UNL     1      -1.487  13.762  23.455  0.00  0.00    +0.000 A 
ENDBRANCH  20  21
ENDBRANCH   4  19
TORSDOF 6
ENDMDL
MODEL 3
REMARK VINA RESULT:      -7.8      2.820      3.717
REMARK  Name = 
REMARK  6 active torsions:
REMARK  status: ('A' for Active; 'I' for Inactive)
REMARK    1  A    between atoms: C_2  and  O_3
REMARK    2  A    between atoms: C_2  and  C_4
REMARK    3  A    between atoms: C_7  and  C_8
REMARK    4  A    between atoms: C_9  and  C_10
REMARK    5  A    between atoms: C_13  and  C_14
REMARK    6  A    between atoms: C_15  and  C_16
REMARK                            x       y       z     vdW  Elec       q    Type
REMARK                         _______ _______ _______ _____ _____    ______ ____
ROOT
ATOM      1  C   UNL     1       0.642   9.152  21.425  0.00  0.00    +0.000 A 
ATOM      2  C   UNL     1       0.715  10.404  20.805  0.00  0.00    +0.000 A 
ATOM      3  C   UNL     1       0.048  11.507  21.345  0.00  0.00    +0.000 A 
ATOM      4  C   UNL     1      -0.724  11.378  22.505  0.00  0.00    +0.000 A 
ATOM      5  C   UNL     1      -0.784  10.132  23.134  0.00  0.00    +0.000 A 
ATOM      6  C   UNL     1      -0.121   9.026  22.591  0.00  0.00    +0.000 A 
ENDROOT
BRANCH   1   8
ATOM      7  C   UNL     1       1.069   6.729  21.062  0.00  0.00    +0.000 C 
ATOM      8  C   UNL     1       1.342   8.018  20.804  0.00  0.00    +0.000 C 
BRANCH   7  12
ATOM      9  C   UNL     1       3.220   3.370  19.518  0.00  0.00    +0.000 A 
ATOM     10  C   UNL     1       1.991   3.198  20.161  0.00  0.00    +0.000 A 
ATOM     11  C   UNL     1       1.296   4.308  20.646  0.00  0.00    +0.000 A 
ATOM     12  C   UNL     1       1.821   5.600  20.501  0.00  0.00    +0.000 A 
ATOM     13  C   UNL     1       3.023   5.766  19.801  0.00  0.00    +0.000 A 
ATOM     14  C   UNL     1       3.720   4.659  19.308  0.00  0.00    +0.000 A 
BRANCH   9  16
ATOM     15  O   UNL     1       3.577   1.490  18.104  0.00  0.00    +0.000 OA
ATOM     16  C   UNL     1       3.948   2.166  19.049  0.00  0.00    +0.000 C 
BRANCH  16  17
ATOM     17  O   UNL     1       5.024   1.860  19.804  0.00  0.00    +0.000 OA
ATOM     18  H   UNL     1       4.831   1.690  20.745  0.00  0.00    +0.000 HD
ENDBRANCH  16  17
ENDBRANCH   9  16
ENDBRANCH   7  12
ENDBRANCH   1   8
BRANCH   4  19
ATOM     19  C   UNL     1      -1.433  12.565  23.006  0.00  0.00    +0.000 C 
ATOM     20  C   UNL     1      -2.691  12.549  23.476  0.00  0.00    +0.000 C 
BRANCH  20  21
ATOM     21  C   UNL     1      -3.446  13.753  23.850  0.00  0.00    +0.000 A 
ATOM     22  C   UNL     1      -2.859  14.812  24.548  0.00  0.00    +0.000 A 
ATOM     23  C   UNL     1      -3.613  15.947  24.796  0.00  0.00    +0.000 A 
ATOM     24  N   UNL     1      -4.891  16.102  24.397  0.00  0.00    +0.000 NA
ATOM     25  C   UNL     1      -5.438  15.074  23.714  0.00  0.00    +0.000 A 
ATOM     26  C   UNL     1      -4.765  13.898  23.417  0.00  0.00    +0.000 A 
ENDBRANCH  20  21
ENDBRANCH   4  19
TORSDOF 6
ENDMDL
MODEL 4
REMARK VINA RESULT:      -7.8      0.731      1.362
REMARK  Name = 
REMARK  6 active torsions:
REMARK  status: ('A' for Active; 'I' for Inactive)
REMARK    1  A    between atoms: C_2  and  O_3
REMARK    2  A    between atoms: C_2  and  C_4
REMARK    3  A    between atoms: C_7  and  C_8
REMARK    4  A    between atoms: C_9  and  C_10
REMARK    5  A    between atoms: C_13  and  C_14
REMARK    6  A    between atoms: C_15  and  C_16
REMARK                            x       y       z     vdW  Elec       q    Type
REMARK                         _______ _______ _______ _____ _____    ______ ____
ROOT
ATOM      1  C   UNL     1       1.148   9.284  18.671  0.00  0.00    +0.000 A 
ATOM      2  C   UNL     1       1.316   9.412  20.055  0.00  0.00    +0.000 A 
ATOM      3  C   UNL     1       0.462  10.227  20.804  0.00  0.00    +0.000 A 
ATOM      4  C   UNL     1      -0.564  10.949  20.184  0.00  0.00    +0.000 A 
ATOM      5  C   UNL     1      -0.741  10.810  18.805  0.00  0.00    +0.000 A 
ATOM      6  C   UNL     1       0.116   9.999  18.054  0.00  0.00    +0.000 A 
ENDROOT
BRANCH   1   8
ATOM      7  C   UNL     1       2.558   7.258  18.370  0.00  0.00    +0.000 C 
ATOM      8  C   UNL     1       2.087   8.434  17.925  0.00  0.00    +0.000 C 
BRANCH   7  12
ATOM      9  C   UNL     1       5.481   4.992  16.221  0.00  0.00    +0.000 A 
ATOM     10  C   UNL     1       5.581   6.382  16.314  0.00  0.00    +0.000 A 
ATOM     11  C   UNL     1       4.625   7.105  17.032  0.00  0.00    +0.000 A 
ATOM     12  C   UNL     1       3.556   6.449  17.659  0.00  0.00    +0.000 A 
ATOM     13  C   UNL     1       3.500   5.050  17.611  0.00  0.00    +0.000 A 
ATOM     14  C   UNL     1       4.457   4.322  16.899  0.00  0.00    +0.000 A 
BRANCH   9  16
ATOM     15  O   UNL     1       6.209   3.600  14.434  0.00  0.00    +0.000 OA
ATOM     16  C   UNL     1       6.492   4.262  15.419  0.00  0.00    +0.000 C 
BRANCH  16  17
ATOM     17  O   UNL     1       7.742   4.352  15.919  0.00  0.00    +0.000 OA
ATOM     18  H   UNL     1       8.363   4.879  15.383  0.00  0.00    +0.000 HD
ENDBRANCH  16  17
ENDBRANCH   9  16
ENDBRANCH   7  12
ENDBRANCH   1   8
BRANCH   4  19
ATOM     19  C   UNL     1      -1.406  11.819  21.018  0.00  0.00    +0.000 C 
ATOM     20  C   UNL     1      -1.176  12.072  22.316  0.00  0.00    +0.000 C 
BRANCH  20  21
ATOM     21  C   UNL     1      -2.089  12.831  23.183  0.00  0.00    +0.000 A 
ATOM     22  C   UNL     1      -3.305  12.302  23.625  0.00  0.00    +0.000 A 
ATOM     23  C   UNL     1      -4.075  13.046  24.504  0.00  0.00    +0.000 A 
ATOM     24  N   UNL     1      -3.720  14.260  24.971  0.00  0.00    +0.000 NA
ATOM     25  C   UNL     1      -2.538  14.749  24.541  0.00  0.00    +0.000 A 
ATOM     26  C   UNL     1      -1.698  14.081  23.664  0.00  0.00    +0.000 A 
ENDBRANCH  20  21
ENDBRANCH   4  19
TORSDOF 6
ENDMDL
MODEL 5
REMARK VINA RESULT:      -7.8      0.348      1.202
REMARK  Name = 
REMARK  6 active torsions:
REMARK  status: ('A' for Active; 'I' for Inactive)
REMARK    1  A    between atoms: C_2  and  O_3
REMARK    2  A    between atoms: C_2  and  C_4
REMARK    3  A    between atoms: C_7  and  C_8
REMARK    4  A    between atoms: C_9  and  C_10
REMARK    5  A    between atoms: C_13  and  C_14
REMARK    6  A    between atoms: C_15  and  C_16
REMARK                            x       y       z     vdW  Elec       q    Type
REMARK                         _______ _______ _______ _____ _____    ______ ____
ROOT
ATOM      1  C   UNL     1       1.573   8.765  19.535  0.00  0.00    +0.000 A 
ATOM      2  C   UNL     1       0.900   9.941  19.184  0.00  0.00    +0.000 A 
ATOM      3  C   UNL     1       0.064  10.584  20.102  0.00  0.00    +0.000 A 
ATOM      4  C   UNL     1      -0.135  10.054  21.382  0.00  0.00    +0.000 A 
ATOM      5  C   UNL     1       0.549   8.888  21.737  0.00  0.00    +0.000 A 
ATOM      6  C   UNL     1       1.382   8.242  20.819  0.00  0.00    +0.000 A 
ENDROOT
BRANCH   1   8
ATOM      7  C   UNL     1       2.847   6.844  18.604  0.00  0.00    +0.000 C 
ATOM      8  C   UNL     1       2.422   8.115  18.526  0.00  0.00    +0.000 C 
BRANCH   7  12
ATOM      9  C   UNL     1       5.501   5.129  15.720  0.00  0.00    +0.000 A 
ATOM     10  C   UNL     1       5.530   6.499  15.991  0.00  0.00    +0.000 A 
ATOM     11  C   UNL     1       4.666   7.039  16.947  0.00  0.00    +0.000 A 
ATOM     12  C   UNL     1       3.760   6.220  17.636  0.00  0.00    +0.000 A 
ATOM     13  C   UNL     1       3.783   4.839  17.400  0.00  0.00    +0.000 A 
ATOM     14  C   UNL     1       4.649   4.293  16.449  0.00  0.00    +0.000 A 
BRANCH   9  16
ATOM     15  O   UNL     1       6.172   3.575  14.048  0.00  0.00    +0.000 OA
ATOM     16  C   UNL     1       6.405   4.596  14.673  0.00  0.00    +0.000 C 
BRANCH  16  17
ATOM     17  O   UNL     1       7.536   5.317  14.521  0.00  0.00    +0.000 OA
ATOM     18  H   UNL     1       7.857   5.392  13.603  0.00  0.00    +0.000 HD
ENDBRANCH  16  17
ENDBRANCH   9  16
ENDBRANCH   7  12
ENDBRANCH   1   8
BRANCH   4  19
ATOM     19  C   UNL     1      -1.055  10.753  22.290  0.00  0.00    +0.000 C 
ATOM     20  C   UNL     1      -1.456  12.024  22.127  0.00  0.00    +0.000 C 
BRANCH  20  21
ATOM     21  C   UNL     1      -2.266  12.765  23.104  0.00  0.00    +0.000 A 
ATOM     22  C   UNL     1      -2.046  14.117  23.379  0.00  0.00    +0.000 A 
ATOM     23  C   UNL     1      -2.901  14.768  24.253  0.00  0.00    +0.000 A 
ATOM     24  N   UNL     1      -3.950  14.175  24.858  0.00  0.00    +0.000 NA
ATOM     25  C   UNL     1      -4.154  12.873  24.572  0.00  0.00    +0.000 A 
ATOM     26  C   UNL     1      -3.354  12.136  23.711  0.00  0.00    +0.000 A 
ENDBRANCH  20  21
ENDBRANCH   4  19
TORSDOF 6
ENDMDL
MODEL 6
REMARK VINA RESULT:      -7.7      2.806      3.587
REMARK  Name = 
REMARK  6 active torsions:
REMARK  status: ('A' for Active; 'I' for Inactive)
REMARK    1  A    between atoms: C_2  and  O_3
REMARK    2  A    between atoms: C_2  and  C_4
REMARK    3  A    between atoms: C_7  and  C_8
REMARK    4  A    between atoms: C_9  and  C_10
REMARK    5  A    between atoms: C_13  and  C_14
REMARK    6  A    between atoms: C_15  and  C_16
REMARK                            x       y       z     vdW  Elec       q    Type
REMARK                         _______ _______ _______ _____ _____    ______ ____
ROOT
ATOM      1  C   UNL     1       0.780   9.157  21.209  0.00  0.00    +0.000 A 
ATOM      2  C   UNL     1       0.117   9.046  22.436  0.00  0.00    +0.000 A 
ATOM      3  C   UNL     1      -0.553  10.143  22.985  0.00  0.00    +0.000 A 
ATOM      4  C   UNL     1      -0.557  11.380  22.331  0.00  0.00    +0.000 A 
ATOM      5  C   UNL     1       0.092  11.487  21.098  0.00  0.00    +0.000 A 
ATOM      6  C   UNL     1       0.767  10.391  20.550  0.00  0.00    +0.000 A 
ENDROOT
BRANCH   1   8
ATOM      7  C   UNL     1       1.094   6.713  20.877  0.00  0.00    +0.000 C 
ATOM      8  C   UNL     1       1.490   7.981  20.686  0.00  0.00    +0.000 C 
BRANCH   7  12
ATOM      9  C   UNL     1       3.307   3.257  19.667  0.00  0.00    +0.000 A 
ATOM     10  C   UNL     1       2.523   3.235  20.823  0.00  0.00    +0.000 A 
ATOM     11  C   UNL     1       1.796   4.368  21.195  0.00  0.00    +0.000 A 
ATOM     12  C   UNL     1       1.848   5.537  20.422  0.00  0.00    +0.000 A 
ATOM     13  C   UNL     1       2.588   5.528  19.232  0.00  0.00    +0.000 A 
ATOM     14  C   UNL     1       3.313   4.395  18.852  0.00  0.00    +0.000 A 
BRANCH   9  16
ATOM     15  O   UNL     1       3.753   1.254  18.463  0.00  0.00    +0.000 OA
ATOM     16  C   UNL     1       4.095   2.050  19.323  0.00  0.00    +0.000 C 
BRANCH  16  17
ATOM     17  O   UNL     1       5.192   1.886  20.091  0.00  0.00    +0.000 OA
ATOM     18  H   UNL     1       5.757   1.130  19.847  0.00  0.00    +0.000 HD
ENDBRANCH  16  17
ENDBRANCH   9  16
ENDBRANCH   7  12
ENDBRANCH   1   8
BRANCH   4  19
ATOM     19  C   UNL     1      -1.247  12.508  22.974  0.00  0.00    +0.000 C 
ATOM     20  C   UNL     1      -2.562  12.533  23.244  0.00  0.00    +0.000 C 
BRANCH  20  21
ATOM     21  C   UNL     1      -3.275  13.708  23.763  0.00  0.00    +0.000 A 
ATOM     22  C   UNL     1      -2.673  14.615  24.640  0.00  0.00    +0.000 A 
ATOM     23  C   UNL     1      -3.382  15.742  25.023  0.00  0.00    +0.000 A 
ATOM     24  N   UNL     1      -4.628  16.028  24.595  0.00  0.00    +0.000 NA
ATOM     25  C   UNL     1      -5.188  15.146  23.740  0.00  0.00    +0.000 A 
ATOM     26  C   UNL     1      -4.560  13.992  23.298  0.00  0.00    +0.000 A 
ENDBRANCH  20  21
ENDBRANCH   4  19
TORSDOF 6
ENDMDL
MODEL 7
REMARK VINA RESULT:      -7.6      1.195      1.449
REMARK  Name = 
REMARK  6 active torsions:
REMARK  status: ('A' for Active; 'I' for Inactive)
REMARK    1  A    between atoms: C_2  and  O_3
REMARK    2  A    between atoms: C_2  and  C_4
REMARK    3  A    between atoms: C_7  and  C_8
REMARK    4  A    between atoms: C_9  and  C_10
REMARK    5  A    between atoms: C_13  and  C_14
REMARK    6  A    between atoms: C_15  and  C_16
REMARK                            x       y       z     vdW  Elec       q    Type
REMARK                         _______ _______ _______ _____ _____    ______ ____
ROOT
ATOM      1  C   UNL     1       1.032   9.375  18.487  0.00  0.00    +0.000 A 
ATOM      2  C   UNL     1       1.252   9.776  19.809  0.00  0.00    +0.000 A 
ATOM      3  C   UNL     1       0.332  10.597  20.468  0.00  0.00    +0.000 A 
ATOM      4  C   UNL     1      -0.818  11.052  19.814  0.00  0.00    +0.000 A 
ATOM      5  C   UNL     1      -1.046  10.639  18.498  0.00  0.00    +0.000 A 
ATOM      6  C   UNL     1      -0.124   9.822  17.836  0.00  0.00    +0.000 A 
ENDROOT
BRANCH   1   8
ATOM      7  C   UNL     1       2.405   7.315  18.263  0.00  0.00    +0.000 C 
ATOM      8  C   UNL     1       2.041   8.533  17.830  0.00  0.00    +0.000 C 
BRANCH   7  12
ATOM      9  C   UNL     1       5.525   5.055  16.403  0.00  0.00    +0.000 A 
ATOM     10  C   UNL     1       5.584   6.450  16.450  0.00  0.00    +0.000 A 
ATOM     11  C   UNL     1       4.563   7.171  17.074  0.00  0.00    +0.000 A 
ATOM     12  C   UNL     1       3.470   6.509  17.652  0.00  0.00    +0.000 A 
ATOM     13  C   UNL     1       3.453   5.108  17.654  0.00  0.00    +0.000 A 
ATOM     14  C   UNL     1       4.474   4.381  17.036  0.00  0.00    +0.000 A 
BRANCH   9  16
ATOM     15  O   UNL     1       6.422   3.684  14.678  0.00  0.00    +0.000 OA
ATOM     16  C   UNL     1       6.606   4.324  15.700  0.00  0.00    +0.000 C 
BRANCH  16  17
ATOM     17  O   UNL     1       7.798   4.389  16.331  0.00  0.00    +0.000 OA
ATOM     18  H   UNL     1       8.405   5.073  15.994  0.00  0.00    +0.000 HD
ENDBRANCH  16  17
ENDBRANCH   9  16
ENDBRANCH   7  12
ENDBRANCH   1   8
BRANCH   4  19
ATOM     19  C   UNL     1      -1.730  11.942  20.545  0.00  0.00    +0.000 C 
ATOM     20  C   UNL     1      -1.836  11.980  21.883  0.00  0.00    +0.000 C 
BRANCH  20  21
ATOM     21  C   UNL     1      -2.840  12.771  22.609  0.00  0.00    +0.000 A 
ATOM     22  C   UNL     1      -3.327  13.985  22.118  0.00  0.00    +0.000 A 
ATOM     23  C   UNL     1      -4.331  14.634  22.819  0.00  0.00    +0.000 A 
ATOM     24  N   UNL     1      -4.880  14.160  23.955  0.00  0.00    +0.000 NA
ATOM     25  C   UNL     1      -4.405  12.981  24.408  0.00  0.00    +0.000 A 
ATOM     26  C   UNL     1      -3.404  12.257  23.778  0.00  0.00    +0.000 A 
ENDBRANCH  20  21
ENDBRANCH   4  19
TORSDOF 6
ENDMDL
MODEL 8
REMARK VINA RESULT:      -7.6      3.557      4.056
REMARK  Name = 
REMARK  6 active torsions:
REMARK  status: ('A' for Active; 'I' for Inactive)
REMARK    1  A    between atoms: C_2  and  O_3
REMARK    2  A    between atoms: C_2  and  C_4
REMARK    3  A    between atoms: C_7  and  C_8
REMARK    4  A    between atoms: C_9  and  C_10
REMARK    5  A    between atoms: C_13  and  C_14
REMARK    6  A    between atoms: C_15  and  C_16
REMARK                            x       y       z     vdW  Elec       q    Type
REMARK                         _______ _______ _______ _____ _____    ______ ____
ROOT
ATOM      1  C   UNL     1       0.881   9.600  18.261  0.00  0.00    +0.000 A 
ATOM      2  C   UNL     1      -0.210   9.428  17.402  0.00  0.00    +0.000 A 
ATOM      3  C   UNL     1      -1.414  10.100  17.634  0.00  0.00    +0.000 A 
ATOM      4  C   UNL     1      -1.560  10.943  18.742  0.00  0.00    +0.000 A 
ATOM      5  C   UNL     1      -0.466  11.127  19.591  0.00  0.00    +0.000 A 
ATOM      6  C   UNL     1       0.737  10.451  19.362  0.00  0.00    +0.000 A 
ENDROOT
BRANCH   1   8
ATOM      7  C   UNL     1       2.292   7.553  18.278  0.00  0.00    +0.000 C 
ATOM      8  C   UNL     1       2.116   8.852  17.987  0.00  0.00    +0.000 C 
BRANCH   7  12
ATOM      9  C   UNL     1       5.955   5.460  17.572  0.00  0.00    +0.000 A 
ATOM     10  C   UNL     1       5.582   6.540  16.767  0.00  0.00    +0.000 A 
ATOM     11  C   UNL     1       4.390   7.220  17.021  0.00  0.00    +0.000 A 
ATOM     12  C   UNL     1       3.553   6.828  18.076  0.00  0.00    +0.000 A 
ATOM     13  C   UNL     1       3.967   5.784  18.914  0.00  0.00    +0.000 A 
ATOM     14  C   UNL     1       5.162   5.103  18.668  0.00  0.00    +0.000 A 
BRANCH   9  16
ATOM     15  O   UNL     1       7.974   4.318  18.103  0.00  0.00    +0.000 OA
ATOM     16  C   UNL     1       7.209   4.737  17.250  0.00  0.00    +0.000 C 
BRANCH  16  17
ATOM     17  O   UNL     1       7.449   4.640  15.925  0.00  0.00    +0.000 OA
ATOM     18  H   UNL     1       6.680   4.382  15.385  0.00  0.00    +0.000 HD
ENDBRANCH  16  17
ENDBRANCH   9  16
ENDBRANCH   7  12
ENDBRANCH   1   8
BRANCH   4  19
ATOM     19  C   UNL     1      -2.860  11.594  18.956  0.00  0.00    +0.000 C 
ATOM     20  C   UNL     1      -3.919  11.449  18.143  0.00  0.00    +0.000 C 
BRANCH  20  21
ATOM     21  C   UNL     1      -5.174  12.203  18.280  0.00  0.00    +0.000 A 
ATOM     22  C   UNL     1      -5.539  12.826  19.476  0.00  0.00    +0.000 A 
ATOM     23  C   UNL     1      -6.697  13.585  19.506  0.00  0.00    +0.000 A 
ATOM     24  N   UNL     1      -7.502  13.769  18.441  0.00  0.00    +0.000 NA
ATOM     25  C   UNL     1      -7.128  13.169  17.292  0.00  0.00    +0.000 A 
ATOM     26  C   UNL     1      -5.987  12.391  17.162  0.00  0.00    +0.000 A 
ENDBRANCH  20  21
ENDBRANCH   4  19
TORSDOF 6
ENDMDL
MODEL 9
REMARK VINA RESULT:      -7.6      0.267      1.356
REMARK  Name = 
REMARK  6 active torsions:
REMARK  status: ('A' for Active; 'I' for Inactive)
REMARK    1  A    between atoms: C_2  and  O_3
REMARK    2  A    between atoms: C_2  and  C_4
REMARK    3  A    between atoms: C_7  and  C_8
REMARK    4  A    between atoms: C_9  and  C_10
REMARK    5  A    between atoms: C_13  and  C_14
REMARK    6  A    between atoms: C_15  and  C_16
REMARK                            x       y       z     vdW  Elec       q    Type
REMARK                         _______ _______ _______ _____ _____    ______ ____
ROOT
ATOM      1  C   UNL     1       1.423   8.930  19.103  0.00  0.00    +0.000 A 
ATOM      2  C   UNL     1       1.444   8.531  20.444  0.00  0.00    +0.000 A 
ATOM      3  C   UNL     1       0.669   9.197  21.397  0.00  0.00    +0.000 A 
ATOM      4  C   UNL     1      -0.129  10.289  21.036  0.00  0.00    +0.000 A 
ATOM      5  C   UNL     1      -0.162  10.678  19.694  0.00  0.00    +0.000 A 
ATOM      6  C   UNL     1       0.617  10.015  18.740  0.00  0.00    +0.000 A 
ENDROOT
BRANCH   1   8
ATOM      7  C   UNL     1       2.946   7.085  18.425  0.00  0.00    +0.000 C 
ATOM      8  C   UNL     1       2.275   8.213  18.143  0.00  0.00    +0.000 C 
BRANCH   7  12
ATOM      9  C   UNL     1       5.623   5.045  15.785  0.00  0.00    +0.000 A 
ATOM     10  C   UNL     1       4.806   4.332  16.665  0.00  0.00    +0.000 A 
ATOM     11  C   UNL     1       3.927   5.014  17.510  0.00  0.00    +0.000 A 
ATOM     12  C   UNL     1       3.859   6.415  17.490  0.00  0.00    +0.000 A 
ATOM     13  C   UNL     1       4.639   7.116  16.561  0.00  0.00    +0.000 A 
ATOM     14  C   UNL     1       5.515   6.438  15.709  0.00  0.00    +0.000 A 
BRANCH   9  16
ATOM     15  O   UNL     1       7.705   4.673  14.695  0.00  0.00    +0.000 OA
ATOM     16  C   UNL     1       6.570   4.291  14.930  0.00  0.00    +0.000 C 
BRANCH  16  17
ATOM     17  O   UNL     1       6.037   3.174  14.392  0.00  0.00    +0.000 OA
ATOM     18  H   UNL     1       6.679   2.573  13.970  0.00  0.00    +0.000 HD
ENDBRANCH  16  17
ENDBRANCH   9  16
ENDBRANCH   7  12
ENDBRANCH   1   8
BRANCH   4  19
ATOM     19  C   UNL     1      -0.894  10.973  22.088  0.00  0.00    +0.000 C 
ATOM     20  C   UNL     1      -1.577  12.114  21.903  0.00  0.00    +0.000 C 
BRANCH  20  21
ATOM     21  C   UNL     1      -2.229  12.869  22.983  0.00  0.00    +0.000 A 
ATOM     22  C   UNL     1      -3.433  12.453  23.558  0.00  0.00    +0.000 A 
ATOM     23  C   UNL     1      -3.946  13.173  24.625  0.00  0.00    +0.000 A 
ATOM     24  N   UNL     1      -3.348  14.258  25.155  0.00  0.00    +0.000 NA
ATOM     25  C   UNL     1      -2.181  14.638  24.594  0.00  0.00    +0.000 A 
ATOM     26  C   UNL     1      -1.588  13.983  23.525  0.00  0.00    +0.000 A 
ENDBRANCH  20  21
ENDBRANCH   4  19
TORSDOF 6
ENDMDL
