MODEL 1
REMARK VINA RESULT:      -8.8      0.000      0.000
REMARK  Name = 
REMARK  6 active torsions:
REMARK  status: ('A' for Active; 'I' for Inactive)
REMARK    1  A    between atoms: C_1  and  O_2
REMARK    2  A    between atoms: O_2  and  C_3
REMARK    3  A    between atoms: N_13  and  C_14
REMARK    4  A    between atoms: C_16  and  O_17
REMARK    5  A    between atoms: O_17  and  C_18
REMARK    6  A    between atoms: C_18  and  C_19
REMARK                            x       y       z     vdW  Elec       q    Type
REMARK                         _______ _______ _______ _____ _____    ______ ____
ROOT
ATOM      1  C   UNL     1       4.208   5.533  18.800  0.00  0.00    +0.000 A 
ATOM      2  N   UNL     1       3.596   6.729  18.625  0.00  0.00    +0.000 NA
ATOM      3  C   UNL     1       2.447   6.954  19.275  0.00  0.00    +0.000 A 
ATOM      4  N   UNL     1       1.827   6.070  20.066  0.00  0.00    +0.000 NA
ATOM      5  C   UNL     1       2.399   4.881  20.219  0.00  0.00    +0.000 A 
ATOM      6  C   UNL     1       1.750   3.972  21.050  0.00  0.00    +0.000 A 
ATOM      7  C   UNL     1       2.258   2.701  21.315  0.00  0.00    +0.000 A 
ATOM      8  C   UNL     1       3.428   2.302  20.698  0.00  0.00    +0.000 A 
ATOM      9  C   UNL     1       4.068   3.182  19.822  0.00  0.00    +0.000 A 
ATOM     10  C   UNL     1       3.602   4.513  19.597  0.00  0.00    +0.000 A 
ENDROOT
BRANCH   1  21
ATOM     11  C   UNL     1       6.289   4.190  14.169  0.00  0.00    +0.000 A 
ATOM     12  C   UNL     1       5.164   3.705  14.834  0.00  0.00    +0.000 A 
ATOM     13  C   UNL     1       4.882   4.104  16.151  0.00  0.00    +0.000 A 
ATOM     14  C   UNL     1       5.725   4.990  16.835  0.00  0.00    +0.000 A 
ATOM     15  C   UNL     1       6.840   5.483  16.129  0.00  0.00    +0.000 A 
ATOM     16  C   UNL     1       7.113   5.108  14.809  0.00  0.00    +0.000 A 
ATOM     17  N   UNL     1       7.709   6.396  16.730  0.00  0.00    +0.000 N 
ATOM     18  C   UNL     1       7.636   6.698  18.053  0.00  0.00    +0.000 C 
ATOM     19  O   UNL     1       8.428   7.500  18.554  0.00  0.00    +0.000 OA
ATOM     20  C   UNL     1       6.663   5.894  18.889  0.00  0.00    +0.000 C 
ATOM     21  N   UNL     1       5.477   5.372  18.177  0.00  0.00    +0.000 N 
ATOM     22  H   UNL     1       8.436   6.852  16.200  0.00  0.00    +0.000 HD
BRANCH  11  24
ATOM     23  C   UNL     1       5.305   3.294  12.218  0.00  0.00    +0.000 C 
ATOM     24  O   UNL     1       6.479   3.729  12.895  0.00  0.00    +0.000 OA
ENDBRANCH  11  24
ENDBRANCH   1  21
BRANCH   3  25
ATOM     25  O   UNL     1       1.881   8.211  19.107  0.00  0.00    +0.000 OA
BRANCH  25  26
ATOM     26  C   UNL     1       1.324   8.688  20.337  0.00  0.00    +0.000 C 
BRANCH  26  27
ATOM     27  C   UNL     1       0.692  10.051  20.214  0.00  0.00    +0.000 C 
ATOM     28  C   UNL     1      -0.678  10.227  19.614  0.00  0.00    +0.000 C 
ATOM     29  C   UNL     1      -0.448  10.550  21.066  0.00  0.00    +0.000 C 
ENDBRANCH  26  27
ENDBRANCH  25  26
ENDBRANCH   3  25
TORSDOF 5
ENDMDL
MODEL 2
REMARK VINA RESULT:      -8.8      0.883      1.086
REMARK  Name = 
REMARK  6 active torsions:
REMARK  status: ('A' for Active; 'I' for Inactive)
REMARK    1  A    between atoms: C_1  and  O_2
REMARK    2  A    between atoms: O_2  and  C_3
REMARK    3  A    between atoms: N_13  and  C_14
REMARK    4  A    between atoms: C_16  and  O_17
REMARK    5  A    between atoms: O_17  and  C_18
REMARK    6  A    between atoms: C_18  and  C_19
REMARK                            x       y       z     vdW  Elec       q    Type
REMARK                         _______ _______ _______ _____ _____    ______ ____
ROOT
ATOM      1  C   UNL     1       4.265   5.425  18.882  0.00  0.00    +0.000 A 
ATOM      2  N   UNL     1       3.614   6.605  18.744  0.00  0.00    +0.000 NA
ATOM      3  C   UNL     1       2.478   6.786  19.429  0.00  0.00    +0.000 A 
ATOM      4  N   UNL     1       1.907   5.872  20.223  0.00  0.00    +0.000 NA
ATOM      5  C   UNL     1       2.517   4.698  20.340  0.00  0.00    +0.000 A 
ATOM      6  C   UNL     1       1.918   3.757  21.173  0.00  0.00    +0.000 A 
ATOM      7  C   UNL     1       2.471   2.498  21.403  0.00  0.00    +0.000 A 
ATOM      8  C   UNL     1       3.634   2.144  20.748  0.00  0.00    +0.000 A 
ATOM      9  C   UNL     1       4.222   3.056  19.869  0.00  0.00    +0.000 A 
ATOM     10  C   UNL     1       3.712   4.376  19.679  0.00  0.00    +0.000 A 
ENDROOT
BRANCH   1  21
ATOM     11  C   UNL     1       6.261   4.097  14.210  0.00  0.00    +0.000 A 
ATOM     12  C   UNL     1       5.182   3.573  14.918  0.00  0.00    +0.000 A 
ATOM     13  C   UNL     1       4.922   3.982  16.237  0.00  0.00    +0.000 A 
ATOM     14  C   UNL     1       5.744   4.918  16.879  0.00  0.00    +0.000 A 
ATOM     15  C   UNL     1       6.813   5.449  16.130  0.00  0.00    +0.000 A 
ATOM     16  C   UNL     1       7.061   5.063  14.808  0.00  0.00    +0.000 A 
ATOM     17  N   UNL     1       7.657   6.411  16.688  0.00  0.00    +0.000 N 
ATOM     18  C   UNL     1       7.611   6.733  18.008  0.00  0.00    +0.000 C 
ATOM     19  O   UNL     1       8.380   7.579  18.470  0.00  0.00    +0.000 OA
ATOM     20  C   UNL     1       6.703   5.900  18.887  0.00  0.00    +0.000 C 
ATOM     21  N   UNL     1       5.520   5.312  18.222  0.00  0.00    +0.000 N 
ATOM     22  H   UNL     1       8.345   6.891  16.128  0.00  0.00    +0.000 HD
BRANCH  11  24
ATOM     23  C   UNL     1       5.236   3.394  12.202  0.00  0.00    +0.000 C 
ATOM     24  O   UNL     1       6.433   3.623  12.938  0.00  0.00    +0.000 OA
ENDBRANCH  11  24
ENDBRANCH   1  21
BRANCH   3  25
ATOM     25  O   UNL     1       1.871   8.028  19.297  0.00  0.00    +0.000 OA
BRANCH  25  26
ATOM     26  C   UNL     1       2.200   8.625  18.037  0.00  0.00    +0.000 C 
BRANCH  26  27
ATOM     27  C   UNL     1       1.554   9.971  17.831  0.00  0.00    +0.000 C 
ATOM     28  C   UNL     1       1.062  10.789  18.995  0.00  0.00    +0.000 C 
ATOM     29  C   UNL     1       2.203  11.294  18.155  0.00  0.00    +0.000 C 
ENDBRANCH  26  27
ENDBRANCH  25  26
ENDBRANCH   3  25
TORSDOF 5
ENDMDL
MODEL 3
REMARK VINA RESULT:      -8.7      0.916      1.012
REMARK  Name = 
REMARK  6 active torsions:
REMARK  status: ('A' for Active; 'I' for Inactive)
REMARK    1  A    between atoms: C_1  and  O_2
REMARK    2  A    between atoms: O_2  and  C_3
REMARK    3  A    between atoms: N_13  and  C_14
REMARK    4  A    between atoms: C_16  and  O_17
REMARK    5  A    between atoms: O_17  and  C_18
REMARK    6  A    between atoms: C_18  and  C_19
REMARK                            x       y       z     vdW  Elec       q    Type
REMARK                         _______ _______ _______ _____ _____    ______ ____
ROOT
ATOM      1  C   UNL     1       4.086   5.290  18.554  0.00  0.00    +0.000 A 
ATOM      2  N   UNL     1       3.636   6.540  18.823  0.00  0.00    +0.000 NA
ATOM      3  C   UNL     1       2.457   6.669  19.444  0.00  0.00    +0.000 A 
ATOM      4  N   UNL     1       1.658   5.653  19.793  0.00  0.00    +0.000 NA
ATOM      5  C   UNL     1       2.072   4.424  19.503  0.00  0.00    +0.000 A 
ATOM      6  C   UNL     1       1.237   3.375  19.878  0.00  0.00    +0.000 A 
ATOM      7  C   UNL     1       1.566   2.038  19.657  0.00  0.00    +0.000 A 
ATOM      8  C   UNL     1       2.743   1.735  19.000  0.00  0.00    +0.000 A 
ATOM      9  C   UNL     1       3.569   2.777  18.572  0.00  0.00    +0.000 A 
ATOM     10  C   UNL     1       3.285   4.146  18.856  0.00  0.00    +0.000 A 
ENDROOT
BRANCH   1  21
ATOM     11  C   UNL     1       6.431   4.310  13.958  0.00  0.00    +0.000 A 
ATOM     12  C   UNL     1       5.282   3.763  14.526  0.00  0.00    +0.000 A 
ATOM     13  C   UNL     1       4.924   4.064  15.850  0.00  0.00    +0.000 A 
ATOM     14  C   UNL     1       5.713   4.911  16.640  0.00  0.00    +0.000 A 
ATOM     15  C   UNL     1       6.855   5.468  16.032  0.00  0.00    +0.000 A 
ATOM     16  C   UNL     1       7.203   5.192  14.705  0.00  0.00    +0.000 A 
ATOM     17  N   UNL     1       7.675   6.348  16.741  0.00  0.00    +0.000 N 
ATOM     18  C   UNL     1       7.527   6.554  18.076  0.00  0.00    +0.000 C 
ATOM     19  O   UNL     1       8.278   7.329  18.674  0.00  0.00    +0.000 OA
ATOM     20  C   UNL     1       6.527   5.678  18.800  0.00  0.00    +0.000 C 
ATOM     21  N   UNL     1       5.388   5.193  17.990  0.00  0.00    +0.000 N 
ATOM     22  H   UNL     1       8.421   6.851  16.284  0.00  0.00    +0.000 HD
BRANCH  11  24
ATOM     23  C   UNL     1       5.718   3.112  12.052  0.00  0.00    +0.000 C 
ATOM     24  O   UNL     1       6.696   3.944  12.667  0.00  0.00    +0.000 OA
ENDBRANCH  11  24
ENDBRANCH   1  21
BRANCH   3  25
ATOM     25  O   UNL     1       2.059   7.965  19.745  0.00  0.00    +0.000 OA
BRANCH  25  26
ATOM     26  C   UNL     1       1.527   8.039  21.073  0.00  0.00    +0.000 C 
BRANCH  26  27
ATOM     27  C   UNL     1       0.260   8.851  21.161  0.00  0.00    +0.000 C 
ATOM     28  C   UNL     1      -0.343   9.218  22.490  0.00  0.00    +0.000 C 
ATOM     29  C   UNL     1       0.194  10.296  21.588  0.00  0.00    +0.000 C 
ENDBRANCH  26  27
ENDBRANCH  25  26
ENDBRANCH   3  25
TORSDOF 5
ENDMDL
MODEL 4
REMARK VINA RESULT:      -8.3      2.148      6.805
REMARK  Name = 
REMARK  6 active torsions:
REMARK  status: ('A' for Active; 'I' for Inactive)
REMARK    1  A    between atoms: C_1  and  O_2
REMARK    2  A    between atoms: O_2  and  C_3
REMARK    3  A    between atoms: N_13  and  C_14
REMARK    4  A    between atoms: C_16  and  O_17
REMARK    5  A    between atoms: O_17  and  C_18
REMARK    6  A    between atoms: C_18  and  C_19
REMARK                            x       y       z     vdW  Elec       q    Type
REMARK                         _______ _______ _______ _____ _____    ______ ____
ROOT
ATOM      1  C   UNL     1       5.302   5.983  17.478  0.00  0.00    +0.000 A 
ATOM      2  N   UNL     1       6.221   6.748  18.116  0.00  0.00    +0.000 NA
ATOM      3  C   UNL     1       7.409   6.933  17.528  0.00  0.00    +0.000 A 
ATOM      4  N   UNL     1       7.783   6.388  16.365  0.00  0.00    +0.000 NA
ATOM      5  C   UNL     1       6.904   5.607  15.746  0.00  0.00    +0.000 A 
ATOM      6  C   UNL     1       7.301   5.051  14.532  0.00  0.00    +0.000 A 
ATOM      7  C   UNL     1       6.464   4.237  13.771  0.00  0.00    +0.000 A 
ATOM      8  C   UNL     1       5.207   3.927  14.252  0.00  0.00    +0.000 A 
ATOM      9  C   UNL     1       4.810   4.434  15.491  0.00  0.00    +0.000 A 
ATOM     10  C   UNL     1       5.624   5.330  16.249  0.00  0.00    +0.000 A 
ENDROOT
BRANCH   1  21
ATOM     11  C   UNL     1       2.711   3.157  21.068  0.00  0.00    +0.000 A 
ATOM     12  C   UNL     1       3.667   2.775  20.128  0.00  0.00    +0.000 A 
ATOM     13  C   UNL     1       4.114   3.680  19.151  0.00  0.00    +0.000 A 
ATOM     14  C   UNL     1       3.607   4.985  19.086  0.00  0.00    +0.000 A 
ATOM     15  C   UNL     1       2.661   5.351  20.064  0.00  0.00    +0.000 A 
ATOM     16  C   UNL     1       2.230   4.461  21.055  0.00  0.00    +0.000 A 
ATOM     17  N   UNL     1       2.133   6.643  20.087  0.00  0.00    +0.000 N 
ATOM     18  C   UNL     1       2.352   7.530  19.081  0.00  0.00    +0.000 C 
ATOM     19  O   UNL     1       1.860   8.661  19.128  0.00  0.00    +0.000 OA
ATOM     20  C   UNL     1       3.074   7.014  17.855  0.00  0.00    +0.000 C 
ATOM     21  N   UNL     1       4.017   5.898  18.083  0.00  0.00    +0.000 N 
ATOM     22  H   UNL     1       1.554   6.957  20.851  0.00  0.00    +0.000 HD
BRANCH  11  24
ATOM     23  C   UNL     1       0.987   2.277  22.420  0.00  0.00    +0.000 C 
ATOM     24  O   UNL     1       2.335   2.198  21.968  0.00  0.00    +0.000 OA
ENDBRANCH  11  24
ENDBRANCH   1  21
BRANCH   3  25
ATOM     25  O   UNL     1       8.301   7.765  18.192  0.00  0.00    +0.000 OA
BRANCH  25  26
ATOM     26  C   UNL     1       8.006   9.142  17.929  0.00  0.00    +0.000 C 
BRANCH  26  27
ATOM     27  C   UNL     1       9.166  10.062  18.210  0.00  0.00    +0.000 C 
ATOM     28  C   UNL     1       8.999  11.558  18.197  0.00  0.00    +0.000 C 
ATOM     29  C   UNL     1       9.347  10.855  19.480  0.00  0.00    +0.000 C 
ENDBRANCH  26  27
ENDBRANCH  25  26
ENDBRANCH   3  25
TORSDOF 5
ENDMDL
MODEL 5
REMARK VINA RESULT:      -8.0      1.037      1.065
REMARK  Name = 
REMARK  6 active torsions:
REMARK  status: ('A' for Active; 'I' for Inactive)
REMARK    1  A    between atoms: C_1  and  O_2
REMARK    2  A    between atoms: O_2  and  C_3
REMARK    3  A    between atoms: N_13  and  C_14
REMARK    4  A    between atoms: C_16  and  O_17
REMARK    5  A    between atoms: O_17  and  C_18
REMARK    6  A    between atoms: C_18  and  C_19
REMARK                            x       y       z     vdW  Elec       q    Type
REMARK                         _______ _______ _______ _____ _____    ______ ____
ROOT
ATOM      1  C   UNL     1       3.940   5.286  18.542  0.00  0.00    +0.000 A 
ATOM      2  N   UNL     1       3.667   6.581  18.254  0.00  0.00    +0.000 NA
ATOM      3  C   UNL     1       2.551   7.121  18.760  0.00  0.00    +0.000 A 
ATOM      4  N   UNL     1       1.652   6.467  19.506  0.00  0.00    +0.000 NA
ATOM      5  C   UNL     1       1.891   5.186  19.767  0.00  0.00    +0.000 A 
ATOM      6  C   UNL     1       0.954   4.518  20.551  0.00  0.00    +0.000 A 
ATOM      7  C   UNL     1       1.100   3.182  20.919  0.00  0.00    +0.000 A 
ATOM      8  C   UNL     1       2.190   2.471  20.456  0.00  0.00    +0.000 A 
ATOM      9  C   UNL     1       3.115   3.111  19.627  0.00  0.00    +0.000 A 
ATOM     10  C   UNL     1       3.022   4.498  19.301  0.00  0.00    +0.000 A 
ENDROOT
BRANCH   1  21
ATOM     11  C   UNL     1       6.472   4.315  14.044  0.00  0.00    +0.000 A 
ATOM     12  C   UNL     1       5.125   4.178  14.377  0.00  0.00    +0.000 A 
ATOM     13  C   UNL     1       4.692   4.347  15.702  0.00  0.00    +0.000 A 
ATOM     14  C   UNL     1       5.600   4.647  16.727  0.00  0.00    +0.000 A 
ATOM     15  C   UNL     1       6.950   4.804  16.358  0.00  0.00    +0.000 A 
ATOM     16  C   UNL     1       7.383   4.661  15.035  0.00  0.00    +0.000 A 
ATOM     17  N   UNL     1       7.910   5.136  17.316  0.00  0.00    +0.000 N 
ATOM     18  C   UNL     1       7.633   5.134  18.646  0.00  0.00    +0.000 C 
ATOM     19  O   UNL     1       8.509   5.421  19.466  0.00  0.00    +0.000 OA
ATOM     20  C   UNL     1       6.274   4.614  19.064  0.00  0.00    +0.000 C 
ATOM     21  N   UNL     1       5.186   4.781  18.076  0.00  0.00    +0.000 N 
ATOM     22  H   UNL     1       8.854   5.374  17.049  0.00  0.00    +0.000 HD
BRANCH  11  24
ATOM     23  C   UNL     1       6.001   3.149  12.046  0.00  0.00    +0.000 C 
ATOM     24  O   UNL     1       6.790   4.118  12.729  0.00  0.00    +0.000 OA
ENDBRANCH  11  24
ENDBRANCH   1  21
BRANCH   3  25
ATOM     25  O   UNL     1       2.336   8.464  18.481  0.00  0.00    +0.000 OA
BRANCH  25  26
ATOM     26  C   UNL     1       1.289   8.994  19.303  0.00  0.00    +0.000 C 
BRANCH  26  27
ATOM     27  C   UNL     1       0.449  10.030  18.599  0.00  0.00    +0.000 C 
ATOM     28  C   UNL     1      -0.984  10.270  18.990  0.00  0.00    +0.000 C 
ATOM     29  C   UNL     1       0.039  11.353  19.195  0.00  0.00    +0.000 C 
ENDBRANCH  26  27
ENDBRANCH  25  26
ENDBRANCH   3  25
TORSDOF 5
ENDMDL
MODEL 6
REMARK VINA RESULT:      -7.6      1.572      3.995
REMARK  Name = 
REMARK  6 active torsions:
REMARK  status: ('A' for Active; 'I' for Inactive)
REMARK    1  A    between atoms: C_1  and  O_2
REMARK    2  A    between atoms: O_2  and  C_3
REMARK    3  A    between atoms: N_13  and  C_14
REMARK    4  A    between atoms: C_16  and  O_17
REMARK    5  A    between atoms: O_17  and  C_18
REMARK    6  A    between atoms: C_18  and  C_19
REMARK                            x       y       z     vdW  Elec       q    Type
REMARK                         _______ _______ _______ _____ _____    ______ ____
ROOT
ATOM      1  C   UNL     1       4.245   5.684  18.924  0.00  0.00    +0.000 A 
ATOM      2  N   UNL     1       3.861   4.739  19.816  0.00  0.00    +0.000 NA
ATOM      3  C   UNL     1       2.648   4.848  20.372  0.00  0.00    +0.000 A 
ATOM      4  N   UNL     1       1.785   5.845  20.143  0.00  0.00    +0.000 NA
ATOM      5  C   UNL     1       2.163   6.797  19.296  0.00  0.00    +0.000 A 
ATOM      6  C   UNL     1       1.255   7.825  19.059  0.00  0.00    +0.000 A 
ATOM      7  C   UNL     1       1.518   8.869  18.172  0.00  0.00    +0.000 A 
ATOM      8  C   UNL     1       2.742   8.917  17.534  0.00  0.00    +0.000 A 
ATOM      9  C   UNL     1       3.685   7.921  17.797  0.00  0.00    +0.000 A 
ATOM     10  C   UNL     1       3.406   6.806  18.643  0.00  0.00    +0.000 A 
ENDROOT
BRANCH   1  21
ATOM     11  C   UNL     1       6.183   4.133  14.296  0.00  0.00    +0.000 A 
ATOM     12  C   UNL     1       5.066   3.695  15.005  0.00  0.00    +0.000 A 
ATOM     13  C   UNL     1       4.825   4.147  16.313  0.00  0.00    +0.000 A 
ATOM     14  C   UNL     1       5.701   5.040  16.944  0.00  0.00    +0.000 A 
ATOM     15  C   UNL     1       6.808   5.485  16.194  0.00  0.00    +0.000 A 
ATOM     16  C   UNL     1       7.040   5.057  14.882  0.00  0.00    +0.000 A 
ATOM     17  N   UNL     1       7.709   6.401  16.740  0.00  0.00    +0.000 N 
ATOM     18  C   UNL     1       7.675   6.752  18.052  0.00  0.00    +0.000 C 
ATOM     19  O   UNL     1       8.495   7.555  18.504  0.00  0.00    +0.000 OA
ATOM     20  C   UNL     1       6.708   5.998  18.940  0.00  0.00    +0.000 C 
ATOM     21  N   UNL     1       5.494   5.475  18.277  0.00  0.00    +0.000 N 
ATOM     22  H   UNL     1       8.431   6.823  16.176  0.00  0.00    +0.000 HD
BRANCH  11  24
ATOM     23  C   UNL     1       5.124   3.395  12.318  0.00  0.00    +0.000 C 
ATOM     24  O   UNL     1       6.333   3.623  13.035  0.00  0.00    +0.000 OA
ENDBRANCH  11  24
ENDBRANCH   1  21
BRANCH   3  25
ATOM     25  O   UNL     1       2.277   3.831  21.242  0.00  0.00    +0.000 OA
BRANCH  25  26
ATOM     26  C   UNL     1       2.770   2.566  20.788  0.00  0.00    +0.000 C 
BRANCH  26  27
ATOM     27  C   UNL     1       1.869   1.904  19.776  0.00  0.00    +0.000 C 
ATOM     28  C   UNL     1       0.813   2.685  19.042  0.00  0.00    +0.000 C 
ATOM     29  C   UNL     1       1.969   2.092  18.284  0.00  0.00    +0.000 C 
ENDBRANCH  26  27
ENDBRANCH  25  26
ENDBRANCH   3  25
TORSDOF 5
ENDMDL
MODEL 7
REMARK VINA RESULT:      -7.1      2.359      5.209
REMARK  Name = 
REMARK  6 active torsions:
REMARK  status: ('A' for Active; 'I' for Inactive)
REMARK    1  A    between atoms: C_1  and  O_2
REMARK    2  A    between atoms: O_2  and  C_3
REMARK    3  A    between atoms: N_13  and  C_14
REMARK    4  A    between atoms: C_16  and  O_17
REMARK    5  A    between atoms: O_17  and  C_18
REMARK    6  A    between atoms: C_18  and  C_19
REMARK                            x       y       z     vdW  Elec       q    Type
REMARK                         _______ _______ _______ _____ _____    ______ ____
ROOT
ATOM      1  C   UNL     1       5.131   4.280  19.142  0.00  0.00    +0.000 A 
ATOM      2  N   UNL     1       5.225   3.060  19.723  0.00  0.00    +0.000 NA
ATOM      3  C   UNL     1       4.186   2.619  20.443  0.00  0.00    +0.000 A 
ATOM      4  N   UNL     1       3.061   3.309  20.668  0.00  0.00    +0.000 NA
ATOM      5  C   UNL     1       2.970   4.521  20.132  0.00  0.00    +0.000 A 
ATOM      6  C   UNL     1       1.793   5.227  20.367  0.00  0.00    +0.000 A 
ATOM      7  C   UNL     1       1.561   6.496  19.839  0.00  0.00    +0.000 A 
ATOM      8  C   UNL     1       2.550   7.105  19.091  0.00  0.00    +0.000 A 
ATOM      9  C   UNL     1       3.758   6.433  18.888  0.00  0.00    +0.000 A 
ATOM     10  C   UNL     1       3.984   5.104  19.356  0.00  0.00    +0.000 A 
ENDROOT
BRANCH   1  21
ATOM     11  C   UNL     1       6.464   4.338  14.062  0.00  0.00    +0.000 A 
ATOM     12  C   UNL     1       5.741   3.402  14.801  0.00  0.00    +0.000 A 
ATOM     13  C   UNL     1       5.641   3.515  16.197  0.00  0.00    +0.000 A 
ATOM     14  C   UNL     1       6.269   4.561  16.887  0.00  0.00    +0.000 A 
ATOM     15  C   UNL     1       6.971   5.505  16.112  0.00  0.00    +0.000 A 
ATOM     16  C   UNL     1       7.054   5.411  14.718  0.00  0.00    +0.000 A 
ATOM     17  N   UNL     1       7.596   6.594  16.721  0.00  0.00    +0.000 N 
ATOM     18  C   UNL     1       7.721   6.692  18.071  0.00  0.00    +0.000 C 
ATOM     19  O   UNL     1       8.291   7.663  18.576  0.00  0.00    +0.000 OA
ATOM     20  C   UNL     1       7.282   5.497  18.890  0.00  0.00    +0.000 C 
ATOM     21  N   UNL     1       6.210   4.667  18.299  0.00  0.00    +0.000 N 
ATOM     22  H   UNL     1       7.993   7.342  16.174  0.00  0.00    +0.000 HD
BRANCH  11  24
ATOM     23  C   UNL     1       5.671   3.090  12.221  0.00  0.00    +0.000 C 
ATOM     24  O   UNL     1       6.511   4.130  12.711  0.00  0.00    +0.000 OA
ENDBRANCH  11  24
ENDBRANCH   1  21
BRANCH   3  25
ATOM     25  O   UNL     1       4.305   1.344  20.978  0.00  0.00    +0.000 OA
BRANCH  25  26
ATOM     26  C   UNL     1       5.678   0.939  21.031  0.00  0.00    +0.000 C 
BRANCH  26  27
ATOM     27  C   UNL     1       5.980   0.009  22.178  0.00  0.00    +0.000 C 
ATOM     28  C   UNL     1       6.077  -1.479  21.973  0.00  0.00    +0.000 C 
ATOM     29  C   UNL     1       7.295  -0.698  22.388  0.00  0.00    +0.000 C 
ENDBRANCH  26  27
ENDBRANCH  25  26
ENDBRANCH   3  25
TORSDOF 5
ENDMDL
MODEL 8
REMARK VINA RESULT:      -6.9      2.073      7.463
REMARK  Name = 
REMARK  6 active torsions:
REMARK  status: ('A' for Active; 'I' for Inactive)
REMARK    1  A    between atoms: C_1  and  O_2
REMARK    2  A    between atoms: O_2  and  C_3
REMARK    3  A    between atoms: N_13  and  C_14
REMARK    4  A    between atoms: C_16  and  O_17
REMARK    5  A    between atoms: O_17  and  C_18
REMARK    6  A    between atoms: C_18  and  C_19
REMARK                            x       y       z     vdW  Elec       q    Type
REMARK                         _______ _______ _______ _____ _____    ______ ____
ROOT
ATOM      1  C   UNL     1       2.839   6.489  19.349  0.00  0.00    +0.000 A 
ATOM      2  N   UNL     1       4.143   6.678  19.033  0.00  0.00    +0.000 NA
ATOM      3  C   UNL     1       4.953   5.612  19.022  0.00  0.00    +0.000 A 
ATOM      4  N   UNL     1       4.584   4.364  19.338  0.00  0.00    +0.000 NA
ATOM      5  C   UNL     1       3.316   4.172  19.683  0.00  0.00    +0.000 A 
ATOM      6  C   UNL     1       2.942   2.869  20.002  0.00  0.00    +0.000 A 
ATOM      7  C   UNL     1       1.637   2.528  20.354  0.00  0.00    +0.000 A 
ATOM      8  C   UNL     1       0.681   3.521  20.437  0.00  0.00    +0.000 A 
ATOM      9  C   UNL     1       1.049   4.842  20.170  0.00  0.00    +0.000 A 
ATOM     10  C   UNL     1       2.362   5.199  19.735  0.00  0.00    +0.000 A 
ENDROOT
BRANCH   1  21
ATOM     11  C   UNL     1       0.021   9.710  22.392  0.00  0.00    +0.000 A 
ATOM     12  C   UNL     1       0.250   8.338  22.489  0.00  0.00    +0.000 A 
ATOM     13  C   UNL     1       0.913   7.648  21.461  0.00  0.00    +0.000 A 
ATOM     14  C   UNL     1       1.354   8.313  20.309  0.00  0.00    +0.000 A 
ATOM     15  C   UNL     1       1.130   9.703  20.250  0.00  0.00    +0.000 A 
ATOM     16  C   UNL     1       0.491  10.400  21.282  0.00  0.00    +0.000 A 
ATOM     17  N   UNL     1       1.569  10.443  19.150  0.00  0.00    +0.000 N 
ATOM     18  C   UNL     1       2.047   9.849  18.025  0.00  0.00    +0.000 C 
ATOM     19  O   UNL     1       2.414  10.533  17.066  0.00  0.00    +0.000 OA
ATOM     20  C   UNL     1       1.951   8.340  17.951  0.00  0.00    +0.000 C 
ATOM     21  N   UNL     1       1.989   7.625  19.245  0.00  0.00    +0.000 N 
ATOM     22  H   UNL     1       1.530  11.451  19.149  0.00  0.00    +0.000 HD
BRANCH  11  24
ATOM     23  C   UNL     1      -1.493  11.377  23.104  0.00  0.00    +0.000 C 
ATOM     24  O   UNL     1      -0.645  10.284  23.441  0.00  0.00    +0.000 OA
ENDBRANCH  11  24
ENDBRANCH   1  21
BRANCH   3  25
ATOM     25  O   UNL     1       6.269   5.844  18.643  0.00  0.00    +0.000 OA
BRANCH  25  26
ATOM     26  C   UNL     1       6.705   4.866  17.692  0.00  0.00    +0.000 C 
BRANCH  26  27
ATOM     27  C   UNL     1       6.781   5.399  16.284  0.00  0.00    +0.000 C 
ATOM     28  C   UNL     1       6.750   4.476  15.096  0.00  0.00    +0.000 C 
ATOM     29  C   UNL     1       5.623   5.447  15.320  0.00  0.00    +0.000 C 
ENDBRANCH  26  27
ENDBRANCH  25  26
ENDBRANCH   3  25
TORSDOF 5
ENDMDL
MODEL 9
REMARK VINA RESULT:      -6.8      2.005      3.990
REMARK  Name = 
REMARK  6 active torsions:
REMARK  status: ('A' for Active; 'I' for Inactive)
REMARK    1  A    between atoms: C_1  and  O_2
REMARK    2  A    between atoms: O_2  and  C_3
REMARK    3  A    between atoms: N_13  and  C_14
REMARK    4  A    between atoms: C_16  and  O_17
REMARK    5  A    between atoms: O_17  and  C_18
REMARK    6  A    between atoms: C_18  and  C_19
REMARK                            x       y       z     vdW  Elec       q    Type
REMARK                         _______ _______ _______ _____ _____    ______ ____
ROOT
ATOM      1  C   UNL     1       4.095   5.108  17.723  0.00  0.00    +0.000 A 
ATOM      2  N   UNL     1       3.549   3.912  18.052  0.00  0.00    +0.000 NA
ATOM      3  C   UNL     1       2.258   3.881  18.404  0.00  0.00    +0.000 A 
ATOM      4  N   UNL     1       1.461   4.953  18.495  0.00  0.00    +0.000 NA
ATOM      5  C   UNL     1       1.993   6.136  18.208  0.00  0.00    +0.000 A 
ATOM      6  C   UNL     1       1.153   7.242  18.298  0.00  0.00    +0.000 A 
ATOM      7  C   UNL     1       1.580   8.535  17.999  0.00  0.00    +0.000 A 
ATOM      8  C   UNL     1       2.898   8.742  17.642  0.00  0.00    +0.000 A 
ATOM      9  C   UNL     1       3.769   7.651  17.595  0.00  0.00    +0.000 A 
ATOM     10  C   UNL     1       3.331   6.311  17.825  0.00  0.00    +0.000 A 
ENDROOT
BRANCH   1  21
ATOM     11  C   UNL     1       6.800   4.374  13.282  0.00  0.00    +0.000 A 
ATOM     12  C   UNL     1       5.640   3.760  13.751  0.00  0.00    +0.000 A 
ATOM     13  C   UNL     1       5.177   4.003  15.054  0.00  0.00    +0.000 A 
ATOM     14  C   UNL     1       5.869   4.859  15.921  0.00  0.00    +0.000 A 
ATOM     15  C   UNL     1       7.024   5.485  15.412  0.00  0.00    +0.000 A 
ATOM     16  C   UNL     1       7.477   5.265  14.106  0.00  0.00    +0.000 A 
ATOM     17  N   UNL     1       7.751   6.378  16.202  0.00  0.00    +0.000 N 
ATOM     18  C   UNL     1       7.500   6.536  17.529  0.00  0.00    +0.000 C 
ATOM     19  O   UNL     1       8.170   7.324  18.200  0.00  0.00    +0.000 OA
ATOM     20  C   UNL     1       6.492   5.595  18.154  0.00  0.00    +0.000 C 
ATOM     21  N   UNL     1       5.437   5.085  17.252  0.00  0.00    +0.000 N 
ATOM     22  H   UNL     1       8.503   6.927  15.814  0.00  0.00    +0.000 HD
BRANCH  11  24
ATOM     23  C   UNL     1       6.782   2.768  11.551  0.00  0.00    +0.000 C 
ATOM     24  O   UNL     1       7.173   4.060  12.004  0.00  0.00    +0.000 OA
ENDBRANCH  11  24
ENDBRANCH   1  21
BRANCH   3  25
ATOM     25  O   UNL     1       1.727   2.629  18.684  0.00  0.00    +0.000 OA
BRANCH  25  26
ATOM     26  C   UNL     1       0.786   2.702  19.761  0.00  0.00    +0.000 C 
BRANCH  26  27
ATOM     27  C   UNL     1       1.424   2.545  21.118  0.00  0.00    +0.000 C 
ATOM     28  C   UNL     1       2.918   2.448  21.274  0.00  0.00    +0.000 C 
ATOM     29  C   UNL     1       2.180   3.629  21.843  0.00  0.00    +0.000 C 
ENDBRANCH  26  27
ENDBRANCH  25  26
ENDBRANCH   3  25
TORSDOF 5
ENDMDL
