MODEL 1
REMARK VINA RESULT:      -8.0      0.000      0.000
REMARK  Name = 
REMARK  3 active torsions:
REMARK  status: ('A' for Active; 'I' for Inactive)
REMARK    1  A    between atoms: C_2  and  C_3
REMARK    2  A    between atoms: C_8  and  O_9
REMARK    3  A    between atoms: O_9  and  C_10
REMARK                            x       y       z     vdW  Elec       q    Type
REMARK                         _______ _______ _______ _____ _____    ______ ____
ROOT
ATOM      1  C   UNL     1       3.320   3.393  19.579  0.00  0.00    +0.000 A 
ATOM      2  N   UNL     1       3.612   2.405  20.477  0.00  0.00    +0.000 NA
ATOM      3  C   UNL     1       2.859   2.325  21.593  0.00  0.00    +0.000 A 
ATOM      4  C   UNL     1       1.874   3.237  21.909  0.00  0.00    +0.000 A 
ATOM      5  C   UNL     1       1.651   4.299  21.036  0.00  0.00    +0.000 A 
ATOM      6  C   UNL     1       2.345   4.372  19.822  0.00  0.00    +0.000 A 
ENDROOT
BRANCH   1   8
ATOM      7  O   UNL     1       3.852   2.435  17.511  0.00  0.00    +0.000 OA
ATOM      8  C   UNL     1       4.105   3.357  18.287  0.00  0.00    +0.000 C 
ATOM      9  N   UNL     1       5.102   4.348  18.047  0.00  0.00    +0.000 N 
ATOM     10  C   UNL     1       5.531   5.294  19.088  0.00  0.00    +0.000 C 
ATOM     11  C   UNL     1       7.033   5.475  19.140  0.00  0.00    +0.000 C 
ATOM     12  C   UNL     1       7.546   5.995  17.819  0.00  0.00    +0.000 C 
ATOM     13  C   UNL     1       6.916   5.296  16.644  0.00  0.00    +0.000 A 
ATOM     14  C   UNL     1       7.534   5.479  15.392  0.00  0.00    +0.000 A 
ATOM     15  C   UNL     1       7.004   4.904  14.244  0.00  0.00    +0.000 A 
ATOM     16  C   UNL     1       5.847   4.149  14.339  0.00  0.00    +0.000 A 
ATOM     17  C   UNL     1       5.221   3.962  15.580  0.00  0.00    +0.000 A 
ATOM     18  C   UNL     1       5.742   4.516  16.759  0.00  0.00    +0.000 A 
ENDBRANCH   1   8
BRANCH   6  19
ATOM     19  O   UNL     1       2.137   5.370  18.895  0.00  0.00    +0.000 OA
BRANCH  19  20
ATOM     20  C   UNL     1       1.923   6.672  19.295  0.00  0.00    +0.000 A 
ATOM     21  C   UNL     1       1.172   6.994  20.433  0.00  0.00    +0.000 A 
ATOM     22  C   UNL     1       0.991   8.329  20.792  0.00  0.00    +0.000 A 
ATOM     23 CL   UNL     1       0.143   8.710  22.240  0.00  0.00    +0.000 Cl
ATOM     24  C   UNL     1       1.500   9.355  19.999  0.00  0.00    +0.000 A 
ATOM     25  C   UNL     1       2.198   9.044  18.832  0.00  0.00    +0.000 A 
ATOM     26  C   UNL     1       2.410   7.706  18.480  0.00  0.00    +0.000 A 
ATOM     27 CL   UNL     1       3.284   7.377  17.029  0.00  0.00    +0.000 Cl
ENDBRANCH  19  20
ENDBRANCH   6  19
TORSDOF 3
ENDMDL
MODEL 2
REMARK VINA RESULT:      -7.8      4.693      7.824
REMARK  Name = 
REMARK  3 active torsions:
REMARK  status: ('A' for Active; 'I' for Inactive)
REMARK    1  A    between atoms: C_2  and  C_3
REMARK    2  A    between atoms: C_8  and  O_9
REMARK    3  A    between atoms: O_9  and  C_10
REMARK                            x       y       z     vdW  Elec       q    Type
REMARK                         _______ _______ _______ _____ _____    ______ ____
ROOT
ATOM      1  C   UNL     1       1.021  11.704  18.701  0.00  0.00    +0.000 A 
ATOM      2  N   UNL     1       2.057  12.587  18.586  0.00  0.00    +0.000 NA
ATOM      3  C   UNL     1       1.831  13.872  18.923  0.00  0.00    +0.000 A 
ATOM      4  C   UNL     1       0.591  14.352  19.294  0.00  0.00    +0.000 A 
ATOM      5  C   UNL     1      -0.482  13.464  19.312  0.00  0.00    +0.000 A 
ATOM      6  C   UNL     1      -0.276  12.102  19.057  0.00  0.00    +0.000 A 
ENDROOT
BRANCH   1   8
ATOM      7  O   UNL     1       1.572   9.940  17.267  0.00  0.00    +0.000 OA
ATOM      8  C   UNL     1       1.361  10.254  18.438  0.00  0.00    +0.000 C 
ATOM      9  N   UNL     1       1.388   9.333  19.526  0.00  0.00    +0.000 N 
ATOM     10  C   UNL     1       0.911   9.696  20.869  0.00  0.00    +0.000 C 
ATOM     11  C   UNL     1       0.061   8.618  21.507  0.00  0.00    +0.000 C 
ATOM     12  C   UNL     1       0.848   7.337  21.638  0.00  0.00    +0.000 C 
ATOM     13  C   UNL     1       1.648   7.026  20.401  0.00  0.00    +0.000 A 
ATOM     14  C   UNL     1       2.167   5.721  20.293  0.00  0.00    +0.000 A 
ATOM     15  C   UNL     1       2.949   5.352  19.206  0.00  0.00    +0.000 A 
ATOM     16  C   UNL     1       3.224   6.288  18.223  0.00  0.00    +0.000 A 
ATOM     17  C   UNL     1       2.715   7.591  18.321  0.00  0.00    +0.000 A 
ATOM     18  C   UNL     1       1.909   7.988  19.399  0.00  0.00    +0.000 A 
ENDBRANCH   1   8
BRANCH   6  19
ATOM     19  O   UNL     1      -1.287  11.168  19.105  0.00  0.00    +0.000 OA
BRANCH  19  20
ATOM     20  C   UNL     1      -2.284  11.154  18.152  0.00  0.00    +0.000 A 
ATOM     21  C   UNL     1      -2.074  10.670  16.855  0.00  0.00    +0.000 A 
ATOM     22  C   UNL     1      -3.120  10.677  15.933  0.00  0.00    +0.000 A 
ATOM     23 CL   UNL     1      -2.878  10.001  14.370  0.00  0.00    +0.000 Cl
ATOM     24  C   UNL     1      -4.362  11.214  16.268  0.00  0.00    +0.000 A 
ATOM     25  C   UNL     1      -4.560  11.752  17.541  0.00  0.00    +0.000 A 
ATOM     26  C   UNL     1      -3.524  11.722  18.481  0.00  0.00    +0.000 A 
ATOM     27 CL   UNL     1      -3.825  12.396  20.041  0.00  0.00    +0.000 Cl
ENDBRANCH  19  20
ENDBRANCH   6  19
TORSDOF 3
ENDMDL
MODEL 3
REMARK VINA RESULT:      -7.7      6.216     10.444
REMARK  Name = 
REMARK  3 active torsions:
REMARK  status: ('A' for Active; 'I' for Inactive)
REMARK    1  A    between atoms: C_2  and  C_3
REMARK    2  A    between atoms: C_8  and  O_9
REMARK    3  A    between atoms: O_9  and  C_10
REMARK                            x       y       z     vdW  Elec       q    Type
REMARK                         _______ _______ _______ _____ _____    ______ ____
ROOT
ATOM      1  C   UNL     1      -0.641  13.580  20.296  0.00  0.00    +0.000 A 
ATOM      2  N   UNL     1      -0.490  14.775  19.653  0.00  0.00    +0.000 NA
ATOM      3  C   UNL     1       0.763  15.247  19.488  0.00  0.00    +0.000 A 
ATOM      4  C   UNL     1       1.880  14.628  20.008  0.00  0.00    +0.000 A 
ATOM      5  C   UNL     1       1.705  13.462  20.749  0.00  0.00    +0.000 A 
ATOM      6  C   UNL     1       0.434  12.887  20.870  0.00  0.00    +0.000 A 
ENDROOT
BRANCH   1   8
ATOM      7  O   UNL     1      -2.682  13.211  21.381  0.00  0.00    +0.000 OA
ATOM      8  C   UNL     1      -2.051  13.032  20.339  0.00  0.00    +0.000 C 
ATOM      9  N   UNL     1      -2.559  12.322  19.212  0.00  0.00    +0.000 N 
ATOM     10  C   UNL     1      -1.703  11.934  18.081  0.00  0.00    +0.000 C 
ATOM     11  C   UNL     1      -1.952  10.517  17.610  0.00  0.00    +0.000 C 
ATOM     12  C   UNL     1      -3.386  10.354  17.167  0.00  0.00    +0.000 C 
ATOM     13  C   UNL     1      -4.356  11.009  18.114  0.00  0.00    +0.000 A 
ATOM     14  C   UNL     1      -5.713  10.662  17.971  0.00  0.00    +0.000 A 
ATOM     15  C   UNL     1      -6.687  11.243  18.774  0.00  0.00    +0.000 A 
ATOM     16  C   UNL     1      -6.310  12.182  19.719  0.00  0.00    +0.000 A 
ATOM     17  C   UNL     1      -4.962  12.538  19.869  0.00  0.00    +0.000 A 
ATOM     18  C   UNL     1      -3.955  11.956  19.084  0.00  0.00    +0.000 A 
ENDBRANCH   1   8
BRANCH   6  19
ATOM     19  O   UNL     1       0.203  11.711  21.549  0.00  0.00    +0.000 OA
BRANCH  19  20
ATOM     20  C   UNL     1       0.657  10.507  21.053  0.00  0.00    +0.000 A 
ATOM     21  C   UNL     1       1.045  10.344  19.717  0.00  0.00    +0.000 A 
ATOM     22  C   UNL     1       1.500   9.104  19.271  0.00  0.00    +0.000 A 
ATOM     23 CL   UNL     1       2.057   8.937  17.652  0.00  0.00    +0.000 Cl
ATOM     24  C   UNL     1       1.521   8.004  20.126  0.00  0.00    +0.000 A 
ATOM     25  C   UNL     1       1.081   8.144  21.443  0.00  0.00    +0.000 A 
ATOM     26  C   UNL     1       0.650   9.392  21.906  0.00  0.00    +0.000 A 
ATOM     27 CL   UNL     1       0.120   9.511  23.545  0.00  0.00    +0.000 Cl
ENDBRANCH  19  20
ENDBRANCH   6  19
TORSDOF 3
ENDMDL
MODEL 4
REMARK VINA RESULT:      -7.6      2.575      6.868
REMARK  Name = 
REMARK  3 active torsions:
REMARK  status: ('A' for Active; 'I' for Inactive)
REMARK    1  A    between atoms: C_2  and  C_3
REMARK    2  A    between atoms: C_8  and  O_9
REMARK    3  A    between atoms: O_9  and  C_10
REMARK                            x       y       z     vdW  Elec       q    Type
REMARK                         _______ _______ _______ _____ _____    ______ ____
ROOT
ATOM      1  C   UNL     1       2.401   6.063  19.619  0.00  0.00    +0.000 A 
ATOM      2  N   UNL     1       1.412   5.387  20.275  0.00  0.00    +0.000 NA
ATOM      3  C   UNL     1       1.701   4.162  20.760  0.00  0.00    +0.000 A 
ATOM      4  C   UNL     1       2.910   3.530  20.552  0.00  0.00    +0.000 A 
ATOM      5  C   UNL     1       3.877   4.187  19.796  0.00  0.00    +0.000 A 
ATOM      6  C   UNL     1       3.655   5.496  19.349  0.00  0.00    +0.000 A 
ENDROOT
BRANCH   1   8
ATOM      7  O   UNL     1       2.461   7.845  18.104  0.00  0.00    +0.000 OA
ATOM      8  C   UNL     1       2.067   7.481  19.212  0.00  0.00    +0.000 C 
ATOM      9  N   UNL     1       1.360   8.321  20.121  0.00  0.00    +0.000 N 
ATOM     10  C   UNL     1       1.106   7.927  21.515  0.00  0.00    +0.000 C 
ATOM     11  C   UNL     1       1.353   9.048  22.501  0.00  0.00    +0.000 C 
ATOM     12  C   UNL     1       0.458  10.224  22.195  0.00  0.00    +0.000 C 
ATOM     13  C   UNL     1       0.390  10.525  20.722  0.00  0.00    +0.000 A 
ATOM     14  C   UNL     1      -0.158  11.769  20.353  0.00  0.00    +0.000 A 
ATOM     15  C   UNL     1      -0.296  12.120  19.016  0.00  0.00    +0.000 A 
ATOM     16  C   UNL     1       0.104  11.225  18.038  0.00  0.00    +0.000 A 
ATOM     17  C   UNL     1       0.647   9.982  18.393  0.00  0.00    +0.000 A 
ATOM     18  C   UNL     1       0.815   9.606  19.734  0.00  0.00    +0.000 A 
ENDBRANCH   1   8
BRANCH   6  19
ATOM     19  O   UNL     1       4.590   6.216  18.637  0.00  0.00    +0.000 OA
BRANCH  19  20
ATOM     20  C   UNL     1       5.404   5.598  17.712  0.00  0.00    +0.000 A 
ATOM     21  C   UNL     1       4.946   5.218  16.445  0.00  0.00    +0.000 A 
ATOM     22  C   UNL     1       5.815   4.599  15.548  0.00  0.00    +0.000 A 
ATOM     23 CL   UNL     1       5.268   4.216  13.962  0.00  0.00    +0.000 Cl
ATOM     24  C   UNL     1       7.125   4.299  15.917  0.00  0.00    +0.000 A 
ATOM     25  C   UNL     1       7.571   4.621  17.199  0.00  0.00    +0.000 A 
ATOM     26  C   UNL     1       6.714   5.269  18.095  0.00  0.00    +0.000 A 
ATOM     27 CL   UNL     1       7.318   5.649  19.667  0.00  0.00    +0.000 Cl
ENDBRANCH  19  20
ENDBRANCH   6  19
TORSDOF 3
ENDMDL
MODEL 5
REMARK VINA RESULT:      -7.4      7.898     11.572
REMARK  Name = 
REMARK  3 active torsions:
REMARK  status: ('A' for Active; 'I' for Inactive)
REMARK    1  A    between atoms: C_2  and  C_3
REMARK    2  A    between atoms: C_8  and  O_9
REMARK    3  A    between atoms: O_9  and  C_10
REMARK                            x       y       z     vdW  Elec       q    Type
REMARK                         _______ _______ _______ _____ _____    ______ ____
ROOT
ATOM      1  C   UNL     1      -2.746  14.687  21.833  0.00  0.00    +0.000 A 
ATOM      2  N   UNL     1      -2.142  15.753  21.229  0.00  0.00    +0.000 NA
ATOM      3  C   UNL     1      -2.887  16.853  21.001  0.00  0.00    +0.000 A 
ATOM      4  C   UNL     1      -4.239  16.922  21.268  0.00  0.00    +0.000 A 
ATOM      5  C   UNL     1      -4.867  15.794  21.792  0.00  0.00    +0.000 A 
ATOM      6  C   UNL     1      -4.117  14.661  22.129  0.00  0.00    +0.000 A 
ENDROOT
BRANCH   1   8
ATOM      7  O   UNL     1      -1.335  13.544  23.309  0.00  0.00    +0.000 OA
ATOM      8  C   UNL     1      -1.836  13.531  22.185  0.00  0.00    +0.000 C 
ATOM      9  N   UNL     1      -1.579  12.522  21.211  0.00  0.00    +0.000 N 
ATOM     10  C   UNL     1      -2.011  12.658  19.811  0.00  0.00    +0.000 C 
ATOM     11  C   UNL     1      -0.947  12.237  18.820  0.00  0.00    +0.000 C 
ATOM     12  C   UNL     1      -0.569  10.792  19.037  0.00  0.00    +0.000 C 
ATOM     13  C   UNL     1      -0.409  10.454  20.495  0.00  0.00    +0.000 A 
ATOM     14  C   UNL     1       0.234   9.238  20.797  0.00  0.00    +0.000 A 
ATOM     15  C   UNL     1       0.394   8.823  22.114  0.00  0.00    +0.000 A 
ATOM     16  C   UNL     1      -0.095   9.618  23.137  0.00  0.00    +0.000 A 
ATOM     17  C   UNL     1      -0.740  10.829  22.848  0.00  0.00    +0.000 A 
ATOM     18  C   UNL     1      -0.902  11.282  21.530  0.00  0.00    +0.000 A 
ENDBRANCH   1   8
BRANCH   6  19
ATOM     19  O   UNL     1      -4.670  13.533  22.693  0.00  0.00    +0.000 OA
BRANCH  19  20
ATOM     20  C   UNL     1      -5.641  12.813  22.028  0.00  0.00    +0.000 A 
ATOM     21  C   UNL     1      -5.447  12.308  20.737  0.00  0.00    +0.000 A 
ATOM     22  C   UNL     1      -6.462  11.584  20.113  0.00  0.00    +0.000 A 
ATOM     23 CL   UNL     1      -6.183  10.892  18.563  0.00  0.00    +0.000 Cl
ATOM     24  C   UNL     1      -7.695  11.404  20.738  0.00  0.00    +0.000 A 
ATOM     25  C   UNL     1      -7.916  11.955  22.000  0.00  0.00    +0.000 A 
ATOM     26  C   UNL     1      -6.892  12.658  22.644  0.00  0.00    +0.000 A 
ATOM     27 CL   UNL     1      -7.217  13.315  24.207  0.00  0.00    +0.000 Cl
ENDBRANCH  19  20
ENDBRANCH   6  19
TORSDOF 3
ENDMDL
MODEL 6
REMARK VINA RESULT:      -7.4      5.127      8.405
REMARK  Name = 
REMARK  3 active torsions:
REMARK  status: ('A' for Active; 'I' for Inactive)
REMARK    1  A    between atoms: C_2  and  C_3
REMARK    2  A    between atoms: C_8  and  O_9
REMARK    3  A    between atoms: O_9  and  C_10
REMARK                            x       y       z     vdW  Elec       q    Type
REMARK                         _______ _______ _______ _____ _____    ______ ____
ROOT
ATOM      1  C   UNL     1       0.275  12.395  20.547  0.00  0.00    +0.000 A 
ATOM      2  N   UNL     1       1.205  13.388  20.671  0.00  0.00    +0.000 NA
ATOM      3  C   UNL     1       0.788  14.662  20.525  0.00  0.00    +0.000 A 
ATOM      4  C   UNL     1      -0.501  15.002  20.173  0.00  0.00    +0.000 A 
ATOM      5  C   UNL     1      -1.418  13.978  19.949  0.00  0.00    +0.000 A 
ATOM      6  C   UNL     1      -1.055  12.644  20.178  0.00  0.00    +0.000 A 
ENDROOT
BRANCH   1   8
ATOM      7  O   UNL     1       0.838  10.682  22.038  0.00  0.00    +0.000 OA
ATOM      8  C   UNL     1       0.765  10.996  20.850  0.00  0.00    +0.000 C 
ATOM      9  N   UNL     1       1.143  10.139  19.775  0.00  0.00    +0.000 N 
ATOM     10  C   UNL     1       1.257  10.624  18.392  0.00  0.00    +0.000 C 
ATOM     11  C   UNL     1       2.496  10.114  17.686  0.00  0.00    +0.000 C 
ATOM     12  C   UNL     1       2.488   8.605  17.636  0.00  0.00    +0.000 C 
ATOM     13  C   UNL     1       2.065   7.991  18.944  0.00  0.00    +0.000 A 
ATOM     14  C   UNL     1       2.316   6.615  19.108  0.00  0.00    +0.000 A 
ATOM     15  C   UNL     1       1.927   5.951  20.265  0.00  0.00    +0.000 A 
ATOM     16  C   UNL     1       1.277   6.658  21.263  0.00  0.00    +0.000 A 
ATOM     17  C   UNL     1       1.019   8.028  21.109  0.00  0.00    +0.000 A 
ATOM     18  C   UNL     1       1.414   8.728  19.959  0.00  0.00    +0.000 A 
ENDBRANCH   1   8
BRANCH   6  19
ATOM     19  O   UNL     1      -1.928  11.590  20.020  0.00  0.00    +0.000 OA
BRANCH  19  20
ATOM     20  C   UNL     1      -2.782  11.535  18.939  0.00  0.00    +0.000 A 
ATOM     21  C   UNL     1      -2.355  11.133  17.667  0.00  0.00    +0.000 A 
ATOM     22  C   UNL     1      -3.264  11.093  16.610  0.00  0.00    +0.000 A 
ATOM     23 CL   UNL     1      -2.751  10.514  15.072  0.00  0.00    +0.000 Cl
ATOM     24  C   UNL     1      -4.583  11.502  16.789  0.00  0.00    +0.000 A 
ATOM     25  C   UNL     1      -5.001  11.960  18.039  0.00  0.00    +0.000 A 
ATOM     26  C   UNL     1      -4.103  11.976  19.112  0.00  0.00    +0.000 A 
ATOM     27 CL   UNL     1      -4.672  12.547  20.638  0.00  0.00    +0.000 Cl
ENDBRANCH  19  20
ENDBRANCH   6  19
TORSDOF 3
ENDMDL
MODEL 7
REMARK VINA RESULT:      -7.3      4.871      7.821
REMARK  Name = 
REMARK  3 active torsions:
REMARK  status: ('A' for Active; 'I' for Inactive)
REMARK    1  A    between atoms: C_2  and  C_3
REMARK    2  A    between atoms: C_8  and  O_9
REMARK    3  A    between atoms: O_9  and  C_10
REMARK                            x       y       z     vdW  Elec       q    Type
REMARK                         _______ _______ _______ _____ _____    ______ ____
ROOT
ATOM      1  C   UNL     1       1.043  11.682  18.603  0.00  0.00    +0.000 A 
ATOM      2  N   UNL     1       2.081  12.530  18.866  0.00  0.00    +0.000 NA
ATOM      3  C   UNL     1       1.789  13.822  19.123  0.00  0.00    +0.000 A 
ATOM      4  C   UNL     1       0.513  14.340  19.048  0.00  0.00    +0.000 A 
ATOM      5  C   UNL     1      -0.526  13.488  18.681  0.00  0.00    +0.000 A 
ATOM      6  C   UNL     1      -0.285  12.121  18.493  0.00  0.00    +0.000 A 
ENDROOT
BRANCH   1   8
ATOM      7  O   UNL     1       1.748   9.850  17.329  0.00  0.00    +0.000 OA
ATOM      8  C   UNL     1       1.411  10.222  18.453  0.00  0.00    +0.000 C 
ATOM      9  N   UNL     1       1.319   9.358  19.583  0.00  0.00    +0.000 N 
ATOM     10  C   UNL     1       0.699   9.786  20.846  0.00  0.00    +0.000 C 
ATOM     11  C   UNL     1      -0.216   8.736  21.441  0.00  0.00    +0.000 C 
ATOM     12  C   UNL     1       0.553   7.468  21.723  0.00  0.00    +0.000 C 
ATOM     13  C   UNL     1       1.483   7.100  20.598  0.00  0.00    +0.000 A 
ATOM     14  C   UNL     1       2.011   5.795  20.614  0.00  0.00    +0.000 A 
ATOM     15  C   UNL     1       2.907   5.375  19.638  0.00  0.00    +0.000 A 
ATOM     16  C   UNL     1       3.288   6.262  18.645  0.00  0.00    +0.000 A 
ATOM     17  C   UNL     1       2.771   7.565  18.620  0.00  0.00    +0.000 A 
ATOM     18  C   UNL     1       1.852   8.012  19.582  0.00  0.00    +0.000 A 
ENDBRANCH   1   8
BRANCH   6  19
ATOM     19  O   UNL     1      -1.277  11.219  18.176  0.00  0.00    +0.000 OA
BRANCH  19  20
ATOM     20  C   UNL     1      -2.607  11.574  18.258  0.00  0.00    +0.000 A 
ATOM     21  C   UNL     1      -3.204  11.974  19.459  0.00  0.00    +0.000 A 
ATOM     22  C   UNL     1      -4.553  12.325  19.483  0.00  0.00    +0.000 A 
ATOM     23 CL   UNL     1      -5.255  12.899  20.945  0.00  0.00    +0.000 Cl
ATOM     24  C   UNL     1      -5.334  12.227  18.333  0.00  0.00    +0.000 A 
ATOM     25  C   UNL     1      -4.760  11.773  17.145  0.00  0.00    +0.000 A 
ATOM     26  C   UNL     1      -3.400  11.447  17.106  0.00  0.00    +0.000 A 
ATOM     27 CL   UNL     1      -2.740  10.895  15.610  0.00  0.00    +0.000 Cl
ENDBRANCH  19  20
ENDBRANCH   6  19
TORSDOF 3
ENDMDL
MODEL 8
REMARK VINA RESULT:      -7.3      5.531     10.015
REMARK  Name = 
REMARK  3 active torsions:
REMARK  status: ('A' for Active; 'I' for Inactive)
REMARK    1  A    between atoms: C_2  and  C_3
REMARK    2  A    between atoms: C_8  and  O_9
REMARK    3  A    between atoms: O_9  and  C_10
REMARK                            x       y       z     vdW  Elec       q    Type
REMARK                         _______ _______ _______ _____ _____    ______ ____
ROOT
ATOM      1  C   UNL     1       0.025  12.296  19.058  0.00  0.00    +0.000 A 
ATOM      2  N   UNL     1       0.425  13.602  19.071  0.00  0.00    +0.000 NA
ATOM      3  C   UNL     1       1.665  13.884  18.623  0.00  0.00    +0.000 A 
ATOM      4  C   UNL     1       2.571  12.918  18.237  0.00  0.00    +0.000 A 
ATOM      5  C   UNL     1       2.187  11.582  18.322  0.00  0.00    +0.000 A 
ATOM      6  C   UNL     1       0.880  11.245  18.695  0.00  0.00    +0.000 A 
ENDROOT
BRANCH   1   8
ATOM      7  O   UNL     1      -1.665  12.001  20.650  0.00  0.00    +0.000 OA
ATOM      8  C   UNL     1      -1.416  12.048  19.445  0.00  0.00    +0.000 C 
ATOM      9  N   UNL     1      -2.390  11.849  18.423  0.00  0.00    +0.000 N 
ATOM     10  C   UNL     1      -2.019  11.686  17.009  0.00  0.00    +0.000 C 
ATOM     11  C   UNL     1      -2.779  10.572  16.322  0.00  0.00    +0.000 C 
ATOM     12  C   UNL     1      -4.264  10.841  16.370  0.00  0.00    +0.000 C 
ATOM     13  C   UNL     1      -4.714  11.333  17.720  0.00  0.00    +0.000 A 
ATOM     14  C   UNL     1      -6.100  11.320  17.969  0.00  0.00    +0.000 A 
ATOM     15  C   UNL     1      -6.613  11.790  19.172  0.00  0.00    +0.000 A 
ATOM     16  C   UNL     1      -5.743  12.284  20.130  0.00  0.00    +0.000 A 
ATOM     17  C   UNL     1      -4.362  12.305  19.892  0.00  0.00    +0.000 A 
ATOM     18  C   UNL     1      -3.813  11.822  18.694  0.00  0.00    +0.000 A 
ENDBRANCH   1   8
BRANCH   6  19
ATOM     19  O   UNL     1       0.426   9.945  18.753  0.00  0.00    +0.000 OA
BRANCH  19  20
ATOM     20  C   UNL     1       1.305   8.896  18.922  0.00  0.00    +0.000 A 
ATOM     21  C   UNL     1       2.153   8.456  17.898  0.00  0.00    +0.000 A 
ATOM     22  C   UNL     1       3.025   7.392  18.126  0.00  0.00    +0.000 A 
ATOM     23 CL   UNL     1       4.124   6.916  16.891  0.00  0.00    +0.000 Cl
ATOM     24  C   UNL     1       3.024   6.720  19.347  0.00  0.00    +0.000 A 
ATOM     25  C   UNL     1       2.140   7.115  20.352  0.00  0.00    +0.000 A 
ATOM     26  C   UNL     1       1.283   8.201  20.141  0.00  0.00    +0.000 A 
ATOM     27 CL   UNL     1       0.214   8.651  21.419  0.00  0.00    +0.000 Cl
ENDBRANCH  19  20
ENDBRANCH   6  19
TORSDOF 3
ENDMDL
MODEL 9
REMARK VINA RESULT:      -7.3      7.385     11.270
REMARK  Name = 
REMARK  3 active torsions:
REMARK  status: ('A' for Active; 'I' for Inactive)
REMARK    1  A    between atoms: C_2  and  C_3
REMARK    2  A    between atoms: C_8  and  O_9
REMARK    3  A    between atoms: O_9  and  C_10
REMARK                            x       y       z     vdW  Elec       q    Type
REMARK                         _______ _______ _______ _____ _____    ______ ____
ROOT
ATOM      1  C   UNL     1      -0.574  11.423  22.171  0.00  0.00    +0.000 A 
ATOM      2  N   UNL     1      -0.336  10.681  23.292  0.00  0.00    +0.000 NA
ATOM      3  C   UNL     1       0.007   9.387  23.130  0.00  0.00    +0.000 A 
ATOM      4  C   UNL     1       0.046   8.761  21.901  0.00  0.00    +0.000 A 
ATOM      5  C   UNL     1      -0.296   9.502  20.772  0.00  0.00    +0.000 A 
ATOM      6  C   UNL     1      -0.571  10.870  20.882  0.00  0.00    +0.000 A 
ENDROOT
BRANCH   1   8
ATOM      7  O   UNL     1       0.146  13.646  22.299  0.00  0.00    +0.000 OA
ATOM      8  C   UNL     1      -0.826  12.897  22.401  0.00  0.00    +0.000 C 
ATOM      9  N   UNL     1      -2.136  13.336  22.752  0.00  0.00    +0.000 N 
ATOM     10  C   UNL     1      -3.214  12.392  23.085  0.00  0.00    +0.000 C 
ATOM     11  C   UNL     1      -4.018  12.816  24.296  0.00  0.00    +0.000 C 
ATOM     12  C   UNL     1      -4.655  14.164  24.058  0.00  0.00    +0.000 C 
ATOM     13  C   UNL     1      -3.710  15.139  23.409  0.00  0.00    +0.000 A 
ATOM     14  C   UNL     1      -4.090  16.495  23.423  0.00  0.00    +0.000 A 
ATOM     15  C   UNL     1      -3.300  17.463  22.815  0.00  0.00    +0.000 A 
ATOM     16  C   UNL     1      -2.129  17.081  22.183  0.00  0.00    +0.000 A 
ATOM     17  C   UNL     1      -1.742  15.733  22.159  0.00  0.00    +0.000 A 
ATOM     18  C   UNL     1      -2.510  14.735  22.778  0.00  0.00    +0.000 A 
ENDBRANCH   1   8
BRANCH   6  19
ATOM     19  O   UNL     1      -0.870  11.667  19.798  0.00  0.00    +0.000 OA
BRANCH  19  20
ATOM     20  C   UNL     1      -2.086  11.561  19.156  0.00  0.00    +0.000 A 
ATOM     21  C   UNL     1      -3.238  12.207  19.621  0.00  0.00    +0.000 A 
ATOM     22  C   UNL     1      -4.441  12.068  18.930  0.00  0.00    +0.000 A 
ATOM     23 CL   UNL     1      -5.829  12.936  19.458  0.00  0.00    +0.000 Cl
ATOM     24  C   UNL     1      -4.526  11.244  17.809  0.00  0.00    +0.000 A 
ATOM     25  C   UNL     1      -3.397  10.549  17.375  0.00  0.00    +0.000 A 
ATOM     26  C   UNL     1      -2.179  10.707  18.046  0.00  0.00    +0.000 A 
ATOM     27 CL   UNL     1      -0.812   9.829  17.464  0.00  0.00    +0.000 Cl
ENDBRANCH  19  20
ENDBRANCH   6  19
TORSDOF 3
ENDMDL
