MODEL 1
REMARK VINA RESULT:      -6.8      0.000      0.000
REMARK  Name = 
REMARK  10 active torsions:
REMARK  status: ('A' for Active; 'I' for Inactive)
REMARK    1  A    between atoms: C_1  and  O_2
REMARK    2  A    between atoms: O_2  and  C_3
REMARK    3  A    between atoms: C_5  and  O_6
REMARK    4  A    between atoms: C_7  and  C_8
REMARK    5  A    between atoms: C_9  and  C_10
REMARK    6  A    between atoms: C_12  and  O_13
REMARK    7  A    between atoms: C_18  and  O_19
REMARK    8  A    between atoms: C_27  and  O_28
REMARK    9  A    between atoms: C_29  and  C_30
REMARK   10  A    between atoms: C_30  and  C_31
REMARK                            x       y       z     vdW  Elec       q    Type
REMARK                         _______ _______ _______ _____ _____    ______ ____
ROOT
ATOM      1  C   UNL     1       1.171  11.900  19.817  0.00  0.00    +0.000 C 
ATOM      2  C   UNL     1      -0.122  12.244  19.588  0.00  0.00    +0.000 C 
ATOM      3  C   UNL     1      -1.019  12.405  20.794  0.00  0.00    +0.000 C 
ATOM      4  C   UNL     1      -0.723  11.564  18.435  0.00  0.00    +0.000 C 
ATOM      5  C   UNL     1      -0.636  10.230  18.444  0.00  0.00    +0.000 C 
ATOM      6  C   UNL     1       0.635   9.606  18.985  0.00  0.00    +0.000 C 
ATOM      7  C   UNL     1       1.898   8.933  18.397  0.00  0.00    +0.000 C 
ATOM      8  O   UNL     1       2.578   9.303  17.469  0.00  0.00    +0.000 OA
ATOM      9  C   UNL     1       2.269   7.699  19.193  0.00  0.00    +0.000 A 
ATOM     10  C   UNL     1       3.004   6.659  18.642  0.00  0.00    +0.000 A 
ATOM     11  C   UNL     1       2.731   5.329  19.012  0.00  0.00    +0.000 A 
ATOM     12  C   UNL     1       1.702   5.093  19.934  0.00  0.00    +0.000 A 
ATOM     13  C   UNL     1       1.118   6.170  20.632  0.00  0.00    +0.000 A 
ATOM     14  C   UNL     1       1.518   7.493  20.345  0.00  0.00    +0.000 A 
ATOM     15  C   UNL     1       0.993   8.779  21.031  0.00  0.00    +0.000 C 
ATOM     16  O   UNL     1       0.239   8.652  21.986  0.00  0.00    +0.000 OA
ATOM     17  C   UNL     1       1.344  10.289  20.245  0.00  0.00    +0.000 C 
ENDROOT
BRANCH   1  21
ATOM     18  C   UNL     1       4.171  15.280  19.812  0.00  0.00    +0.000 A 
ATOM     19  C   UNL     1       3.733  14.698  18.606  0.00  0.00    +0.000 A 
ATOM     20  C   UNL     1       2.689  13.703  18.536  0.00  0.00    +0.000 A 
ATOM     21  C   UNL     1       1.993  13.245  19.665  0.00  0.00    +0.000 A 
ATOM     22  C   UNL     1       2.390  14.003  20.857  0.00  0.00    +0.000 A 
ATOM     23  C   UNL     1       3.514  14.924  20.984  0.00  0.00    +0.000 A 
BRANCH  23  24
ATOM     24  C   UNL     1       3.922  15.405  22.370  0.00  0.00    +0.000 C 
ATOM     25  C   UNL     1       3.938  16.848  22.862  0.00  0.00    +0.000 C 
ATOM     26  O   UNL     1       4.274  14.542  23.194  0.00  0.00    +0.000 OA
ENDBRANCH  23  24
BRANCH  18  28
ATOM     27  C   UNL     1       6.558  15.539  19.701  0.00  0.00    +0.000 C 
ATOM     28  O   UNL     1       5.260  16.098  19.895  0.00  0.00    +0.000 OA
ENDBRANCH  18  28
BRANCH  20  29
ATOM     29  O   UNL     1       2.400  13.188  17.302  0.00  0.00    +0.000 OA
ATOM     30  H   UNL     1       3.045  13.549  16.670  0.00  0.00    +0.000 HD
ENDBRANCH  20  29
BRANCH  22  31
ATOM     31  O   UNL     1       1.554  13.889  21.959  0.00  0.00    +0.000 OA
ATOM     32  H   UNL     1       0.847  14.570  21.911  0.00  0.00    +0.000 HD
ENDBRANCH  22  31
ENDBRANCH   1  21
BRANCH   5  33
ATOM     33  O   UNL     1      -1.773   9.595  18.993  0.00  0.00    +0.000 OA
ATOM     34  H   UNL     1      -2.416   9.457  18.267  0.00  0.00    +0.000 HD
ENDBRANCH   5  33
BRANCH  10  35
ATOM     35  O   UNL     1       4.011   6.851  17.745  0.00  0.00    +0.000 OA
ATOM     36  H   UNL     1       4.518   7.636  18.038  0.00  0.00    +0.000 HD
ENDBRANCH  10  35
TORSDOF 7
ENDMDL
MODEL 2
REMARK VINA RESULT:      -6.5      3.436      6.962
REMARK  Name = 
REMARK  10 active torsions:
REMARK  status: ('A' for Active; 'I' for Inactive)
REMARK    1  A    between atoms: C_1  and  O_2
REMARK    2  A    between atoms: O_2  and  C_3
REMARK    3  A    between atoms: C_5  and  O_6
REMARK    4  A    between atoms: C_7  and  C_8
REMARK    5  A    between atoms: C_9  and  C_10
REMARK    6  A    between atoms: C_12  and  O_13
REMARK    7  A    between atoms: C_18  and  O_19
REMARK    8  A    between atoms: C_27  and  O_28
REMARK    9  A    between atoms: C_29  and  C_30
REMARK   10  A    between atoms: C_30  and  C_31
REMARK                            x       y       z     vdW  Elec       q    Type
REMARK                         _______ _______ _______ _____ _____    ______ ____
ROOT
ATOM      1  C   UNL     1      -1.427  12.912  20.944  0.00  0.00    +0.000 C 
ATOM      2  C   UNL     1      -0.789  14.107  20.865  0.00  0.00    +0.000 C 
ATOM      3  C   UNL     1      -0.982  14.913  19.601  0.00  0.00    +0.000 C 
ATOM      4  C   UNL     1       0.576  14.090  21.405  0.00  0.00    +0.000 C 
ATOM      5  C   UNL     1       1.380  13.146  20.905  0.00  0.00    +0.000 C 
ATOM      6  C   UNL     1       0.777  11.790  20.598  0.00  0.00    +0.000 C 
ATOM      7  C   UNL     1       0.778  10.384  21.246  0.00  0.00    +0.000 C 
ATOM      8  O   UNL     1       0.615  10.097  22.408  0.00  0.00    +0.000 OA
ATOM      9  C   UNL     1       0.959   9.309  20.194  0.00  0.00    +0.000 A 
ATOM     10  C   UNL     1       1.483   8.060  20.499  0.00  0.00    +0.000 A 
ATOM     11  C   UNL     1       2.311   7.398  19.573  0.00  0.00    +0.000 A 
ATOM     12  C   UNL     1       2.592   8.035  18.358  0.00  0.00    +0.000 A 
ATOM     13  C   UNL     1       1.883   9.198  17.988  0.00  0.00    +0.000 A 
ATOM     14  C   UNL     1       0.945   9.761  18.880  0.00  0.00    +0.000 A 
ATOM     15  C   UNL     1       0.074  11.017  18.622  0.00  0.00    +0.000 C 
ATOM     16  O   UNL     1       0.110  11.520  17.507  0.00  0.00    +0.000 OA
ATOM     17  C   UNL     1      -0.705  11.730  20.001  0.00  0.00    +0.000 C 
ENDROOT
BRANCH   1  21
ATOM     18  C   UNL     1      -5.200  12.782  23.430  0.00  0.00    +0.000 A 
ATOM     19  C   UNL     1      -3.953  13.066  24.021  0.00  0.00    +0.000 A 
ATOM     20  C   UNL     1      -2.736  13.243  23.263  0.00  0.00    +0.000 A 
ATOM     21  C   UNL     1      -2.691  13.176  21.862  0.00  0.00    +0.000 A 
ATOM     22  C   UNL     1      -4.043  13.034  21.310  0.00  0.00    +0.000 A 
ATOM     23  C   UNL     1      -5.270  12.738  22.042  0.00  0.00    +0.000 A 
BRANCH  23  24
ATOM     24  C   UNL     1      -6.523  12.365  21.263  0.00  0.00    +0.000 C 
ATOM     25  C   UNL     1      -7.577  13.327  20.724  0.00  0.00    +0.000 C 
ATOM     26  O   UNL     1      -6.716  11.158  21.031  0.00  0.00    +0.000 OA
ENDBRANCH  23  24
BRANCH  18  28
ATOM     27  C   UNL     1      -7.269  13.480  24.434  0.00  0.00    +0.000 C 
ATOM     28  O   UNL     1      -6.313  12.460  24.151  0.00  0.00    +0.000 OA
ENDBRANCH  18  28
BRANCH  20  29
ATOM     29  O   UNL     1      -1.587  13.466  23.972  0.00  0.00    +0.000 OA
ATOM     30  H   UNL     1      -1.405  12.671  24.500  0.00  0.00    +0.000 HD
ENDBRANCH  20  29
BRANCH  22  31
ATOM     31  O   UNL     1      -4.179  13.290  19.953  0.00  0.00    +0.000 OA
ATOM     32  H   UNL     1      -3.386  12.964  19.473  0.00  0.00    +0.000 HD
ENDBRANCH  22  31
ENDBRANCH   1  21
BRANCH   5  33
ATOM     33  O   UNL     1       2.169  13.595  19.821  0.00  0.00    +0.000 OA
ATOM     34  H   UNL     1       2.564  14.453  20.076  0.00  0.00    +0.000 HD
ENDBRANCH   5  33
BRANCH  10  35
ATOM     35  O   UNL     1       1.230   7.411  21.670  0.00  0.00    +0.000 OA
ATOM     36  H   UNL     1       0.401   7.783  22.037  0.00  0.00    +0.000 HD
ENDBRANCH  10  35
TORSDOF 7
ENDMDL
MODEL 3
REMARK VINA RESULT:      -6.4      2.839      7.080
REMARK  Name = 
REMARK  10 active torsions:
REMARK  status: ('A' for Active; 'I' for Inactive)
REMARK    1  A    between atoms: C_1  and  O_2
REMARK    2  A    between atoms: O_2  and  C_3
REMARK    3  A    between atoms: C_5  and  O_6
REMARK    4  A    between atoms: C_7  and  C_8
REMARK    5  A    between atoms: C_9  and  C_10
REMARK    6  A    between atoms: C_12  and  O_13
REMARK    7  A    between atoms: C_18  and  O_19
REMARK    8  A    between atoms: C_27  and  O_28
REMARK    9  A    between atoms: C_29  and  C_30
REMARK   10  A    between atoms: C_30  and  C_31
REMARK                            x       y       z     vdW  Elec       q    Type
REMARK                         _______ _______ _______ _____ _____    ______ ____
ROOT
ATOM      1  C   UNL     1       0.423  11.005  19.371  0.00  0.00    +0.000 C 
ATOM      2  C   UNL     1       1.181  12.116  19.554  0.00  0.00    +0.000 C 
ATOM      3  C   UNL     1       1.395  12.581  20.976  0.00  0.00    +0.000 C 
ATOM      4  C   UNL     1       0.930  13.177  18.570  0.00  0.00    +0.000 C 
ATOM      5  C   UNL     1      -0.347  13.552  18.442  0.00  0.00    +0.000 C 
ATOM      6  C   UNL     1      -1.414  12.479  18.540  0.00  0.00    +0.000 C 
ATOM      7  C   UNL     1      -2.328  11.707  17.558  0.00  0.00    +0.000 C 
ATOM      8  O   UNL     1      -2.028  11.191  16.508  0.00  0.00    +0.000 OA
ATOM      9  C   UNL     1      -3.735  11.598  18.107  0.00  0.00    +0.000 A 
ATOM     10  C   UNL     1      -4.838  11.422  17.282  0.00  0.00    +0.000 A 
ATOM     11  C   UNL     1      -6.063  12.035  17.603  0.00  0.00    +0.000 A 
ATOM     12  C   UNL     1      -6.131  12.823  18.759  0.00  0.00    +0.000 A 
ATOM     13  C   UNL     1      -5.066  12.814  19.684  0.00  0.00    +0.000 A 
ATOM     14  C   UNL     1      -3.900  12.069  19.405  0.00  0.00    +0.000 A 
ATOM     15  C   UNL     1      -2.655  11.937  20.318  0.00  0.00    +0.000 C 
ATOM     16  O   UNL     1      -2.710  12.432  21.436  0.00  0.00    +0.000 OA
ATOM     17  C   UNL     1      -1.213  11.294  19.594  0.00  0.00    +0.000 C 
ENDROOT
BRANCH   1  21
ATOM     18  C   UNL     1       2.634   7.186  18.397  0.00  0.00    +0.000 A 
ATOM     19  C   UNL     1       2.816   8.346  17.619  0.00  0.00    +0.000 A 
ATOM     20  C   UNL     1       2.234   9.626  17.952  0.00  0.00    +0.000 A 
ATOM     21  C   UNL     1       1.457   9.836  19.101  0.00  0.00    +0.000 A 
ATOM     22  C   UNL     1       1.440   8.632  19.939  0.00  0.00    +0.000 A 
ATOM     23  C   UNL     1       1.914   7.299  19.581  0.00  0.00    +0.000 A 
BRANCH  23  24
ATOM     24  C   UNL     1       1.567   6.125  20.484  0.00  0.00    +0.000 C 
ATOM     25  C   UNL     1       2.514   5.021  20.942  0.00  0.00    +0.000 C 
ATOM     26  O   UNL     1       0.397   6.049  20.900  0.00  0.00    +0.000 OA
ENDBRANCH  23  24
BRANCH  18  28
ATOM     27  C   UNL     1       4.396   5.780  17.562  0.00  0.00    +0.000 C 
ATOM     28  O   UNL     1       3.049   5.947  18.000  0.00  0.00    +0.000 OA
ENDBRANCH  18  28
BRANCH  20  29
ATOM     29  O   UNL     1       2.454  10.656  17.079  0.00  0.00    +0.000 OA
ATOM     30  H   UNL     1       1.930  11.418  17.379  0.00  0.00    +0.000 HD
ENDBRANCH  20  29
BRANCH  22  31
ATOM     31  O   UNL     1       0.999   8.802  21.244  0.00  0.00    +0.000 OA
ATOM     32  H   UNL     1       1.699   8.515  21.871  0.00  0.00    +0.000 HD
ENDBRANCH  22  31
ENDBRANCH   1  21
BRANCH   5  33
ATOM     33  O   UNL     1      -0.690  14.667  19.240  0.00  0.00    +0.000 OA
ATOM     34  H   UNL     1      -0.041  15.375  19.055  0.00  0.00    +0.000 HD
ENDBRANCH   5  33
BRANCH  10  35
ATOM     35  O   UNL     1      -4.809  10.662  16.152  0.00  0.00    +0.000 OA
ATOM     36  H   UNL     1      -3.904  10.294  16.070  0.00  0.00    +0.000 HD
ENDBRANCH  10  35
TORSDOF 7
ENDMDL
MODEL 4
REMARK VINA RESULT:      -6.3      3.485      8.149
REMARK  Name = 
REMARK  10 active torsions:
REMARK  status: ('A' for Active; 'I' for Inactive)
REMARK    1  A    between atoms: C_1  and  O_2
REMARK    2  A    between atoms: O_2  and  C_3
REMARK    3  A    between atoms: C_5  and  O_6
REMARK    4  A    between atoms: C_7  and  C_8
REMARK    5  A    between atoms: C_9  and  C_10
REMARK    6  A    between atoms: C_12  and  O_13
REMARK    7  A    between atoms: C_18  and  O_19
REMARK    8  A    between atoms: C_27  and  O_28
REMARK    9  A    between atoms: C_29  and  C_30
REMARK   10  A    between atoms: C_30  and  C_31
REMARK                            x       y       z     vdW  Elec       q    Type
REMARK                         _______ _______ _______ _____ _____    ______ ____
ROOT
ATOM      1  C   UNL     1      -1.011  12.891  21.258  0.00  0.00    +0.000 C 
ATOM      2  C   UNL     1      -1.002  11.566  20.963  0.00  0.00    +0.000 C 
ATOM      3  C   UNL     1      -0.264  10.651  21.913  0.00  0.00    +0.000 C 
ATOM      4  C   UNL     1      -0.827  11.276  19.535  0.00  0.00    +0.000 C 
ATOM      5  C   UNL     1       0.238  11.844  18.959  0.00  0.00    +0.000 C 
ATOM      6  C   UNL     1       0.616  13.246  19.396  0.00  0.00    +0.000 C 
ATOM      7  C   UNL     1       0.484  14.677  18.825  0.00  0.00    +0.000 C 
ATOM      8  O   UNL     1      -0.483  15.192  18.314  0.00  0.00    +0.000 OA
ATOM      9  C   UNL     1       1.764  15.459  19.035  0.00  0.00    +0.000 A 
ATOM     10  C   UNL     1       2.113  16.534  18.228  0.00  0.00    +0.000 A 
ATOM     11  C   UNL     1       3.463  16.759  17.899  0.00  0.00    +0.000 A 
ATOM     12  C   UNL     1       4.426  15.872  18.398  0.00  0.00    +0.000 A 
ATOM     13  C   UNL     1       4.072  14.922  19.379  0.00  0.00    +0.000 A 
ATOM     14  C   UNL     1       2.729  14.816  19.802  0.00  0.00    +0.000 A 
ATOM     15  C   UNL     1       2.180  13.845  20.877  0.00  0.00    +0.000 C 
ATOM     16  O   UNL     1       2.985  13.173  21.506  0.00  0.00    +0.000 OA
ATOM     17  C   UNL     1       0.457  13.634  20.939  0.00  0.00    +0.000 C 
ENDROOT
BRANCH   1  21
ATOM     18  C   UNL     1      -5.232  12.804  22.873  0.00  0.00    +0.000 A 
ATOM     19  C   UNL     1      -4.136  13.047  23.723  0.00  0.00    +0.000 A 
ATOM     20  C   UNL     1      -2.781  13.209  23.249  0.00  0.00    +0.000 A 
ATOM     21  C   UNL     1      -2.438  13.167  21.889  0.00  0.00    +0.000 A 
ATOM     22  C   UNL     1      -3.642  13.068  21.057  0.00  0.00    +0.000 A 
ATOM     23  C   UNL     1      -5.003  12.787  21.501  0.00  0.00    +0.000 A 
BRANCH  23  24
ATOM     24  C   UNL     1      -6.066  12.460  20.463  0.00  0.00    +0.000 C 
ATOM     25  C   UNL     1      -6.703  11.097  20.215  0.00  0.00    +0.000 C 
ATOM     26  O   UNL     1      -6.468  13.391  19.742  0.00  0.00    +0.000 OA
ENDBRANCH  23  24
BRANCH  18  28
ATOM     27  C   UNL     1      -7.269  13.523  23.926  0.00  0.00    +0.000 C 
ATOM     28  O   UNL     1      -6.480  12.494  23.331  0.00  0.00    +0.000 OA
ENDBRANCH  18  28
BRANCH  20  29
ATOM     29  O   UNL     1      -1.807  13.391  24.193  0.00  0.00    +0.000 OA
ATOM     30  H   UNL     1      -1.511  14.315  24.140  0.00  0.00    +0.000 HD
ENDBRANCH  20  29
BRANCH  22  31
ATOM     31  O   UNL     1      -3.477  13.353  19.708  0.00  0.00    +0.000 OA
ATOM     32  H   UNL     1      -3.832  12.614  19.167  0.00  0.00    +0.000 HD
ENDBRANCH  22  31
ENDBRANCH   1  21
BRANCH   5  33
ATOM     33  O   UNL     1       1.377  11.009  18.932  0.00  0.00    +0.000 OA
ATOM     34  H   UNL     1       1.358  10.508  18.091  0.00  0.00    +0.000 HD
ENDBRANCH   5  33
BRANCH  10  35
ATOM     35  O   UNL     1       1.204  17.416  17.727  0.00  0.00    +0.000 OA
ATOM     36  H   UNL     1       1.638  17.899  16.994  0.00  0.00    +0.000 HD
ENDBRANCH  10  35
TORSDOF 7
ENDMDL
MODEL 5
REMARK VINA RESULT:      -6.3      4.115      7.405
REMARK  Name = 
REMARK  10 active torsions:
REMARK  status: ('A' for Active; 'I' for Inactive)
REMARK    1  A    between atoms: C_1  and  O_2
REMARK    2  A    between atoms: O_2  and  C_3
REMARK    3  A    between atoms: C_5  and  O_6
REMARK    4  A    between atoms: C_7  and  C_8
REMARK    5  A    between atoms: C_9  and  C_10
REMARK    6  A    between atoms: C_12  and  O_13
REMARK    7  A    between atoms: C_18  and  O_19
REMARK    8  A    between atoms: C_27  and  O_28
REMARK    9  A    between atoms: C_29  and  C_30
REMARK   10  A    between atoms: C_30  and  C_31
REMARK                            x       y       z     vdW  Elec       q    Type
REMARK                         _______ _______ _______ _____ _____    ______ ____
ROOT
ATOM      1  C   UNL     1       6.726  15.458  20.288  0.00  0.00    +0.000 C 
ATOM      2  C   UNL     1       6.854  16.753  20.673  0.00  0.00    +0.000 C 
ATOM      3  C   UNL     1       7.068  17.020  22.145  0.00  0.00    +0.000 C 
ATOM      4  C   UNL     1       5.936  17.671  19.988  0.00  0.00    +0.000 C 
ATOM      5  C   UNL     1       4.642  17.338  20.044  0.00  0.00    +0.000 C 
ATOM      6  C   UNL     1       4.284  15.867  19.963  0.00  0.00    +0.000 C 
ATOM      7  C   UNL     1       3.710  14.906  18.895  0.00  0.00    +0.000 C 
ATOM      8  O   UNL     1       4.027  14.803  17.734  0.00  0.00    +0.000 OA
ATOM      9  C   UNL     1       2.669  13.989  19.504  0.00  0.00    +0.000 A 
ATOM     10  C   UNL     1       1.668  13.401  18.742  0.00  0.00    +0.000 A 
ATOM     11  C   UNL     1       0.383  13.220  19.285  0.00  0.00    +0.000 A 
ATOM     12  C   UNL     1       0.148  13.654  20.597  0.00  0.00    +0.000 A 
ATOM     13  C   UNL     1       1.226  14.051  21.414  0.00  0.00    +0.000 A 
ATOM     14  C   UNL     1       2.535  14.082  20.884  0.00  0.00    +0.000 A 
ATOM     15  C   UNL     1       3.825  14.473  21.648  0.00  0.00    +0.000 C 
ATOM     16  O   UNL     1       3.739  14.674  22.852  0.00  0.00    +0.000 OA
ATOM     17  C   UNL     1       5.235  14.808  20.691  0.00  0.00    +0.000 C 
ENDROOT
BRANCH   1  21
ATOM     18  C   UNL     1      10.290  13.634  18.189  0.00  0.00    +0.000 A 
ATOM     19  C   UNL     1       9.801  14.902  17.817  0.00  0.00    +0.000 A 
ATOM     20  C   UNL     1       8.747  15.588  18.529  0.00  0.00    +0.000 A 
ATOM     21  C   UNL     1       8.134  15.065  19.676  0.00  0.00    +0.000 A 
ATOM     22  C   UNL     1       8.796  13.824  20.094  0.00  0.00    +0.000 A 
ATOM     23  C   UNL     1       9.776  13.049  19.341  0.00  0.00    +0.000 A 
BRANCH  23  24
ATOM     24  C   UNL     1      10.145  11.654  19.826  0.00  0.00    +0.000 C 
ATOM     25  C   UNL     1       9.502  10.342  19.390  0.00  0.00    +0.000 C 
ATOM     26  O   UNL     1      11.065  11.562  20.658  0.00  0.00    +0.000 OA
ENDBRANCH  23  24
BRANCH  18  28
ATOM     27  C   UNL     1      12.333  13.572  16.926  0.00  0.00    +0.000 C 
ATOM     28  O   UNL     1      11.169  12.919  17.429  0.00  0.00    +0.000 OA
ENDBRANCH  18  28
BRANCH  20  29
ATOM     29  O   UNL     1       8.337  16.793  18.025  0.00  0.00    +0.000 OA
ATOM     30  H   UNL     1       8.148  17.380  18.776  0.00  0.00    +0.000 HD
ENDBRANCH  20  29
BRANCH  22  31
ATOM     31  O   UNL     1       8.518  13.386  21.381  0.00  0.00    +0.000 OA
ATOM     32  H   UNL     1       8.637  14.127  22.017  0.00  0.00    +0.000 HD
ENDBRANCH  22  31
ENDBRANCH   1  21
BRANCH   5  33
ATOM     33  O   UNL     1       3.946  17.960  21.105  0.00  0.00    +0.000 OA
ATOM     34  H   UNL     1       4.221  17.524  21.937  0.00  0.00    +0.000 HD
ENDBRANCH   5  33
BRANCH  10  35
ATOM     35  O   UNL     1       1.861  12.966  17.466  0.00  0.00    +0.000 OA
ATOM     36  H   UNL     1       1.652  13.713  16.867  0.00  0.00    +0.000 HD
ENDBRANCH  10  35
TORSDOF 7
ENDMDL
MODEL 6
REMARK VINA RESULT:      -6.3      2.649      4.664
REMARK  Name = 
REMARK  10 active torsions:
REMARK  status: ('A' for Active; 'I' for Inactive)
REMARK    1  A    between atoms: C_1  and  O_2
REMARK    2  A    between atoms: O_2  and  C_3
REMARK    3  A    between atoms: C_5  and  O_6
REMARK    4  A    between atoms: C_7  and  C_8
REMARK    5  A    between atoms: C_9  and  C_10
REMARK    6  A    between atoms: C_12  and  O_13
REMARK    7  A    between atoms: C_18  and  O_19
REMARK    8  A    between atoms: C_27  and  O_28
REMARK    9  A    between atoms: C_29  and  C_30
REMARK   10  A    between atoms: C_30  and  C_31
REMARK                            x       y       z     vdW  Elec       q    Type
REMARK                         _______ _______ _______ _____ _____    ______ ____
ROOT
ATOM      1  C   UNL     1       3.490  14.614  20.972  0.00  0.00    +0.000 C 
ATOM      2  C   UNL     1       3.070  15.897  20.831  0.00  0.00    +0.000 C 
ATOM      3  C   UNL     1       2.315  16.509  21.989  0.00  0.00    +0.000 C 
ATOM      4  C   UNL     1       2.547  16.208  19.495  0.00  0.00    +0.000 C 
ATOM      5  C   UNL     1       1.582  15.396  19.052  0.00  0.00    +0.000 C 
ATOM      6  C   UNL     1       1.685  13.922  19.391  0.00  0.00    +0.000 C 
ATOM      7  C   UNL     1       2.080  12.622  18.651  0.00  0.00    +0.000 C 
ATOM      8  O   UNL     1       3.029  12.433  17.928  0.00  0.00    +0.000 OA
ATOM      9  C   UNL     1       1.122  11.499  18.991  0.00  0.00    +0.000 A 
ATOM     10  C   UNL     1       0.922  10.418  18.143  0.00  0.00    +0.000 A 
ATOM     11  C   UNL     1      -0.356   9.839  18.028  0.00  0.00    +0.000 A 
ATOM     12  C   UNL     1      -1.404  10.387  18.780  0.00  0.00    +0.000 A 
ATOM     13  C   UNL     1      -1.132  11.340  19.783  0.00  0.00    +0.000 A 
ATOM     14  C   UNL     1       0.190  11.797  19.978  0.00  0.00    +0.000 A 
ATOM     15  C   UNL     1       0.659  12.820  21.043  0.00  0.00    +0.000 C 
ATOM     16  O   UNL     1      -0.157  13.199  21.872  0.00  0.00    +0.000 OA
ATOM     17  C   UNL     1       2.241  13.506  20.831  0.00  0.00    +0.000 C 
ENDROOT
BRANCH   1  21
ATOM     18  C   UNL     1       7.857  14.001  21.966  0.00  0.00    +0.000 A 
ATOM     19  C   UNL     1       7.467  14.588  20.746  0.00  0.00    +0.000 A 
ATOM     20  C   UNL     1       6.099  14.922  20.425  0.00  0.00    +0.000 A 
ATOM     21  C   UNL     1       5.033  14.717  21.314  0.00  0.00    +0.000 A 
ATOM     22  C   UNL     1       5.530  14.252  22.614  0.00  0.00    +0.000 A 
ATOM     23  C   UNL     1       6.879  13.797  22.934  0.00  0.00    +0.000 A 
BRANCH  23  24
ATOM     24  C   UNL     1       7.129  13.103  24.265  0.00  0.00    +0.000 C 
ATOM     25  C   UNL     1       7.303  11.605  24.489  0.00  0.00    +0.000 C 
ATOM     26  O   UNL     1       7.207  13.820  25.279  0.00  0.00    +0.000 OA
ENDBRANCH  23  24
BRANCH  18  28
ATOM     27  C   UNL     1       9.586  12.404  21.484  0.00  0.00    +0.000 C 
ATOM     28  O   UNL     1       9.119  13.542  22.206  0.00  0.00    +0.000 OA
ENDBRANCH  18  28
BRANCH  20  29
ATOM     29  O   UNL     1       5.859  15.442  19.182  0.00  0.00    +0.000 OA
ATOM     30  H   UNL     1       6.552  15.115  18.584  0.00  0.00    +0.000 HD
ENDBRANCH  20  29
BRANCH  22  31
ATOM     31  O   UNL     1       4.637  14.331  23.674  0.00  0.00    +0.000 OA
ATOM     32  H   UNL     1       4.148  13.483  23.760  0.00  0.00    +0.000 HD
ENDBRANCH  22  31
ENDBRANCH   1  21
BRANCH   5  33
ATOM     33  O   UNL     1       0.278  15.875  19.313  0.00  0.00    +0.000 OA
ATOM     34  H   UNL     1       0.354  16.607  19.959  0.00  0.00    +0.000 HD
ENDBRANCH   5  33
BRANCH  10  35
ATOM     35  O   UNL     1       1.917   9.860  17.399  0.00  0.00    +0.000 OA
ATOM     36  H   UNL     1       2.108  10.472  16.658  0.00  0.00    +0.000 HD
ENDBRANCH  10  35
TORSDOF 7
ENDMDL
MODEL 7
REMARK VINA RESULT:      -6.2      3.712      7.667
REMARK  Name = 
REMARK  10 active torsions:
REMARK  status: ('A' for Active; 'I' for Inactive)
REMARK    1  A    between atoms: C_1  and  O_2
REMARK    2  A    between atoms: O_2  and  C_3
REMARK    3  A    between atoms: C_5  and  O_6
REMARK    4  A    between atoms: C_7  and  C_8
REMARK    5  A    between atoms: C_9  and  C_10
REMARK    6  A    between atoms: C_12  and  O_13
REMARK    7  A    between atoms: C_18  and  O_19
REMARK    8  A    between atoms: C_27  and  O_28
REMARK    9  A    between atoms: C_29  and  C_30
REMARK   10  A    between atoms: C_30  and  C_31
REMARK                            x       y       z     vdW  Elec       q    Type
REMARK                         _______ _______ _______ _____ _____    ______ ____
ROOT
ATOM      1  C   UNL     1       3.692  14.657  19.358  0.00  0.00    +0.000 C 
ATOM      2  C   UNL     1       3.208  15.894  19.079  0.00  0.00    +0.000 C 
ATOM      3  C   UNL     1       3.229  16.337  17.634  0.00  0.00    +0.000 C 
ATOM      4  C   UNL     1       3.586  16.917  20.062  0.00  0.00    +0.000 C 
ATOM      5  C   UNL     1       4.896  17.021  20.309  0.00  0.00    +0.000 C 
ATOM      6  C   UNL     1       5.715  15.746  20.338  0.00  0.00    +0.000 C 
ATOM      7  C   UNL     1       6.349  14.839  21.420  0.00  0.00    +0.000 C 
ATOM      8  O   UNL     1       5.850  14.438  22.445  0.00  0.00    +0.000 OA
ATOM      9  C   UNL     1       7.746  14.416  21.014  0.00  0.00    +0.000 A 
ATOM     10  C   UNL     1       8.705  14.045  21.948  0.00  0.00    +0.000 A 
ATOM     11  C   UNL     1      10.057  14.375  21.739  0.00  0.00    +0.000 A 
ATOM     12  C   UNL     1      10.397  15.085  20.580  0.00  0.00    +0.000 A 
ATOM     13  C   UNL     1       9.445  15.263  19.554  0.00  0.00    +0.000 A 
ATOM     14  C   UNL     1       8.126  14.789  19.730  0.00  0.00    +0.000 A 
ATOM     15  C   UNL     1       6.972  14.886  18.701  0.00  0.00    +0.000 C 
ATOM     16  O   UNL     1       7.234  15.313  17.585  0.00  0.00    +0.000 OA
ATOM     17  C   UNL     1       5.365  14.588  19.292  0.00  0.00    +0.000 C 
ENDROOT
BRANCH   1  21
ATOM     18  C   UNL     1      -0.408  12.836  19.904  0.00  0.00    +0.000 A 
ATOM     19  C   UNL     1       0.342  12.593  18.737  0.00  0.00    +0.000 A 
ATOM     20  C   UNL     1       1.703  13.044  18.558  0.00  0.00    +0.000 A 
ATOM     21  C   UNL     1       2.412  13.743  19.546  0.00  0.00    +0.000 A 
ATOM     22  C   UNL     1       1.628  13.822  20.784  0.00  0.00    +0.000 A 
ATOM     23  C   UNL     1       0.220  13.484  20.961  0.00  0.00    +0.000 A 
BRANCH  23  24
ATOM     24  C   UNL     1      -0.479  13.886  22.251  0.00  0.00    +0.000 C 
ATOM     25  C   UNL     1      -1.267  15.169  22.495  0.00  0.00    +0.000 C 
ATOM     26  O   UNL     1      -0.413  13.095  23.210  0.00  0.00    +0.000 OA
ENDBRANCH  23  24
BRANCH  18  28
ATOM     27  C   UNL     1      -2.371  11.816  18.963  0.00  0.00    +0.000 C 
ATOM     28  O   UNL     1      -1.738  12.550  20.010  0.00  0.00    +0.000 OA
ENDBRANCH  18  28
BRANCH  20  29
ATOM     29  O   UNL     1       2.294  12.781  17.352  0.00  0.00    +0.000 OA
ATOM     30  H   UNL     1       1.600  12.791  16.672  0.00  0.00    +0.000 HD
ENDBRANCH  20  29
BRANCH  22  31
ATOM     31  O   UNL     1       2.327  14.182  21.928  0.00  0.00    +0.000 OA
ATOM     32  H   UNL     1       1.758  14.739  22.503  0.00  0.00    +0.000 HD
ENDBRANCH  22  31
ENDBRANCH   1  21
BRANCH   5  33
ATOM     33  O   UNL     1       5.540  18.007  19.527  0.00  0.00    +0.000 OA
ATOM     34  H   UNL     1       5.598  17.668  18.611  0.00  0.00    +0.000 HD
ENDBRANCH   5  33
BRANCH  10  35
ATOM     35  O   UNL     1       8.410  13.354  23.084  0.00  0.00    +0.000 OA
ATOM     36  H   UNL     1       7.705  12.711  22.861  0.00  0.00    +0.000 HD
ENDBRANCH  10  35
TORSDOF 7
ENDMDL
MODEL 8
REMARK VINA RESULT:      -6.2      4.054      8.902
REMARK  Name = 
REMARK  10 active torsions:
REMARK  status: ('A' for Active; 'I' for Inactive)
REMARK    1  A    between atoms: C_1  and  O_2
REMARK    2  A    between atoms: O_2  and  C_3
REMARK    3  A    between atoms: C_5  and  O_6
REMARK    4  A    between atoms: C_7  and  C_8
REMARK    5  A    between atoms: C_9  and  C_10
REMARK    6  A    between atoms: C_12  and  O_13
REMARK    7  A    between atoms: C_18  and  O_19
REMARK    8  A    between atoms: C_27  and  O_28
REMARK    9  A    between atoms: C_29  and  C_30
REMARK   10  A    between atoms: C_30  and  C_31
REMARK                            x       y       z     vdW  Elec       q    Type
REMARK                         _______ _______ _______ _____ _____    ______ ____
ROOT
ATOM      1  C   UNL     1      -3.333  13.529  21.571  0.00  0.00    +0.000 C 
ATOM      2  C   UNL     1      -4.123  12.663  22.256  0.00  0.00    +0.000 C 
ATOM      3  C   UNL     1      -5.605  12.955  22.287  0.00  0.00    +0.000 C 
ATOM      4  C   UNL     1      -3.539  12.200  23.521  0.00  0.00    +0.000 C 
ATOM      5  C   UNL     1      -3.142  13.164  24.358  0.00  0.00    +0.000 C 
ATOM      6  C   UNL     1      -2.513  14.408  23.760  0.00  0.00    +0.000 C 
ATOM      7  C   UNL     1      -1.086  14.988  23.612  0.00  0.00    +0.000 C 
ATOM      8  O   UNL     1      -0.080  14.417  23.264  0.00  0.00    +0.000 OA
ATOM      9  C   UNL     1      -1.077  16.473  23.912  0.00  0.00    +0.000 A 
ATOM     10  C   UNL     1       0.068  17.132  24.338  0.00  0.00    +0.000 A 
ATOM     11  C   UNL     1      -0.029  18.180  25.273  0.00  0.00    +0.000 A 
ATOM     12  C   UNL     1      -1.297  18.523  25.759  0.00  0.00    +0.000 A 
ATOM     13  C   UNL     1      -2.454  17.985  25.157  0.00  0.00    +0.000 A 
ATOM     14  C   UNL     1      -2.330  17.041  24.115  0.00  0.00    +0.000 A 
ATOM     15  C   UNL     1      -3.492  16.372  23.339  0.00  0.00    +0.000 C 
ATOM     16  O   UNL     1      -4.630  16.764  23.563  0.00  0.00    +0.000 OA
ATOM     17  C   UNL     1      -3.100  14.975  22.385  0.00  0.00    +0.000 C 
ENDROOT
BRANCH   1  21
ATOM     18  C   UNL     1      -2.526  10.717  18.125  0.00  0.00    +0.000 A 
ATOM     19  C   UNL     1      -3.676  11.530  18.142  0.00  0.00    +0.000 A 
ATOM     20  C   UNL     1      -3.926  12.534  19.151  0.00  0.00    +0.000 A 
ATOM     21  C   UNL     1      -3.028  12.811  20.192  0.00  0.00    +0.000 A 
ATOM     22  C   UNL     1      -1.790  12.041  20.023  0.00  0.00    +0.000 A 
ATOM     23  C   UNL     1      -1.552  10.943  19.092  0.00  0.00    +0.000 A 
BRANCH  23  24
ATOM     24  C   UNL     1      -0.297  10.098  19.252  0.00  0.00    +0.000 C 
ATOM     25  C   UNL     1       0.799   9.894  18.211  0.00  0.00    +0.000 C 
ATOM     26  O   UNL     1      -0.135   9.513  20.338  0.00  0.00    +0.000 OA
ENDBRANCH  23  24
BRANCH  18  28
ATOM     27  C   UNL     1      -2.690   9.845  15.892  0.00  0.00    +0.000 C 
ATOM     28  O   UNL     1      -2.366   9.666  17.269  0.00  0.00    +0.000 OA
ENDBRANCH  18  28
BRANCH  20  29
ATOM     29  O   UNL     1      -5.109  13.216  19.071  0.00  0.00    +0.000 OA
ATOM     30  H   UNL     1      -4.932  14.069  18.640  0.00  0.00    +0.000 HD
ENDBRANCH  20  29
BRANCH  22  31
ATOM     31  O   UNL     1      -0.702  12.460  20.776  0.00  0.00    +0.000 OA
ATOM     32  H   UNL     1      -0.021  11.752  20.797  0.00  0.00    +0.000 HD
ENDBRANCH  22  31
ENDBRANCH   1  21
BRANCH   5  33
ATOM     33  O   UNL     1      -4.118  13.515  25.318  0.00  0.00    +0.000 OA
ATOM     34  H   UNL     1      -3.764  14.262  25.843  0.00  0.00    +0.000 HD
ENDBRANCH   5  33
BRANCH  10  35
ATOM     35  O   UNL     1       1.316  16.826  23.887  0.00  0.00    +0.000 OA
ATOM     36  H   UNL     1       1.267  15.941  23.469  0.00  0.00    +0.000 HD
ENDBRANCH  10  35
TORSDOF 7
ENDMDL
MODEL 9
REMARK VINA RESULT:      -6.1      4.297      7.568
REMARK  Name = 
REMARK  10 active torsions:
REMARK  status: ('A' for Active; 'I' for Inactive)
REMARK    1  A    between atoms: C_1  and  O_2
REMARK    2  A    between atoms: O_2  and  C_3
REMARK    3  A    between atoms: C_5  and  O_6
REMARK    4  A    between atoms: C_7  and  C_8
REMARK    5  A    between atoms: C_9  and  C_10
REMARK    6  A    between atoms: C_12  and  O_13
REMARK    7  A    between atoms: C_18  and  O_19
REMARK    8  A    between atoms: C_27  and  O_28
REMARK    9  A    between atoms: C_29  and  C_30
REMARK   10  A    between atoms: C_30  and  C_31
REMARK                            x       y       z     vdW  Elec       q    Type
REMARK                         _______ _______ _______ _____ _____    ______ ____
ROOT
ATOM      1  C   UNL     1       6.311  15.007  20.882  0.00  0.00    +0.000 C 
ATOM      2  C   UNL     1       6.699  16.306  20.950  0.00  0.00    +0.000 C 
ATOM      3  C   UNL     1       6.727  16.950  22.317  0.00  0.00    +0.000 C 
ATOM      4  C   UNL     1       6.172  17.142  19.864  0.00  0.00    +0.000 C 
ATOM      5  C   UNL     1       4.845  17.105  19.702  0.00  0.00    +0.000 C 
ATOM      6  C   UNL     1       4.142  15.778  19.911  0.00  0.00    +0.000 C 
ATOM      7  C   UNL     1       3.527  14.677  19.015  0.00  0.00    +0.000 C 
ATOM      8  O   UNL     1       3.995  14.173  18.021  0.00  0.00    +0.000 OA
ATOM      9  C   UNL     1       2.201  14.207  19.576  0.00  0.00    +0.000 A 
ATOM     10  C   UNL     1       1.223  13.630  18.776  0.00  0.00    +0.000 A 
ATOM     11  C   UNL     1      -0.137  13.878  19.036  0.00  0.00    +0.000 A 
ATOM     12  C   UNL     1      -0.467  14.719  20.107  0.00  0.00    +0.000 A 
ATOM     13  C   UNL     1       0.526  15.118  21.025  0.00  0.00    +0.000 A 
ATOM     14  C   UNL     1       1.868  14.731  20.820  0.00  0.00    +0.000 A 
ATOM     15  C   UNL     1       3.070  15.066  21.738  0.00  0.00    +0.000 C 
ATOM     16  O   UNL     1       2.840  15.628  22.801  0.00  0.00    +0.000 OA
ATOM     17  C   UNL     1       4.658  14.815  21.079  0.00  0.00    +0.000 C 
ENDROOT
BRANCH   1  21
ATOM     18  C   UNL     1      10.509  13.453  20.258  0.00  0.00    +0.000 A 
ATOM     19  C   UNL     1       9.883  13.363  21.517  0.00  0.00    +0.000 A 
ATOM     20  C   UNL     1       8.504  13.728  21.748  0.00  0.00    +0.000 A 
ATOM     21  C   UNL     1       7.653  14.179  20.729  0.00  0.00    +0.000 A 
ATOM     22  C   UNL     1       8.322  14.099  19.425  0.00  0.00    +0.000 A 
ATOM     23  C   UNL     1       9.737  13.849  19.172  0.00  0.00    +0.000 A 
BRANCH  23  24
ATOM     24  C   UNL     1      10.287  14.069  17.770  0.00  0.00    +0.000 C 
ATOM     25  C   UNL     1      10.861  15.367  17.214  0.00  0.00    +0.000 C 
ATOM     26  O   UNL     1      10.277  13.098  16.992  0.00  0.00    +0.000 OA
ENDBRANCH  23  24
BRANCH  18  28
ATOM     27  C   UNL     1      12.327  11.938  19.837  0.00  0.00    +0.000 C 
ATOM     28  O   UNL     1      11.847  13.260  20.073  0.00  0.00    +0.000 OA
ENDBRANCH  18  28
BRANCH  20  29
ATOM     29  O   UNL     1       8.042  13.638  23.032  0.00  0.00    +0.000 OA
ATOM     30  H   UNL     1       7.843  12.703  23.212  0.00  0.00    +0.000 HD
ENDBRANCH  20  29
BRANCH  22  31
ATOM     31  O   UNL     1       7.500  14.191  18.310  0.00  0.00    +0.000 OA
ATOM     32  H   UNL     1       6.591  14.438  18.587  0.00  0.00    +0.000 HD
ENDBRANCH  22  31
ENDBRANCH   1  21
BRANCH   5  33
ATOM     33  O   UNL     1       4.165  18.139  20.385  0.00  0.00    +0.000 OA
ATOM     34  H   UNL     1       3.206  18.015  20.232  0.00  0.00    +0.000 HD
ENDBRANCH   5  33
BRANCH  10  35
ATOM     35  O   UNL     1       1.508  12.808  17.729  0.00  0.00    +0.000 OA
ATOM     36  H   UNL     1       0.939  12.015  17.816  0.00  0.00    +0.000 HD
ENDBRANCH  10  35
TORSDOF 7
ENDMDL
