MODEL 1
REMARK VINA RESULT:      -8.3      0.000      0.000
REMARK  Name = 
REMARK  8 active torsions:
REMARK  status: ('A' for Active; 'I' for Inactive)
REMARK    1  A    between atoms: C_1  and  O_2
REMARK    2  A    between atoms: O_2  and  C_3
REMARK    3  A    between atoms: C_7  and  C_8
REMARK    4  A    between atoms: C_14  and  C_15
REMARK    5  A    between atoms: C_18  and  O_19
REMARK    6  A    between atoms: O_19  and  C_20
REMARK    7  A    between atoms: C_22  and  O_23
REMARK    8  A    between atoms: O_23  and  C_24
REMARK                            x       y       z     vdW  Elec       q    Type
REMARK                         _______ _______ _______ _____ _____    ______ ____
ROOT
ATOM      1  C   UNL     1       2.278   6.047  19.594  0.00  0.00    +0.000 C 
ATOM      2  N   UNL     1       3.310   5.561  18.964  0.00  0.00    +0.000 NA
ATOM      3  N   UNL     1       3.714   4.281  19.256  0.00  0.00    +0.000 N 
ATOM      4  C   UNL     1       3.338   3.495  20.314  0.00  0.00    +0.000 A 
ATOM      5  N   UNL     1       4.000   2.366  20.329  0.00  0.00    +0.000 NA
ATOM      6  N   UNL     1       4.876   2.410  19.267  0.00  0.00    +0.000 NA
ATOM      7  C   UNL     1       4.717   3.550  18.612  0.00  0.00    +0.000 A 
ATOM      8  S   UNL     1       2.219   4.050  21.498  0.00  0.00    +0.000 S 
ATOM      9  C   UNL     1       1.336   5.242  20.478  0.00  0.00    +0.000 C 
ENDROOT
BRANCH   1  14
ATOM     10  C   UNL     1       1.137   9.650  20.136  0.00  0.00    +0.000 A 
ATOM     11  C   UNL     1       1.412  10.192  18.879  0.00  0.00    +0.000 A 
ATOM     12  C   UNL     1       1.954   9.403  17.867  0.00  0.00    +0.000 A 
ATOM     13  C   UNL     1       2.226   8.059  18.113  0.00  0.00    +0.000 A 
ATOM     14  C   UNL     1       1.963   7.499  19.372  0.00  0.00    +0.000 A 
ATOM     15  C   UNL     1       1.415   8.301  20.382  0.00  0.00    +0.000 A 
BRANCH  10  17
ATOM     16  C   UNL     1       0.541  11.899  20.646  0.00  0.00    +0.000 C 
ATOM     17  O   UNL     1       0.589  10.530  21.027  0.00  0.00    +0.000 OA
ENDBRANCH  10  17
ENDBRANCH   1  14
BRANCH   7  18
ATOM     18  C   UNL     1       5.504   4.003  17.448  0.00  0.00    +0.000 A 
ATOM     19  C   UNL     1       4.860   4.069  16.193  0.00  0.00    +0.000 A 
ATOM     20  C   UNL     1       5.495   4.533  15.041  0.00  0.00    +0.000 A 
ATOM     21  C   UNL     1       6.805   4.978  15.101  0.00  0.00    +0.000 A 
ATOM     22  C   UNL     1       7.466   4.946  16.326  0.00  0.00    +0.000 A 
ATOM     23  C   UNL     1       6.839   4.459  17.497  0.00  0.00    +0.000 A 
BRANCH  21  24
ATOM     24  O   UNL     1       7.300   5.431  13.912  0.00  0.00    +0.000 OA
ATOM     25  C   UNL     1       7.181   4.564  12.793  0.00  0.00    +0.000 C 
ENDBRANCH  21  24
BRANCH  23  26
ATOM     26  O   UNL     1       7.640   4.628  18.598  0.00  0.00    +0.000 OA
ATOM     27  C   UNL     1       7.786   5.932  19.140  0.00  0.00    +0.000 C 
ENDBRANCH  23  26
ENDBRANCH   7  18
TORSDOF 5
ENDMDL
MODEL 2
REMARK VINA RESULT:      -7.9      0.946      1.409
REMARK  Name = 
REMARK  8 active torsions:
REMARK  status: ('A' for Active; 'I' for Inactive)
REMARK    1  A    between atoms: C_1  and  O_2
REMARK    2  A    between atoms: O_2  and  C_3
REMARK    3  A    between atoms: C_7  and  C_8
REMARK    4  A    between atoms: C_14  and  C_15
REMARK    5  A    between atoms: C_18  and  O_19
REMARK    6  A    between atoms: O_19  and  C_20
REMARK    7  A    between atoms: C_22  and  O_23
REMARK    8  A    between atoms: O_23  and  C_24
REMARK                            x       y       z     vdW  Elec       q    Type
REMARK                         _______ _______ _______ _____ _____    ______ ____
ROOT
ATOM      1  C   UNL     1       2.213   5.761  19.901  0.00  0.00    +0.000 C 
ATOM      2  N   UNL     1       3.246   5.336  19.229  0.00  0.00    +0.000 NA
ATOM      3  N   UNL     1       3.664   4.041  19.420  0.00  0.00    +0.000 N 
ATOM      4  C   UNL     1       3.302   3.173  20.418  0.00  0.00    +0.000 A 
ATOM      5  N   UNL     1       3.975   2.052  20.342  0.00  0.00    +0.000 NA
ATOM      6  N   UNL     1       4.844   2.187  19.282  0.00  0.00    +0.000 NA
ATOM      7  C   UNL     1       4.670   3.372  18.717  0.00  0.00    +0.000 A 
ATOM      8  S   UNL     1       2.185   3.623  21.646  0.00  0.00    +0.000 S 
ATOM      9  C   UNL     1       1.284   4.881  20.725  0.00  0.00    +0.000 C 
ENDROOT
BRANCH   1  14
ATOM     10  C   UNL     1       1.882   9.332  18.591  0.00  0.00    +0.000 A 
ATOM     11  C   UNL     1       1.230   9.936  19.669  0.00  0.00    +0.000 A 
ATOM     12  C   UNL     1       0.907   9.200  20.807  0.00  0.00    +0.000 A 
ATOM     13  C   UNL     1       1.236   7.847  20.869  0.00  0.00    +0.000 A 
ATOM     14  C   UNL     1       1.883   7.223  19.792  0.00  0.00    +0.000 A 
ATOM     15  C   UNL     1       2.207   7.972  18.654  0.00  0.00    +0.000 A 
BRANCH  10  17
ATOM     16  C   UNL     1       2.352  11.548  17.854  0.00  0.00    +0.000 C 
ATOM     17  O   UNL     1       2.156  10.173  17.549  0.00  0.00    +0.000 OA
ENDBRANCH  10  17
ENDBRANCH   1  14
BRANCH   7  18
ATOM     18  C   UNL     1       5.446   3.921  17.587  0.00  0.00    +0.000 A 
ATOM     19  C   UNL     1       4.825   3.982  16.320  0.00  0.00    +0.000 A 
ATOM     20  C   UNL     1       5.448   4.531  15.200  0.00  0.00    +0.000 A 
ATOM     21  C   UNL     1       6.720   5.068  15.304  0.00  0.00    +0.000 A 
ATOM     22  C   UNL     1       7.356   5.043  16.543  0.00  0.00    +0.000 A 
ATOM     23  C   UNL     1       6.742   4.471  17.683  0.00  0.00    +0.000 A 
BRANCH  21  24
ATOM     24  O   UNL     1       7.205   5.597  14.142  0.00  0.00    +0.000 OA
ATOM     25  C   UNL     1       7.274   4.729  13.021  0.00  0.00    +0.000 C 
ENDBRANCH  21  24
BRANCH  23  26
ATOM     26  O   UNL     1       7.505   4.660  18.807  0.00  0.00    +0.000 OA
ATOM     27  C   UNL     1       7.830   5.987  19.193  0.00  0.00    +0.000 C 
ENDBRANCH  23  26
ENDBRANCH   7  18
TORSDOF 5
ENDMDL
MODEL 3
REMARK VINA RESULT:      -6.9      1.859      7.123
REMARK  Name = 
REMARK  8 active torsions:
REMARK  status: ('A' for Active; 'I' for Inactive)
REMARK    1  A    between atoms: C_1  and  O_2
REMARK    2  A    between atoms: O_2  and  C_3
REMARK    3  A    between atoms: C_7  and  C_8
REMARK    4  A    between atoms: C_14  and  C_15
REMARK    5  A    between atoms: C_18  and  O_19
REMARK    6  A    between atoms: O_19  and  C_20
REMARK    7  A    between atoms: C_22  and  O_23
REMARK    8  A    between atoms: O_23  and  C_24
REMARK                            x       y       z     vdW  Elec       q    Type
REMARK                         _______ _______ _______ _____ _____    ______ ____
ROOT
ATOM      1  C   UNL     1       4.630   4.301  18.119  0.00  0.00    +0.000 C 
ATOM      2  N   UNL     1       3.803   5.257  18.437  0.00  0.00    +0.000 NA
ATOM      3  N   UNL     1       2.949   5.060  19.495  0.00  0.00    +0.000 N 
ATOM      4  C   UNL     1       2.653   3.885  20.136  0.00  0.00    +0.000 A 
ATOM      5  N   UNL     1       1.719   4.055  21.038  0.00  0.00    +0.000 NA
ATOM      6  N   UNL     1       1.349   5.380  20.974  0.00  0.00    +0.000 NA
ATOM      7  C   UNL     1       2.077   5.998  20.056  0.00  0.00    +0.000 A 
ATOM      8  S   UNL     1       3.376   2.395  19.671  0.00  0.00    +0.000 S 
ATOM      9  C   UNL     1       4.890   3.056  18.955  0.00  0.00    +0.000 C 
ENDROOT
BRANCH   1  14
ATOM     10  C   UNL     1       5.728   4.269  14.462  0.00  0.00    +0.000 A 
ATOM     11  C   UNL     1       6.987   4.863  14.573  0.00  0.00    +0.000 A 
ATOM     12  C   UNL     1       7.478   5.263  15.813  0.00  0.00    +0.000 A 
ATOM     13  C   UNL     1       6.703   5.070  16.956  0.00  0.00    +0.000 A 
ATOM     14  C   UNL     1       5.433   4.484  16.862  0.00  0.00    +0.000 A 
ATOM     15  C   UNL     1       4.950   4.081  15.610  0.00  0.00    +0.000 A 
BRANCH  10  17
ATOM     16  C   UNL     1       6.410   3.404  12.350  0.00  0.00    +0.000 C 
ATOM     17  O   UNL     1       5.380   3.907  13.191  0.00  0.00    +0.000 OA
ENDBRANCH  10  17
ENDBRANCH   1  14
BRANCH   7  18
ATOM     18  C   UNL     1       1.947   7.410  19.646  0.00  0.00    +0.000 A 
ATOM     19  C   UNL     1       2.226   7.742  18.302  0.00  0.00    +0.000 A 
ATOM     20  C   UNL     1       2.083   9.034  17.798  0.00  0.00    +0.000 A 
ATOM     21  C   UNL     1       1.629  10.054  18.617  0.00  0.00    +0.000 A 
ATOM     22  C   UNL     1       1.326   9.760  19.944  0.00  0.00    +0.000 A 
ATOM     23  C   UNL     1       1.486   8.457  20.472  0.00  0.00    +0.000 A 
BRANCH  21  24
ATOM     24  O   UNL     1       1.509  11.264  17.996  0.00  0.00    +0.000 OA
ATOM     25  C   UNL     1       0.870  12.301  18.725  0.00  0.00    +0.000 C 
ENDBRANCH  21  24
BRANCH  23  26
ATOM     26  O   UNL     1       1.022   8.382  21.761  0.00  0.00    +0.000 OA
ATOM     27  C   UNL     1      -0.292   8.842  22.039  0.00  0.00    +0.000 C 
ENDBRANCH  23  26
ENDBRANCH   7  18
TORSDOF 5
ENDMDL
MODEL 4
REMARK VINA RESULT:      -6.6      7.615     11.113
REMARK  Name = 
REMARK  8 active torsions:
REMARK  status: ('A' for Active; 'I' for Inactive)
REMARK    1  A    between atoms: C_1  and  O_2
REMARK    2  A    between atoms: O_2  and  C_3
REMARK    3  A    between atoms: C_7  and  C_8
REMARK    4  A    between atoms: C_14  and  C_15
REMARK    5  A    between atoms: C_18  and  O_19
REMARK    6  A    between atoms: O_19  and  C_20
REMARK    7  A    between atoms: C_22  and  O_23
REMARK    8  A    between atoms: O_23  and  C_24
REMARK                            x       y       z     vdW  Elec       q    Type
REMARK                         _______ _______ _______ _____ _____    ______ ____
ROOT
ATOM      1  C   UNL     1      -1.255  10.665  18.910  0.00  0.00    +0.000 C 
ATOM      2  N   UNL     1      -1.645  11.198  20.034  0.00  0.00    +0.000 NA
ATOM      3  N   UNL     1      -0.849  11.044  21.143  0.00  0.00    +0.000 N 
ATOM      4  C   UNL     1       0.206  10.186  21.316  0.00  0.00    +0.000 A 
ATOM      5  N   UNL     1       0.670  10.241  22.539  0.00  0.00    +0.000 NA
ATOM      6  N   UNL     1      -0.121  11.139  23.220  0.00  0.00    +0.000 NA
ATOM      7  C   UNL     1      -1.036  11.631  22.398  0.00  0.00    +0.000 A 
ATOM      8  S   UNL     1       0.713   9.115  20.069  0.00  0.00    +0.000 S 
ATOM      9  C   UNL     1       0.122  10.066  18.658  0.00  0.00    +0.000 C 
ENDROOT
BRANCH   1  14
ATOM     10  C   UNL     1      -4.264  11.501  16.715  0.00  0.00    +0.000 A 
ATOM     11  C   UNL     1      -3.966  10.743  15.580  0.00  0.00    +0.000 A 
ATOM     12  C   UNL     1      -2.811   9.967  15.527  0.00  0.00    +0.000 A 
ATOM     13  C   UNL     1      -1.943   9.949  16.617  0.00  0.00    +0.000 A 
ATOM     14  C   UNL     1      -2.222  10.710  17.761  0.00  0.00    +0.000 A 
ATOM     15  C   UNL     1      -3.389  11.485  17.806  0.00  0.00    +0.000 A 
BRANCH  10  17
ATOM     16  C   UNL     1      -6.357  12.048  17.714  0.00  0.00    +0.000 C 
ATOM     17  O   UNL     1      -5.437  12.199  16.640  0.00  0.00    +0.000 OA
ENDBRANCH  10  17
ENDBRANCH   1  14
BRANCH   7  18
ATOM     18  C   UNL     1      -2.109  12.581  22.756  0.00  0.00    +0.000 A 
ATOM     19  C   UNL     1      -3.162  12.119  23.576  0.00  0.00    +0.000 A 
ATOM     20  C   UNL     1      -4.195  12.946  24.016  0.00  0.00    +0.000 A 
ATOM     21  C   UNL     1      -4.206  14.287  23.673  0.00  0.00    +0.000 A 
ATOM     22  C   UNL     1      -3.173  14.783  22.881  0.00  0.00    +0.000 A 
ATOM     23  C   UNL     1      -2.130  13.949  22.412  0.00  0.00    +0.000 A 
BRANCH  21  24
ATOM     24  O   UNL     1      -5.256  14.991  24.189  0.00  0.00    +0.000 OA
ATOM     25  C   UNL     1      -6.341  15.263  23.314  0.00  0.00    +0.000 C 
ENDBRANCH  21  24
BRANCH  23  26
ATOM     26  O   UNL     1      -1.173  14.675  21.749  0.00  0.00    +0.000 OA
ATOM     27  C   UNL     1      -1.268  14.795  20.337  0.00  0.00    +0.000 C 
ENDBRANCH  23  26
ENDBRANCH   7  18
TORSDOF 5
ENDMDL
MODEL 5
REMARK VINA RESULT:      -6.6      2.069      2.555
REMARK  Name = 
REMARK  8 active torsions:
REMARK  status: ('A' for Active; 'I' for Inactive)
REMARK    1  A    between atoms: C_1  and  O_2
REMARK    2  A    between atoms: O_2  and  C_3
REMARK    3  A    between atoms: C_7  and  C_8
REMARK    4  A    between atoms: C_14  and  C_15
REMARK    5  A    between atoms: C_18  and  O_19
REMARK    6  A    between atoms: O_19  and  C_20
REMARK    7  A    between atoms: C_22  and  O_23
REMARK    8  A    between atoms: O_23  and  C_24
REMARK                            x       y       z     vdW  Elec       q    Type
REMARK                         _______ _______ _______ _____ _____    ______ ____
ROOT
ATOM      1  C   UNL     1       1.818   6.223  20.249  0.00  0.00    +0.000 C 
ATOM      2  N   UNL     1       3.060   6.105  19.874  0.00  0.00    +0.000 NA
ATOM      3  N   UNL     1       3.582   4.844  19.724  0.00  0.00    +0.000 N 
ATOM      4  C   UNL     1       3.056   3.652  20.154  0.00  0.00    +0.000 A 
ATOM      5  N   UNL     1       3.876   2.658  19.924  0.00  0.00    +0.000 NA
ATOM      6  N   UNL     1       5.005   3.203  19.354  0.00  0.00    +0.000 NA
ATOM      7  C   UNL     1       4.846   4.512  19.226  0.00  0.00    +0.000 A 
ATOM      8  S   UNL     1       1.556   3.578  20.991  0.00  0.00    +0.000 S 
ATOM      9  C   UNL     1       0.816   5.080  20.327  0.00  0.00    +0.000 C 
ENDROOT
BRANCH   1  14
ATOM     10  C   UNL     1       0.331   9.238  22.059  0.00  0.00    +0.000 A 
ATOM     11  C   UNL     1       0.443  10.210  21.062  0.00  0.00    +0.000 A 
ATOM     12  C   UNL     1       0.987   9.895  19.819  0.00  0.00    +0.000 A 
ATOM     13  C   UNL     1       1.425   8.595  19.569  0.00  0.00    +0.000 A 
ATOM     14  C   UNL     1       1.327   7.609  20.561  0.00  0.00    +0.000 A 
ATOM     15  C   UNL     1       0.776   7.936  21.807  0.00  0.00    +0.000 A 
BRANCH  10  17
ATOM     16  C   UNL     1      -1.145  10.771  23.131  0.00  0.00    +0.000 C 
ATOM     17  O   UNL     1      -0.238   9.679  23.221  0.00  0.00    +0.000 OA
ENDBRANCH  10  17
ENDBRANCH   1  14
BRANCH   7  18
ATOM     18  C   UNL     1       5.849   5.465  18.711  0.00  0.00    +0.000 A 
ATOM     19  C   UNL     1       5.507   6.251  17.589  0.00  0.00    +0.000 A 
ATOM     20  C   UNL     1       6.359   7.218  17.056  0.00  0.00    +0.000 A 
ATOM     21  C   UNL     1       7.589   7.461  17.643  0.00  0.00    +0.000 A 
ATOM     22  C   UNL     1       7.953   6.718  18.764  0.00  0.00    +0.000 A 
ATOM     23  C   UNL     1       7.105   5.720  19.302  0.00  0.00    +0.000 A 
BRANCH  21  24
ATOM     24  O   UNL     1       8.314   8.449  17.042  0.00  0.00    +0.000 OA
ATOM     25  C   UNL     1       8.503   9.648  17.780  0.00  0.00    +0.000 C 
ENDBRANCH  21  24
BRANCH  23  26
ATOM     26  O   UNL     1       7.621   5.203  20.463  0.00  0.00    +0.000 OA
ATOM     27  C   UNL     1       9.013   4.929  20.527  0.00  0.00    +0.000 C 
ENDBRANCH  23  26
ENDBRANCH   7  18
TORSDOF 5
ENDMDL
MODEL 6
REMARK VINA RESULT:      -6.4      2.034      2.625
REMARK  Name = 
REMARK  8 active torsions:
REMARK  status: ('A' for Active; 'I' for Inactive)
REMARK    1  A    between atoms: C_1  and  O_2
REMARK    2  A    between atoms: O_2  and  C_3
REMARK    3  A    between atoms: C_7  and  C_8
REMARK    4  A    between atoms: C_14  and  C_15
REMARK    5  A    between atoms: C_18  and  O_19
REMARK    6  A    between atoms: O_19  and  C_20
REMARK    7  A    between atoms: C_22  and  O_23
REMARK    8  A    between atoms: O_23  and  C_24
REMARK                            x       y       z     vdW  Elec       q    Type
REMARK                         _______ _______ _______ _____ _____    ______ ____
ROOT
ATOM      1  C   UNL     1       1.787   6.105  20.280  0.00  0.00    +0.000 C 
ATOM      2  N   UNL     1       3.031   6.007  19.906  0.00  0.00    +0.000 NA
ATOM      3  N   UNL     1       3.583   4.755  19.786  0.00  0.00    +0.000 N 
ATOM      4  C   UNL     1       3.086   3.563  20.246  0.00  0.00    +0.000 A 
ATOM      5  N   UNL     1       3.929   2.583  20.039  0.00  0.00    +0.000 NA
ATOM      6  N   UNL     1       5.044   3.140  19.454  0.00  0.00    +0.000 NA
ATOM      7  C   UNL     1       4.854   4.441  19.294  0.00  0.00    +0.000 A 
ATOM      8  S   UNL     1       1.589   3.474  21.088  0.00  0.00    +0.000 S 
ATOM      9  C   UNL     1       0.812   4.940  20.388  0.00  0.00    +0.000 C 
ENDROOT
BRANCH   1  14
ATOM     10  C   UNL     1       0.982   9.825  19.972  0.00  0.00    +0.000 A 
ATOM     11  C   UNL     1       0.255  10.023  21.148  0.00  0.00    +0.000 A 
ATOM     12  C   UNL     1       0.032   8.970  22.032  0.00  0.00    +0.000 A 
ATOM     13  C   UNL     1       0.540   7.705  21.738  0.00  0.00    +0.000 A 
ATOM     14  C   UNL     1       1.264   7.486  20.558  0.00  0.00    +0.000 A 
ATOM     15  C   UNL     1       1.486   8.553  19.677  0.00  0.00    +0.000 A 
BRANCH  10  17
ATOM     16  C   UNL     1       1.432  12.163  19.884  0.00  0.00    +0.000 C 
ATOM     17  O   UNL     1       1.142  10.946  19.207  0.00  0.00    +0.000 OA
ENDBRANCH  10  17
ENDBRANCH   1  14
BRANCH   7  18
ATOM     18  C   UNL     1       5.833   5.405  18.753  0.00  0.00    +0.000 A 
ATOM     19  C   UNL     1       5.449   6.196  17.648  0.00  0.00    +0.000 A 
ATOM     20  C   UNL     1       6.277   7.172  17.095  0.00  0.00    +0.000 A 
ATOM     21  C   UNL     1       7.524   7.419  17.643  0.00  0.00    +0.000 A 
ATOM     22  C   UNL     1       7.929   6.672  18.746  0.00  0.00    +0.000 A 
ATOM     23  C   UNL     1       7.106   5.664  19.304  0.00  0.00    +0.000 A 
BRANCH  21  24
ATOM     24  O   UNL     1       8.222   8.417  17.025  0.00  0.00    +0.000 OA
ATOM     25  C   UNL     1       8.441   9.606  17.771  0.00  0.00    +0.000 C 
ENDBRANCH  21  24
BRANCH  23  26
ATOM     26  O   UNL     1       7.662   5.143  20.444  0.00  0.00    +0.000 OA
ATOM     27  C   UNL     1       9.075   5.010  20.513  0.00  0.00    +0.000 C 
ENDBRANCH  23  26
ENDBRANCH   7  18
TORSDOF 5
ENDMDL
MODEL 7
REMARK VINA RESULT:      -6.4      7.550     11.459
REMARK  Name = 
REMARK  8 active torsions:
REMARK  status: ('A' for Active; 'I' for Inactive)
REMARK    1  A    between atoms: C_1  and  O_2
REMARK    2  A    between atoms: O_2  and  C_3
REMARK    3  A    between atoms: C_7  and  C_8
REMARK    4  A    between atoms: C_14  and  C_15
REMARK    5  A    between atoms: C_18  and  O_19
REMARK    6  A    between atoms: O_19  and  C_20
REMARK    7  A    between atoms: C_22  and  O_23
REMARK    8  A    between atoms: O_23  and  C_24
REMARK                            x       y       z     vdW  Elec       q    Type
REMARK                         _______ _______ _______ _____ _____    ______ ____
ROOT
ATOM      1  C   UNL     1      -1.415  10.929  18.968  0.00  0.00    +0.000 C 
ATOM      2  N   UNL     1      -1.837  11.451  20.085  0.00  0.00    +0.000 NA
ATOM      3  N   UNL     1      -1.067  11.298  21.212  0.00  0.00    +0.000 N 
ATOM      4  C   UNL     1      -0.009  10.448  21.406  0.00  0.00    +0.000 A 
ATOM      5  N   UNL     1       0.426  10.500  22.640  0.00  0.00    +0.000 NA
ATOM      6  N   UNL     1      -0.391  11.387  23.307  0.00  0.00    +0.000 NA
ATOM      7  C   UNL     1      -1.290  11.875  22.467  0.00  0.00    +0.000 A 
ATOM      8  S   UNL     1       0.539   9.390  20.165  0.00  0.00    +0.000 S 
ATOM      9  C   UNL     1      -0.027  10.344  18.746  0.00  0.00    +0.000 C 
ENDROOT
BRANCH   1  14
ATOM     10  C   UNL     1      -2.916  10.485  15.486  0.00  0.00    +0.000 A 
ATOM     11  C   UNL     1      -4.160  11.092  15.669  0.00  0.00    +0.000 A 
ATOM     12  C   UNL     1      -4.508  11.643  16.901  0.00  0.00    +0.000 A 
ATOM     13  C   UNL     1      -3.605  11.586  17.960  0.00  0.00    +0.000 A 
ATOM     14  C   UNL     1      -2.355  10.973  17.796  0.00  0.00    +0.000 A 
ATOM     15  C   UNL     1      -2.013  10.425  16.553  0.00  0.00    +0.000 A 
BRANCH  10  17
ATOM     16  C   UNL     1      -3.815   9.952  13.345  0.00  0.00    +0.000 C 
ATOM     17  O   UNL     1      -2.699  10.004  14.225  0.00  0.00    +0.000 OA
ENDBRANCH  10  17
ENDBRANCH   1  14
BRANCH   7  18
ATOM     18  C   UNL     1      -2.380  12.813  22.804  0.00  0.00    +0.000 A 
ATOM     19  C   UNL     1      -3.691  12.484  22.397  0.00  0.00    +0.000 A 
ATOM     20  C   UNL     1      -4.799  13.271  22.709  0.00  0.00    +0.000 A 
ATOM     21  C   UNL     1      -4.645  14.418  23.470  0.00  0.00    +0.000 A 
ATOM     22  C   UNL     1      -3.368  14.763  23.907  0.00  0.00    +0.000 A 
ATOM     23  C   UNL     1      -2.234  13.983  23.579  0.00  0.00    +0.000 A 
BRANCH  21  24
ATOM     24  O   UNL     1      -5.809  15.083  23.728  0.00  0.00    +0.000 OA
ATOM     25  C   UNL     1      -6.656  15.350  22.620  0.00  0.00    +0.000 C 
ENDBRANCH  21  24
BRANCH  23  26
ATOM     26  O   UNL     1      -1.108  14.452  24.208  0.00  0.00    +0.000 OA
ATOM     27  C   UNL     1      -1.261  15.369  25.282  0.00  0.00    +0.000 C 
ENDBRANCH  23  26
ENDBRANCH   7  18
TORSDOF 5
ENDMDL
MODEL 8
REMARK VINA RESULT:      -6.4      7.161     11.002
REMARK  Name = 
REMARK  8 active torsions:
REMARK  status: ('A' for Active; 'I' for Inactive)
REMARK    1  A    between atoms: C_1  and  O_2
REMARK    2  A    between atoms: O_2  and  C_3
REMARK    3  A    between atoms: C_7  and  C_8
REMARK    4  A    between atoms: C_14  and  C_15
REMARK    5  A    between atoms: C_18  and  O_19
REMARK    6  A    between atoms: O_19  and  C_20
REMARK    7  A    between atoms: C_22  and  O_23
REMARK    8  A    between atoms: O_23  and  C_24
REMARK                            x       y       z     vdW  Elec       q    Type
REMARK                         _______ _______ _______ _____ _____    ______ ____
ROOT
ATOM      1  C   UNL     1      -1.180  10.593  18.959  0.00  0.00    +0.000 C 
ATOM      2  N   UNL     1      -1.519  11.104  20.109  0.00  0.00    +0.000 NA
ATOM      3  N   UNL     1      -0.722  10.852  21.199  0.00  0.00    +0.000 N 
ATOM      4  C   UNL     1       0.275   9.919  21.322  0.00  0.00    +0.000 A 
ATOM      5  N   UNL     1       0.757   9.893  22.539  0.00  0.00    +0.000 NA
ATOM      6  N   UNL     1       0.036  10.813  23.267  0.00  0.00    +0.000 NA
ATOM      7  C   UNL     1      -0.854  11.398  22.480  0.00  0.00    +0.000 A 
ATOM      8  S   UNL     1       0.694   8.870  20.025  0.00  0.00    +0.000 S 
ATOM      9  C   UNL     1       0.150   9.915  18.663  0.00  0.00    +0.000 C 
ENDROOT
BRANCH   1  14
ATOM     10  C   UNL     1      -2.843  10.382  15.529  0.00  0.00    +0.000 A 
ATOM     11  C   UNL     1      -4.024  11.084  15.779  0.00  0.00    +0.000 A 
ATOM     12  C   UNL     1      -4.278  11.624  17.038  0.00  0.00    +0.000 A 
ATOM     13  C   UNL     1      -3.343  11.460  18.058  0.00  0.00    +0.000 A 
ATOM     14  C   UNL     1      -2.156  10.750  17.828  0.00  0.00    +0.000 A 
ATOM     15  C   UNL     1      -1.908  10.214  16.557  0.00  0.00    +0.000 A 
BRANCH  10  17
ATOM     16  C   UNL     1      -3.876   9.943  13.428  0.00  0.00    +0.000 C 
ATOM     17  O   UNL     1      -2.714   9.924  14.248  0.00  0.00    +0.000 OA
ENDBRANCH  10  17
ENDBRANCH   1  14
BRANCH   7  18
ATOM     18  C   UNL     1      -1.857  12.401  22.892  0.00  0.00    +0.000 A 
ATOM     19  C   UNL     1      -3.052  11.942  23.489  0.00  0.00    +0.000 A 
ATOM     20  C   UNL     1      -4.039  12.806  23.962  0.00  0.00    +0.000 A 
ATOM     21  C   UNL     1      -3.862  14.176  23.881  0.00  0.00    +0.000 A 
ATOM     22  C   UNL     1      -2.686  14.665  23.317  0.00  0.00    +0.000 A 
ATOM     23  C   UNL     1      -1.685  13.799  22.815  0.00  0.00    +0.000 A 
BRANCH  21  24
ATOM     24  O   UNL     1      -4.889  14.909  24.403  0.00  0.00    +0.000 OA
ATOM     25  C   UNL     1      -5.860  15.397  23.489  0.00  0.00    +0.000 C 
ENDBRANCH  21  24
BRANCH  23  26
ATOM     26  O   UNL     1      -0.577  14.500  22.412  0.00  0.00    +0.000 OA
ATOM     27  C   UNL     1      -0.430  14.806  21.033  0.00  0.00    +0.000 C 
ENDBRANCH  23  26
ENDBRANCH   7  18
TORSDOF 5
ENDMDL
MODEL 9
REMARK VINA RESULT:      -6.3      5.461      9.556
REMARK  Name = 
REMARK  8 active torsions:
REMARK  status: ('A' for Active; 'I' for Inactive)
REMARK    1  A    between atoms: C_1  and  O_2
REMARK    2  A    between atoms: O_2  and  C_3
REMARK    3  A    between atoms: C_7  and  C_8
REMARK    4  A    between atoms: C_14  and  C_15
REMARK    5  A    between atoms: C_18  and  O_19
REMARK    6  A    between atoms: O_19  and  C_20
REMARK    7  A    between atoms: C_22  and  O_23
REMARK    8  A    between atoms: O_23  and  C_24
REMARK                            x       y       z     vdW  Elec       q    Type
REMARK                         _______ _______ _______ _____ _____    ______ ____
ROOT
ATOM      1  C   UNL     1       0.446  10.049  20.025  0.00  0.00    +0.000 C 
ATOM      2  N   UNL     1      -0.629  10.313  19.339  0.00  0.00    +0.000 NA
ATOM      3  N   UNL     1      -1.501  11.256  19.825  0.00  0.00    +0.000 N 
ATOM      4  C   UNL     1      -1.541  11.806  21.080  0.00  0.00    +0.000 A 
ATOM      5  N   UNL     1      -2.571  12.602  21.221  0.00  0.00    +0.000 NA
ATOM      6  N   UNL     1      -3.267  12.557  20.033  0.00  0.00    +0.000 NA
ATOM      7  C   UNL     1      -2.640  11.756  19.185  0.00  0.00    +0.000 A 
ATOM      8  S   UNL     1      -0.411  11.359  22.298  0.00  0.00    +0.000 S 
ATOM      9  C   UNL     1       0.940  10.852  21.220  0.00  0.00    +0.000 C 
ENDROOT
BRANCH   1  14
ATOM     10  C   UNL     1       2.307   6.718  19.867  0.00  0.00    +0.000 A 
ATOM     11  C   UNL     1       2.878   6.809  18.596  0.00  0.00    +0.000 A 
ATOM     12  C   UNL     1       2.669   7.934  17.801  0.00  0.00    +0.000 A 
ATOM     13  C   UNL     1       1.881   8.979  18.281  0.00  0.00    +0.000 A 
ATOM     14  C   UNL     1       1.293   8.901  19.552  0.00  0.00    +0.000 A 
ATOM     15  C   UNL     1       1.512   7.767  20.344  0.00  0.00    +0.000 A 
BRANCH  10  17
ATOM     16  C   UNL     1       1.595   4.577  20.632  0.00  0.00    +0.000 C 
ATOM     17  O   UNL     1       2.609   5.570  20.545  0.00  0.00    +0.000 OA
ENDBRANCH  10  17
ENDBRANCH   1  14
BRANCH   7  18
ATOM     18  C   UNL     1      -3.094  11.398  17.826  0.00  0.00    +0.000 A 
ATOM     19  C   UNL     1      -2.207  10.679  16.995  0.00  0.00    +0.000 A 
ATOM     20  C   UNL     1      -2.555  10.245  15.716  0.00  0.00    +0.000 A 
ATOM     21  C   UNL     1      -3.823  10.493  15.218  0.00  0.00    +0.000 A 
ATOM     22  C   UNL     1      -4.731  11.183  16.018  0.00  0.00    +0.000 A 
ATOM     23  C   UNL     1      -4.384  11.646  17.309  0.00  0.00    +0.000 A 
BRANCH  21  24
ATOM     24  O   UNL     1      -4.044   9.994  13.967  0.00  0.00    +0.000 OA
ATOM     25  C   UNL     1      -2.899   9.682  13.187  0.00  0.00    +0.000 C 
ENDBRANCH  21  24
BRANCH  23  26
ATOM     26  O   UNL     1      -5.466  12.196  17.948  0.00  0.00    +0.000 OA
ATOM     27  C   UNL     1      -6.379  12.977  17.191  0.00  0.00    +0.000 C 
ENDBRANCH  23  26
ENDBRANCH   7  18
TORSDOF 5
ENDMDL
