MODEL 1
REMARK VINA RESULT:      -7.6      0.000      0.000
REMARK  Name = 
REMARK  4 active torsions:
REMARK  status: ('A' for Active; 'I' for Inactive)
REMARK    1  A    between atoms: N_1  and  S_2
REMARK    2  A    between atoms: S_2  and  C_5
REMARK    3  A    between atoms: C_8  and  N_9
REMARK    4  A    between atoms: C_10  and  C_12
REMARK                            x       y       z     vdW  Elec       q    Type
REMARK                         _______ _______ _______ _____ _____    ______ ____
ROOT
ATOM      1  N   UNL     1       2.038   7.688  20.052  0.00  0.00    +0.000 N 
ATOM      2  C   UNL     1       2.302   6.723  19.095  0.00  0.00    +0.000 C 
ATOM      3  O   UNL     1       1.963   6.782  17.914  0.00  0.00    +0.000 OA
ATOM      4  H   UNL     1       2.219   7.488  21.030  0.00  0.00    +0.000 HD
ENDROOT
BRANCH   2   5
ATOM      5  C   UNL     1       3.049   5.513  19.486  0.00  0.00    +0.000 A 
ATOM      6  C   UNL     1       2.374   4.505  20.185  0.00  0.00    +0.000 A 
ATOM      7  F   UNL     1       1.147   4.712  20.685  0.00  0.00    +0.000 F 
ATOM      8  C   UNL     1       2.961   3.259  20.378  0.00  0.00    +0.000 A 
ATOM      9  F   UNL     1       2.292   2.297  21.029  0.00  0.00    +0.000 F 
ATOM     10  C   UNL     1       4.229   3.007  19.881  0.00  0.00    +0.000 A 
ATOM     11  F   UNL     1       4.783   1.797  20.038  0.00  0.00    +0.000 F 
ATOM     12  C   UNL     1       4.921   4.013  19.215  0.00  0.00    +0.000 A 
ATOM     13  F   UNL     1       6.147   3.766  18.731  0.00  0.00    +0.000 F 
ATOM     14  C   UNL     1       4.336   5.263  19.019  0.00  0.00    +0.000 A 
ATOM     15  F   UNL     1       5.013   6.200  18.340  0.00  0.00    +0.000 F 
ENDBRANCH   2   5
BRANCH   1  19
ATOM     16  C   UNL     1       0.138  11.397  19.257  0.00  0.00    +0.000 A 
ATOM     17  C   UNL     1       1.254  11.017  18.517  0.00  0.00    +0.000 A 
ATOM     18  C   UNL     1       1.879   9.802  18.789  0.00  0.00    +0.000 A 
ATOM     19  C   UNL     1       1.401   8.936  19.783  0.00  0.00    +0.000 A 
ATOM     20  C   UNL     1       0.276   9.346  20.527  0.00  0.00    +0.000 A 
ATOM     21 CL   UNL     1      -0.383   8.332  21.766  0.00  0.00    +0.000 Cl
ATOM     22  C   UNL     1      -0.360  10.567  20.265  0.00  0.00    +0.000 A 
BRANCH  16  23
ATOM     23  S   UNL     1      -0.619  12.955  18.915  0.00  0.00    +0.000 S 
ATOM     24  O   UNL     1       0.420  13.941  18.726  0.00  0.00    +0.000 OA
ATOM     25  O   UNL     1      -1.736  13.155  19.811  0.00  0.00    +0.000 OA
BRANCH  23  26
ATOM     26  N   UNL     1      -1.310  12.690  17.409  0.00  0.00    +0.000 NA
ATOM     27  H   UNL     1      -1.750  13.555  17.088  0.00  0.00    +0.000 HD
ATOM     28  H   UNL     1      -1.959  11.904  17.462  0.00  0.00    +0.000 HD
ENDBRANCH  23  26
ENDBRANCH  16  23
ENDBRANCH   1  19
TORSDOF 4
ENDMDL
MODEL 2
REMARK VINA RESULT:      -7.5      4.710      8.000
REMARK  Name = 
REMARK  4 active torsions:
REMARK  status: ('A' for Active; 'I' for Inactive)
REMARK    1  A    between atoms: N_1  and  S_2
REMARK    2  A    between atoms: S_2  and  C_5
REMARK    3  A    between atoms: C_8  and  N_9
REMARK    4  A    between atoms: C_10  and  C_12
REMARK                            x       y       z     vdW  Elec       q    Type
REMARK                         _______ _______ _______ _____ _____    ______ ____
ROOT
ATOM      1  N   UNL     1       2.398   7.528  18.800  0.00  0.00    +0.000 N 
ATOM      2  C   UNL     1       1.909   8.772  18.442  0.00  0.00    +0.000 C 
ATOM      3  O   UNL     1       2.324   9.456  17.508  0.00  0.00    +0.000 OA
ATOM      4  H   UNL     1       2.103   7.104  19.673  0.00  0.00    +0.000 HD
ENDROOT
BRANCH   2   5
ATOM      5  C   UNL     1       0.801   9.356  19.219  0.00  0.00    +0.000 A 
ATOM      6  C   UNL     1       0.932   9.449  20.610  0.00  0.00    +0.000 A 
ATOM      7  F   UNL     1       1.932   8.827  21.253  0.00  0.00    +0.000 F 
ATOM      8  C   UNL     1       0.026  10.189  21.362  0.00  0.00    +0.000 A 
ATOM      9  F   UNL     1       0.180  10.285  22.690  0.00  0.00    +0.000 F 
ATOM     10  C   UNL     1      -1.024  10.840  20.736  0.00  0.00    +0.000 A 
ATOM     11  F   UNL     1      -1.878  11.580  21.455  0.00  0.00    +0.000 F 
ATOM     12  C   UNL     1      -1.182  10.727  19.359  0.00  0.00    +0.000 A 
ATOM     13  F   UNL     1      -2.196  11.362  18.754  0.00  0.00    +0.000 F 
ATOM     14  C   UNL     1      -0.276   9.987  18.602  0.00  0.00    +0.000 A 
ATOM     15  F   UNL     1      -0.434   9.928  17.272  0.00  0.00    +0.000 F 
ENDBRANCH   2   5
BRANCH   1  19
ATOM     16  C   UNL     1       5.392   5.419  16.659  0.00  0.00    +0.000 A 
ATOM     17  C   UNL     1       5.579   6.762  16.970  0.00  0.00    +0.000 A 
ATOM     18  C   UNL     1       4.588   7.452  17.666  0.00  0.00    +0.000 A 
ATOM     19  C   UNL     1       3.406   6.821  18.080  0.00  0.00    +0.000 A 
ATOM     20  C   UNL     1       3.234   5.463  17.745  0.00  0.00    +0.000 A 
ATOM     21 CL   UNL     1       1.809   4.606  18.227  0.00  0.00    +0.000 Cl
ATOM     22  C   UNL     1       4.223   4.758  17.044  0.00  0.00    +0.000 A 
BRANCH  16  23
ATOM     23  S   UNL     1       6.649   4.574  15.750  0.00  0.00    +0.000 S 
ATOM     24  O   UNL     1       7.316   5.525  14.891  0.00  0.00    +0.000 OA
ATOM     25  O   UNL     1       6.130   3.312  15.270  0.00  0.00    +0.000 OA
BRANCH  23  26
ATOM     26  N   UNL     1       7.743   4.165  16.955  0.00  0.00    +0.000 NA
ATOM     27  H   UNL     1       7.418   3.318  17.427  0.00  0.00    +0.000 HD
ATOM     28  H   UNL     1       7.868   4.955  17.589  0.00  0.00    +0.000 HD
ENDBRANCH  23  26
ENDBRANCH  16  23
ENDBRANCH   1  19
TORSDOF 4
ENDMDL
MODEL 3
REMARK VINA RESULT:      -7.4      2.487      2.865
REMARK  Name = 
REMARK  4 active torsions:
REMARK  status: ('A' for Active; 'I' for Inactive)
REMARK    1  A    between atoms: N_1  and  S_2
REMARK    2  A    between atoms: S_2  and  C_5
REMARK    3  A    between atoms: C_8  and  N_9
REMARK    4  A    between atoms: C_10  and  C_12
REMARK                            x       y       z     vdW  Elec       q    Type
REMARK                         _______ _______ _______ _____ _____    ______ ____
ROOT
ATOM      1  N   UNL     1       2.335   7.437  19.564  0.00  0.00    +0.000 N 
ATOM      2  C   UNL     1       2.299   6.086  19.863  0.00  0.00    +0.000 C 
ATOM      3  O   UNL     1       1.652   5.578  20.778  0.00  0.00    +0.000 OA
ATOM      4  H   UNL     1       3.012   7.785  18.894  0.00  0.00    +0.000 HD
ENDROOT
BRANCH   2   5
ATOM      5  C   UNL     1       3.086   5.149  19.040  0.00  0.00    +0.000 A 
ATOM      6  C   UNL     1       2.415   4.353  18.103  0.00  0.00    +0.000 A 
ATOM      7  F   UNL     1       1.076   4.271  18.097  0.00  0.00    +0.000 F 
ATOM      8  C   UNL     1       3.123   3.625  17.153  0.00  0.00    +0.000 A 
ATOM      9  F   UNL     1       2.463   2.886  16.249  0.00  0.00    +0.000 F 
ATOM     10  C   UNL     1       4.506   3.678  17.130  0.00  0.00    +0.000 A 
ATOM     11  F   UNL     1       5.188   3.003  16.195  0.00  0.00    +0.000 F 
ATOM     12  C   UNL     1       5.182   4.439  18.077  0.00  0.00    +0.000 A 
ATOM     13  F   UNL     1       6.522   4.493  18.050  0.00  0.00    +0.000 F 
ATOM     14  C   UNL     1       4.477   5.171  19.030  0.00  0.00    +0.000 A 
ATOM     15  F   UNL     1       5.157   5.925  19.906  0.00  0.00    +0.000 F 
ENDBRANCH   2   5
BRANCH   1  19
ATOM     16  C   UNL     1       0.018  10.394  21.534  0.00  0.00    +0.000 A 
ATOM     17  C   UNL     1       0.663   9.409  22.278  0.00  0.00    +0.000 A 
ATOM     18  C   UNL     1       1.415   8.435  21.624  0.00  0.00    +0.000 A 
ATOM     19  C   UNL     1       1.557   8.430  20.229  0.00  0.00    +0.000 A 
ATOM     20  C   UNL     1       0.887   9.430  19.496  0.00  0.00    +0.000 A 
ATOM     21 CL   UNL     1       1.017   9.501  17.771  0.00  0.00    +0.000 Cl
ATOM     22  C   UNL     1       0.125  10.414  20.141  0.00  0.00    +0.000 A 
BRANCH  16  23
ATOM     23  S   UNL     1      -0.955  11.599  22.383  0.00  0.00    +0.000 S 
ATOM     24  O   UNL     1      -0.112  12.727  22.706  0.00  0.00    +0.000 OA
ATOM     25  O   UNL     1      -1.794  10.941  23.359  0.00  0.00    +0.000 OA
BRANCH  23  26
ATOM     26  N   UNL     1      -2.007  12.115  21.181  0.00  0.00    +0.000 NA
ATOM     27  H   UNL     1      -2.305  13.071  21.386  0.00  0.00    +0.000 HD
ATOM     28  H   UNL     1      -2.786  11.460  21.101  0.00  0.00    +0.000 HD
ENDBRANCH  23  26
ENDBRANCH  16  23
ENDBRANCH   1  19
TORSDOF 4
ENDMDL
MODEL 4
REMARK VINA RESULT:      -7.4      4.779      8.199
REMARK  Name = 
REMARK  4 active torsions:
REMARK  status: ('A' for Active; 'I' for Inactive)
REMARK    1  A    between atoms: N_1  and  S_2
REMARK    2  A    between atoms: S_2  and  C_5
REMARK    3  A    between atoms: C_8  and  N_9
REMARK    4  A    between atoms: C_10  and  C_12
REMARK                            x       y       z     vdW  Elec       q    Type
REMARK                         _______ _______ _______ _____ _____    ______ ____
ROOT
ATOM      1  N   UNL     1       1.757   8.127  18.977  0.00  0.00    +0.000 N 
ATOM      2  C   UNL     1       1.404   9.339  18.409  0.00  0.00    +0.000 C 
ATOM      3  O   UNL     1       2.011   9.901  17.498  0.00  0.00    +0.000 OA
ATOM      4  H   UNL     1       1.292   7.814  19.822  0.00  0.00    +0.000 HD
ENDROOT
BRANCH   2   5
ATOM      5  C   UNL     1       0.209  10.043  18.909  0.00  0.00    +0.000 A 
ATOM      6  C   UNL     1       0.301  10.748  20.116  0.00  0.00    +0.000 A 
ATOM      7  F   UNL     1       1.370  10.614  20.915  0.00  0.00    +0.000 F 
ATOM      8  C   UNL     1      -0.716  11.607  20.516  0.00  0.00    +0.000 A 
ATOM      9  F   UNL     1      -0.600  12.292  21.663  0.00  0.00    +0.000 F 
ATOM     10  C   UNL     1      -1.838  11.769  19.722  0.00  0.00    +0.000 A 
ATOM     11  F   UNL     1      -2.804  12.621  20.090  0.00  0.00    +0.000 F 
ATOM     12  C   UNL     1      -1.955  11.048  18.539  0.00  0.00    +0.000 A 
ATOM     13  F   UNL     1      -3.040  11.208  17.768  0.00  0.00    +0.000 F 
ATOM     14  C   UNL     1      -0.938  10.186  18.133  0.00  0.00    +0.000 A 
ATOM     15  F   UNL     1      -1.062   9.533  16.968  0.00  0.00    +0.000 F 
ENDBRANCH   2   5
BRANCH   1  19
ATOM     16  C   UNL     1       4.968   5.696  17.644  0.00  0.00    +0.000 A 
ATOM     17  C   UNL     1       4.710   6.910  17.014  0.00  0.00    +0.000 A 
ATOM     18  C   UNL     1       3.648   7.700  17.450  0.00  0.00    +0.000 A 
ATOM     19  C   UNL     1       2.838   7.311  18.527  0.00  0.00    +0.000 A 
ATOM     20  C   UNL     1       3.111   6.074  19.143  0.00  0.00    +0.000 A 
ATOM     21 CL   UNL     1       2.165   5.525  20.485  0.00  0.00    +0.000 Cl
ATOM     22  C   UNL     1       4.175   5.269  18.712  0.00  0.00    +0.000 A 
BRANCH  16  23
ATOM     23  S   UNL     1       6.300   4.698  17.054  0.00  0.00    +0.000 S 
ATOM     24  O   UNL     1       5.772   3.728  16.123  0.00  0.00    +0.000 OA
ATOM     25  O   UNL     1       7.159   4.338  18.160  0.00  0.00    +0.000 OA
BRANCH  23  26
ATOM     26  N   UNL     1       7.191   5.796  16.150  0.00  0.00    +0.000 NA
ATOM     27  H   UNL     1       7.882   6.244  16.756  0.00  0.00    +0.000 HD
ATOM     28  H   UNL     1       6.562   6.461  15.699  0.00  0.00    +0.000 HD
ENDBRANCH  23  26
ENDBRANCH  16  23
ENDBRANCH   1  19
TORSDOF 4
ENDMDL
MODEL 5
REMARK VINA RESULT:      -7.4      5.008      8.512
REMARK  Name = 
REMARK  4 active torsions:
REMARK  status: ('A' for Active; 'I' for Inactive)
REMARK    1  A    between atoms: N_1  and  S_2
REMARK    2  A    between atoms: S_2  and  C_5
REMARK    3  A    between atoms: C_8  and  N_9
REMARK    4  A    between atoms: C_10  and  C_12
REMARK                            x       y       z     vdW  Elec       q    Type
REMARK                         _______ _______ _______ _____ _____    ______ ____
ROOT
ATOM      1  N   UNL     1       1.013   8.124  20.393  0.00  0.00    +0.000 N 
ATOM      2  C   UNL     1       1.262   8.981  21.452  0.00  0.00    +0.000 C 
ATOM      3  O   UNL     1       2.153   8.837  22.288  0.00  0.00    +0.000 OA
ATOM      4  H   UNL     1       0.167   8.234  19.846  0.00  0.00    +0.000 HD
ENDROOT
BRANCH   2   5
ATOM      5  C   UNL     1       0.411  10.172  21.624  0.00  0.00    +0.000 A 
ATOM      6  C   UNL     1       0.378  11.127  20.600  0.00  0.00    +0.000 A 
ATOM      7  F   UNL     1       1.257  11.085  19.587  0.00  0.00    +0.000 F 
ATOM      8  C   UNL     1      -0.568  12.146  20.607  0.00  0.00    +0.000 A 
ATOM      9  F   UNL     1      -0.599  13.037  19.607  0.00  0.00    +0.000 F 
ATOM     10  C   UNL     1      -1.489  12.227  21.639  0.00  0.00    +0.000 A 
ATOM     11  F   UNL     1      -2.422  13.188  21.630  0.00  0.00    +0.000 F 
ATOM     12  C   UNL     1      -1.444  11.303  22.677  0.00  0.00    +0.000 A 
ATOM     13  F   UNL     1      -2.339  11.380  23.672  0.00  0.00    +0.000 F 
ATOM     14  C   UNL     1      -0.497  10.281  22.673  0.00  0.00    +0.000 A 
ATOM     15  F   UNL     1      -0.504   9.383  23.669  0.00  0.00    +0.000 F 
ENDBRANCH   2   5
BRANCH   1  19
ATOM     16  C   UNL     1       3.399   4.751  19.429  0.00  0.00    +0.000 A 
ATOM     17  C   UNL     1       2.554   4.709  20.535  0.00  0.00    +0.000 A 
ATOM     18  C   UNL     1       1.780   5.824  20.852  0.00  0.00    +0.000 A 
ATOM     19  C   UNL     1       1.814   6.988  20.071  0.00  0.00    +0.000 A 
ATOM     20  C   UNL     1       2.684   7.012  18.963  0.00  0.00    +0.000 A 
ATOM     21 CL   UNL     1       2.781   8.406  17.942  0.00  0.00    +0.000 Cl
ATOM     22  C   UNL     1       3.470   5.898  18.635  0.00  0.00    +0.000 A 
BRANCH  16  23
ATOM     23  S   UNL     1       4.392   3.337  19.065  0.00  0.00    +0.000 S 
ATOM     24  O   UNL     1       3.908   2.734  17.845  0.00  0.00    +0.000 OA
ATOM     25  O   UNL     1       4.618   2.582  20.278  0.00  0.00    +0.000 OA
BRANCH  23  26
ATOM     26  N   UNL     1       5.876   4.032  18.701  0.00  0.00    +0.000 NA
ATOM     27  H   UNL     1       5.950   4.148  17.689  0.00  0.00    +0.000 HD
ATOM     28  H   UNL     1       6.628   3.466  19.097  0.00  0.00    +0.000 HD
ENDBRANCH  23  26
ENDBRANCH  16  23
ENDBRANCH   1  19
TORSDOF 4
ENDMDL
MODEL 6
REMARK VINA RESULT:      -7.4      5.057      8.592
REMARK  Name = 
REMARK  4 active torsions:
REMARK  status: ('A' for Active; 'I' for Inactive)
REMARK    1  A    between atoms: N_1  and  S_2
REMARK    2  A    between atoms: S_2  and  C_5
REMARK    3  A    between atoms: C_8  and  N_9
REMARK    4  A    between atoms: C_10  and  C_12
REMARK                            x       y       z     vdW  Elec       q    Type
REMARK                         _______ _______ _______ _____ _____    ______ ____
ROOT
ATOM      1  N   UNL     1       0.840   8.575  20.484  0.00  0.00    +0.000 N 
ATOM      2  C   UNL     1       1.081   9.392  21.575  0.00  0.00    +0.000 C 
ATOM      3  O   UNL     1       1.962   9.215  22.415  0.00  0.00    +0.000 OA
ATOM      4  H   UNL     1      -0.000   8.709  19.932  0.00  0.00    +0.000 HD
ENDROOT
BRANCH   2   5
ATOM      5  C   UNL     1       0.234  10.581  21.780  0.00  0.00    +0.000 A 
ATOM      6  C   UNL     1       0.312  11.628  20.853  0.00  0.00    +0.000 A 
ATOM      7  F   UNL     1       1.282  11.661  19.926  0.00  0.00    +0.000 F 
ATOM      8  C   UNL     1      -0.617  12.663  20.869  0.00  0.00    +0.000 A 
ATOM      9  F   UNL     1      -0.540  13.645  19.960  0.00  0.00    +0.000 F 
ATOM     10  C   UNL     1      -1.629  12.669  21.814  0.00  0.00    +0.000 A 
ATOM     11  F   UNL     1      -2.544  13.648  21.811  0.00  0.00    +0.000 F 
ATOM     12  C   UNL     1      -1.696  11.651  22.759  0.00  0.00    +0.000 A 
ATOM     13  F   UNL     1      -2.680  11.656  23.670  0.00  0.00    +0.000 F 
ATOM     14  C   UNL     1      -0.767  10.612  22.746  0.00  0.00    +0.000 A 
ATOM     15  F   UNL     1      -0.880   9.626  23.647  0.00  0.00    +0.000 F 
ENDBRANCH   2   5
BRANCH   1  19
ATOM     16  C   UNL     1       3.217   5.224  19.427  0.00  0.00    +0.000 A 
ATOM     17  C   UNL     1       2.427   5.179  20.572  0.00  0.00    +0.000 A 
ATOM     18  C   UNL     1       1.656   6.287  20.920  0.00  0.00    +0.000 A 
ATOM     19  C   UNL     1       1.638   7.447  20.131  0.00  0.00    +0.000 A 
ATOM     20  C   UNL     1       2.453   7.473  18.982  0.00  0.00    +0.000 A 
ATOM     21 CL   UNL     1       2.483   8.862  17.949  0.00  0.00    +0.000 Cl
ATOM     22  C   UNL     1       3.236   6.366  18.623  0.00  0.00    +0.000 A 
BRANCH  16  23
ATOM     23  S   UNL     1       4.210   3.820  19.024  0.00  0.00    +0.000 S 
ATOM     24  O   UNL     1       5.591   4.135  19.309  0.00  0.00    +0.000 OA
ATOM     25  O   UNL     1       3.775   3.269  17.760  0.00  0.00    +0.000 OA
BRANCH  23  26
ATOM     26  N   UNL     1       3.725   2.701  20.177  0.00  0.00    +0.000 NA
ATOM     27  H   UNL     1       4.490   2.044  20.346  0.00  0.00    +0.000 HD
ATOM     28  H   UNL     1       2.864   2.245  19.873  0.00  0.00    +0.000 HD
ENDBRANCH  23  26
ENDBRANCH  16  23
ENDBRANCH   1  19
TORSDOF 4
ENDMDL
MODEL 7
REMARK VINA RESULT:      -7.4      4.930      8.210
REMARK  Name = 
REMARK  4 active torsions:
REMARK  status: ('A' for Active; 'I' for Inactive)
REMARK    1  A    between atoms: N_1  and  S_2
REMARK    2  A    between atoms: S_2  and  C_5
REMARK    3  A    between atoms: C_8  and  N_9
REMARK    4  A    between atoms: C_10  and  C_12
REMARK                            x       y       z     vdW  Elec       q    Type
REMARK                         _______ _______ _______ _____ _____    ______ ____
ROOT
ATOM      1  N   UNL     1       1.472   8.556  19.051  0.00  0.00    +0.000 N 
ATOM      2  C   UNL     1       1.321   9.743  18.354  0.00  0.00    +0.000 C 
ATOM      3  O   UNL     1       2.053  10.131  17.444  0.00  0.00    +0.000 OA
ATOM      4  H   UNL     1       0.918   8.389  19.883  0.00  0.00    +0.000 HD
ENDROOT
BRANCH   2   5
ATOM      5  C   UNL     1       0.204  10.640  18.701  0.00  0.00    +0.000 A 
ATOM      6  C   UNL     1      -1.047  10.412  18.115  0.00  0.00    +0.000 A 
ATOM      7  F   UNL     1      -1.187   9.548  17.098  0.00  0.00    +0.000 F 
ATOM      8  C   UNL     1      -2.179  11.078  18.572  0.00  0.00    +0.000 A 
ATOM      9  F   UNL     1      -3.372  10.831  18.014  0.00  0.00    +0.000 F 
ATOM     10  C   UNL     1      -2.074  11.982  19.616  0.00  0.00    +0.000 A 
ATOM     11  F   UNL     1      -3.169  12.601  20.080  0.00  0.00    +0.000 F 
ATOM     12  C   UNL     1      -0.832  12.240  20.183  0.00  0.00    +0.000 A 
ATOM     13  F   UNL     1      -0.733  13.112  21.197  0.00  0.00    +0.000 F 
ATOM     14  C   UNL     1       0.305  11.575  19.728  0.00  0.00    +0.000 A 
ATOM     15  F   UNL     1       1.483  11.816  20.320  0.00  0.00    +0.000 F 
ENDBRANCH   2   5
BRANCH   1  19
ATOM     16  C   UNL     1       4.400   5.613  18.176  0.00  0.00    +0.000 A 
ATOM     17  C   UNL     1       4.309   6.756  17.387  0.00  0.00    +0.000 A 
ATOM     18  C   UNL     1       3.339   7.715  17.673  0.00  0.00    +0.000 A 
ATOM     19  C   UNL     1       2.457   7.568  18.755  0.00  0.00    +0.000 A 
ATOM     20  C   UNL     1       2.561   6.398  19.534  0.00  0.00    +0.000 A 
ATOM     21 CL   UNL     1       1.517   6.143  20.891  0.00  0.00    +0.000 Cl
ATOM     22  C   UNL     1       3.531   5.425  19.254  0.00  0.00    +0.000 A 
BRANCH  16  23
ATOM     23  S   UNL     1       5.616   4.398  17.775  0.00  0.00    +0.000 S 
ATOM     24  O   UNL     1       6.926   4.973  17.977  0.00  0.00    +0.000 OA
ATOM     25  O   UNL     1       5.236   3.720  16.555  0.00  0.00    +0.000 OA
BRANCH  23  26
ATOM     26  N   UNL     1       5.397   3.262  18.992  0.00  0.00    +0.000 NA
ATOM     27  H   UNL     1       5.347   2.331  18.573  0.00  0.00    +0.000 HD
ATOM     28  H   UNL     1       4.571   3.501  19.540  0.00  0.00    +0.000 HD
ENDBRANCH  23  26
ENDBRANCH  16  23
ENDBRANCH   1  19
TORSDOF 4
ENDMDL
MODEL 8
REMARK VINA RESULT:      -7.3      5.005      8.333
REMARK  Name = 
REMARK  4 active torsions:
REMARK  status: ('A' for Active; 'I' for Inactive)
REMARK    1  A    between atoms: N_1  and  S_2
REMARK    2  A    between atoms: S_2  and  C_5
REMARK    3  A    between atoms: C_8  and  N_9
REMARK    4  A    between atoms: C_10  and  C_12
REMARK                            x       y       z     vdW  Elec       q    Type
REMARK                         _______ _______ _______ _____ _____    ______ ____
ROOT
ATOM      1  N   UNL     1       1.014   8.297  20.263  0.00  0.00    +0.000 N 
ATOM      2  C   UNL     1       1.183   9.090  21.386  0.00  0.00    +0.000 C 
ATOM      3  O   UNL     1       1.964   8.859  22.308  0.00  0.00    +0.000 OA
ATOM      4  H   UNL     1       0.243   8.480  19.631  0.00  0.00    +0.000 HD
ENDROOT
BRANCH   2   5
ATOM      5  C   UNL     1       0.379  10.318  21.522  0.00  0.00    +0.000 A 
ATOM      6  C   UNL     1      -0.637  10.351  22.485  0.00  0.00    +0.000 A 
ATOM      7  F   UNL     1      -1.027   9.235  23.118  0.00  0.00    +0.000 F 
ATOM      8  C   UNL     1      -1.270  11.547  22.810  0.00  0.00    +0.000 A 
ATOM      9  F   UNL     1      -2.225  11.564  23.751  0.00  0.00    +0.000 F 
ATOM     10  C   UNL     1      -0.900  12.720  22.174  0.00  0.00    +0.000 A 
ATOM     11  F   UNL     1      -1.485  13.878  22.509  0.00  0.00    +0.000 F 
ATOM     12  C   UNL     1       0.085  12.692  21.194  0.00  0.00    +0.000 A 
ATOM     13  F   UNL     1       0.445  13.829  20.582  0.00  0.00    +0.000 F 
ATOM     14  C   UNL     1       0.722  11.496  20.865  0.00  0.00    +0.000 A 
ATOM     15  F   UNL     1       1.694  11.508  19.942  0.00  0.00    +0.000 F 
ENDBRANCH   2   5
BRANCH   1  19
ATOM     16  C   UNL     1       3.319   4.842  19.399  0.00  0.00    +0.000 A 
ATOM     17  C   UNL     1       2.467   4.849  20.500  0.00  0.00    +0.000 A 
ATOM     18  C   UNL     1       1.720   5.991  20.785  0.00  0.00    +0.000 A 
ATOM     19  C   UNL     1       1.788   7.134  19.975  0.00  0.00    +0.000 A 
ATOM     20  C   UNL     1       2.665   7.108  18.872  0.00  0.00    +0.000 A 
ATOM     21 CL   UNL     1       2.802   8.474  17.817  0.00  0.00    +0.000 Cl
ATOM     22  C   UNL     1       3.424   5.967  18.577  0.00  0.00    +0.000 A 
BRANCH  16  23
ATOM     23  S   UNL     1       4.279   3.396  19.077  0.00  0.00    +0.000 S 
ATOM     24  O   UNL     1       3.949   2.907  17.758  0.00  0.00    +0.000 OA
ATOM     25  O   UNL     1       4.283   2.549  20.249  0.00  0.00    +0.000 OA
BRANCH  23  26
ATOM     26  N   UNL     1       5.836   4.017  18.984  0.00  0.00    +0.000 NA
ATOM     27  H   UNL     1       6.341   3.538  18.235  0.00  0.00    +0.000 HD
ATOM     28  H   UNL     1       6.293   3.938  19.892  0.00  0.00    +0.000 HD
ENDBRANCH  23  26
ENDBRANCH  16  23
ENDBRANCH   1  19
TORSDOF 4
ENDMDL
MODEL 9
REMARK VINA RESULT:      -7.2      2.294      2.595
REMARK  Name = 
REMARK  4 active torsions:
REMARK  status: ('A' for Active; 'I' for Inactive)
REMARK    1  A    between atoms: N_1  and  S_2
REMARK    2  A    between atoms: S_2  and  C_5
REMARK    3  A    between atoms: C_8  and  N_9
REMARK    4  A    between atoms: C_10  and  C_12
REMARK                            x       y       z     vdW  Elec       q    Type
REMARK                         _______ _______ _______ _____ _____    ______ ____
ROOT
ATOM      1  N   UNL     1       2.184   7.219  20.382  0.00  0.00    +0.000 N 
ATOM      2  C   UNL     1       1.626   5.953  20.336  0.00  0.00    +0.000 C 
ATOM      3  O   UNL     1       0.463   5.677  20.627  0.00  0.00    +0.000 OA
ATOM      4  H   UNL     1       3.186   7.331  20.274  0.00  0.00    +0.000 HD
ENDROOT
BRANCH   2   5
ATOM      5  C   UNL     1       2.463   4.818  19.907  0.00  0.00    +0.000 A 
ATOM      6  C   UNL     1       2.800   3.839  20.850  0.00  0.00    +0.000 A 
ATOM      7  F   UNL     1       2.564   4.027  22.157  0.00  0.00    +0.000 F 
ATOM      8  C   UNL     1       3.390   2.643  20.453  0.00  0.00    +0.000 A 
ATOM      9  F   UNL     1       3.685   1.707  21.367  0.00  0.00    +0.000 F 
ATOM     10  C   UNL     1       3.655   2.413  19.114  0.00  0.00    +0.000 A 
ATOM     11  F   UNL     1       4.194   1.249  18.727  0.00  0.00    +0.000 F 
ATOM     12  C   UNL     1       3.355   3.393  18.174  0.00  0.00    +0.000 A 
ATOM     13  F   UNL     1       3.608   3.167  16.877  0.00  0.00    +0.000 F 
ATOM     14  C   UNL     1       2.764   4.592  18.566  0.00  0.00    +0.000 A 
ATOM     15  F   UNL     1       2.451   5.501  17.632  0.00  0.00    +0.000 F 
ENDBRANCH   2   5
BRANCH   1  19
ATOM     16  C   UNL     1       0.029  10.753  21.313  0.00  0.00    +0.000 A 
ATOM     17  C   UNL     1       0.388   9.872  22.329  0.00  0.00    +0.000 A 
ATOM     18  C   UNL     1       1.087   8.708  22.016  0.00  0.00    +0.000 A 
ATOM     19  C   UNL     1       1.459   8.407  20.698  0.00  0.00    +0.000 A 
ATOM     20  C   UNL     1       1.077   9.308  19.684  0.00  0.00    +0.000 A 
ATOM     21 CL   UNL     1       1.504   9.016  18.032  0.00  0.00    +0.000 Cl
ATOM     22  C   UNL     1       0.371  10.481  19.986  0.00  0.00    +0.000 A 
BRANCH  16  23
ATOM     23  S   UNL     1      -0.883  12.206  21.730  0.00  0.00    +0.000 S 
ATOM     24  O   UNL     1      -1.843  12.465  20.682  0.00  0.00    +0.000 OA
ATOM     25  O   UNL     1       0.022  13.216  22.232  0.00  0.00    +0.000 OA
BRANCH  23  26
ATOM     26  N   UNL     1      -1.760  11.701  23.070  0.00  0.00    +0.000 NA
ATOM     27  H   UNL     1      -1.132  11.215  23.714  0.00  0.00    +0.000 HD
ATOM     28  H   UNL     1      -2.548  11.128  22.769  0.00  0.00    +0.000 HD
ENDBRANCH  23  26
ENDBRANCH  16  23
ENDBRANCH   1  19
TORSDOF 4
ENDMDL
