MODEL 1
REMARK VINA RESULT:      -8.0      0.000      0.000
REMARK  Name = 
REMARK  6 active torsions:
REMARK  status: ('A' for Active; 'I' for Inactive)
REMARK    1  A    between atoms: C_1  and  C_2
REMARK    2  A    between atoms: C_2  and  C_3
REMARK    3  A    between atoms: C_4  and  C_5
REMARK    4  A    between atoms: N_7  and  N_8
REMARK    5  A    between atoms: N_11  and  C_12
REMARK    6  A    between atoms: C_23  and  C_24
REMARK                            x       y       z     vdW  Elec       q    Type
REMARK                         _______ _______ _______ _____ _____    ______ ____
ROOT
ATOM      1  N   UNL     1       8.675   7.728  19.029  0.00  0.00    +0.000 N 
ATOM      2  C   UNL     1       8.645   9.070  18.683  0.00  0.00    +0.000 C 
ATOM      3  O   UNL     1       7.876   9.453  17.800  0.00  0.00    +0.000 OA
ATOM      4  N   UNL     1       9.569   9.842  19.352  0.00  0.00    +0.000 N 
ATOM      5  H   UNL     1       8.872   7.453  19.987  0.00  0.00    +0.000 HD
ATOM      6  H   UNL     1      10.310   9.336  19.819  0.00  0.00    +0.000 HD
ENDROOT
BRANCH   4   7
ATOM      7  C   UNL     1       9.784  11.225  19.116  0.00  0.00    +0.000 A 
ATOM      8  C   UNL     1       9.108  12.235  19.835  0.00  0.00    +0.000 A 
ATOM      9  C   UNL     1       9.252  13.588  19.508  0.00  0.00    +0.000 A 
ATOM     10  C   UNL     1      10.083  13.904  18.461  0.00  0.00    +0.000 A 
ATOM     11  C   UNL     1      10.785  12.936  17.784  0.00  0.00    +0.000 A 
ATOM     12  C   UNL     1      10.678  11.593  18.099  0.00  0.00    +0.000 A 
ATOM     13  O   UNL     1      11.541  13.462  16.780  0.00  0.00    +0.000 OA
ATOM     14  C   UNL     1      11.154  14.852  16.848  0.00  0.00    +0.000 C 
ATOM     15  O   UNL     1      10.302  15.152  17.971  0.00  0.00    +0.000 OA
ENDBRANCH   4   7
BRANCH   1  18
ATOM     16  C   UNL     1       7.170   5.796  18.916  0.00  0.00    +0.000 C 
ATOM     17  O   UNL     1       7.434   5.428  20.055  0.00  0.00    +0.000 OA
ATOM     18  N   UNL     1       7.688   6.956  18.369  0.00  0.00    +0.000 N 
ATOM     19  H   UNL     1       7.631   7.139  17.367  0.00  0.00    +0.000 HD
BRANCH  16  21
ATOM     20  C   UNL     1       4.892   4.663  18.229  0.00  0.00    +0.000 A 
ATOM     21  C   UNL     1       6.279   5.055  17.997  0.00  0.00    +0.000 A 
ATOM     22  C   UNL     1       6.680   4.647  16.733  0.00  0.00    +0.000 A 
ATOM     23  S   UNL     1       5.489   3.789  15.876  0.00  0.00    +0.000 S 
ATOM     24  C   UNL     1       4.370   3.957  17.149  0.00  0.00    +0.000 A 
ATOM     25  C   UNL     1       3.006   3.358  16.998  0.00  0.00    +0.000 C 
BRANCH  20  27
ATOM     26  C   UNL     1       3.197   6.161  19.339  0.00  0.00    +0.000 C 
ATOM     27  C   UNL     1       4.098   4.943  19.482  0.00  0.00    +0.000 C 
ENDBRANCH  20  27
ENDBRANCH  16  21
ENDBRANCH   1  18
TORSDOF 4
ENDMDL
MODEL 2
REMARK VINA RESULT:      -7.8      6.651      9.286
REMARK  Name = 
REMARK  6 active torsions:
REMARK  status: ('A' for Active; 'I' for Inactive)
REMARK    1  A    between atoms: C_1  and  C_2
REMARK    2  A    between atoms: C_2  and  C_3
REMARK    3  A    between atoms: C_4  and  C_5
REMARK    4  A    between atoms: N_7  and  N_8
REMARK    5  A    between atoms: N_11  and  C_12
REMARK    6  A    between atoms: C_23  and  C_24
REMARK                            x       y       z     vdW  Elec       q    Type
REMARK                         _______ _______ _______ _____ _____    ______ ____
ROOT
ATOM      1  N   UNL     1       1.833   7.281  21.052  0.00  0.00    +0.000 N 
ATOM      2  C   UNL     1       2.335   7.015  19.787  0.00  0.00    +0.000 C 
ATOM      3  O   UNL     1       1.929   7.666  18.823  0.00  0.00    +0.000 OA
ATOM      4  N   UNL     1       3.220   5.961  19.747  0.00  0.00    +0.000 N 
ATOM      5  H   UNL     1       2.426   7.167  21.870  0.00  0.00    +0.000 HD
ATOM      6  H   UNL     1       3.222   5.356  20.557  0.00  0.00    +0.000 HD
ENDROOT
BRANCH   4   7
ATOM      7  C   UNL     1       3.807   5.449  18.560  0.00  0.00    +0.000 A 
ATOM      8  C   UNL     1       3.389   4.239  17.964  0.00  0.00    +0.000 A 
ATOM      9  C   UNL     1       4.058   3.698  16.860  0.00  0.00    +0.000 A 
ATOM     10  C   UNL     1       5.137   4.389  16.368  0.00  0.00    +0.000 A 
ATOM     11  C   UNL     1       5.525   5.593  16.908  0.00  0.00    +0.000 A 
ATOM     12  C   UNL     1       4.870   6.161  17.985  0.00  0.00    +0.000 A 
ATOM     13  O   UNL     1       6.619   6.105  16.278  0.00  0.00    +0.000 OA
ATOM     14  C   UNL     1       6.925   5.038  15.353  0.00  0.00    +0.000 C 
ATOM     15  O   UNL     1       5.934   3.992  15.342  0.00  0.00    +0.000 OA
ENDBRANCH   4   7
BRANCH   1  18
ATOM     16  C   UNL     1       1.091   9.406  22.024  0.00  0.00    +0.000 C 
ATOM     17  O   UNL     1       2.038   9.468  22.800  0.00  0.00    +0.000 OA
ATOM     18  N   UNL     1       0.962   8.397  21.087  0.00  0.00    +0.000 N 
ATOM     19  H   UNL     1       0.081   8.241  20.598  0.00  0.00    +0.000 HD
BRANCH  16  21
ATOM     20  C   UNL     1      -0.441  11.210  20.866  0.00  0.00    +0.000 A 
ATOM     21  C   UNL     1      -0.014  10.389  21.993  0.00  0.00    +0.000 A 
ATOM     22  C   UNL     1      -0.826  10.634  23.092  0.00  0.00    +0.000 A 
ATOM     23  S   UNL     1      -2.008  11.824  22.821  0.00  0.00    +0.000 S 
ATOM     24  C   UNL     1      -1.507  12.038  21.207  0.00  0.00    +0.000 A 
ATOM     25  C   UNL     1      -2.216  13.044  20.356  0.00  0.00    +0.000 C 
BRANCH  20  27
ATOM     26  C   UNL     1      -0.543  10.299  18.518  0.00  0.00    +0.000 C 
ATOM     27  C   UNL     1       0.186  11.212  19.493  0.00  0.00    +0.000 C 
ENDBRANCH  20  27
ENDBRANCH  16  21
ENDBRANCH   1  18
TORSDOF 4
ENDMDL
MODEL 3
REMARK VINA RESULT:      -7.8      0.695      1.468
REMARK  Name = 
REMARK  6 active torsions:
REMARK  status: ('A' for Active; 'I' for Inactive)
REMARK    1  A    between atoms: C_1  and  C_2
REMARK    2  A    between atoms: C_2  and  C_3
REMARK    3  A    between atoms: C_4  and  C_5
REMARK    4  A    between atoms: N_7  and  N_8
REMARK    5  A    between atoms: N_11  and  C_12
REMARK    6  A    between atoms: C_23  and  C_24
REMARK                            x       y       z     vdW  Elec       q    Type
REMARK                         _______ _______ _______ _____ _____    ______ ____
ROOT
ATOM      1  N   UNL     1       8.620   7.807  18.967  0.00  0.00    +0.000 N 
ATOM      2  C   UNL     1       8.612   9.119  18.518  0.00  0.00    +0.000 C 
ATOM      3  O   UNL     1       7.872   9.438  17.587  0.00  0.00    +0.000 OA
ATOM      4  N   UNL     1       9.524   9.933  19.152  0.00  0.00    +0.000 N 
ATOM      5  H   UNL     1       8.787   7.606  19.949  0.00  0.00    +0.000 HD
ATOM      6  H   UNL     1      10.247   9.460  19.678  0.00  0.00    +0.000 HD
ENDROOT
BRANCH   4   7
ATOM      7  C   UNL     1       9.760  11.293  18.816  0.00  0.00    +0.000 A 
ATOM      8  C   UNL     1      10.562  11.678  17.720  0.00  0.00    +0.000 A 
ATOM      9  C   UNL     1      10.871  13.021  17.476  0.00  0.00    +0.000 A 
ATOM     10  C   UNL     1      10.361  13.959  18.341  0.00  0.00    +0.000 A 
ATOM     11  C   UNL     1       9.539  13.601  19.383  0.00  0.00    +0.000 A 
ATOM     12  C   UNL     1       9.200  12.284  19.635  0.00  0.00    +0.000 A 
ATOM     13  O   UNL     1       9.152  14.680  20.120  0.00  0.00    +0.000 OA
ATOM     14  C   UNL     1       9.904  15.732  19.477  0.00  0.00    +0.000 C 
ATOM     15  O   UNL     1      10.598  15.295  18.292  0.00  0.00    +0.000 OA
ENDBRANCH   4   7
BRANCH   1  18
ATOM     16  C   UNL     1       7.200   5.810  18.900  0.00  0.00    +0.000 C 
ATOM     17  O   UNL     1       7.522   5.451  20.028  0.00  0.00    +0.000 OA
ATOM     18  N   UNL     1       7.645   6.994  18.340  0.00  0.00    +0.000 N 
ATOM     19  H   UNL     1       7.542   7.177  17.343  0.00  0.00    +0.000 HD
BRANCH  16  21
ATOM     20  C   UNL     1       4.928   4.635  18.266  0.00  0.00    +0.000 A 
ATOM     21  C   UNL     1       6.309   5.032  18.012  0.00  0.00    +0.000 A 
ATOM     22  C   UNL     1       6.705   4.589  16.758  0.00  0.00    +0.000 A 
ATOM     23  S   UNL     1       5.518   3.694  15.937  0.00  0.00    +0.000 S 
ATOM     24  C   UNL     1       4.405   3.891  17.212  0.00  0.00    +0.000 A 
ATOM     25  C   UNL     1       3.046   3.276  17.090  0.00  0.00    +0.000 C 
BRANCH  20  27
ATOM     26  C   UNL     1       3.235   6.158  19.345  0.00  0.00    +0.000 C 
ATOM     27  C   UNL     1       4.140   4.947  19.515  0.00  0.00    +0.000 C 
ENDBRANCH  20  27
ENDBRANCH  16  21
ENDBRANCH   1  18
TORSDOF 4
ENDMDL
MODEL 4
REMARK VINA RESULT:      -7.5      6.820      9.447
REMARK  Name = 
REMARK  6 active torsions:
REMARK  status: ('A' for Active; 'I' for Inactive)
REMARK    1  A    between atoms: C_1  and  C_2
REMARK    2  A    between atoms: C_2  and  C_3
REMARK    3  A    between atoms: C_4  and  C_5
REMARK    4  A    between atoms: N_7  and  N_8
REMARK    5  A    between atoms: N_11  and  C_12
REMARK    6  A    between atoms: C_23  and  C_24
REMARK                            x       y       z     vdW  Elec       q    Type
REMARK                         _______ _______ _______ _____ _____    ______ ____
ROOT
ATOM      1  N   UNL     1       1.795   7.385  21.145  0.00  0.00    +0.000 N 
ATOM      2  C   UNL     1       2.412   7.116  19.932  0.00  0.00    +0.000 C 
ATOM      3  O   UNL     1       2.383   7.959  19.035  0.00  0.00    +0.000 OA
ATOM      4  N   UNL     1       2.952   5.851  19.848  0.00  0.00    +0.000 N 
ATOM      5  H   UNL     1       2.180   7.009  22.007  0.00  0.00    +0.000 HD
ATOM      6  H   UNL     1       2.640   5.192  20.549  0.00  0.00    +0.000 HD
ENDROOT
BRANCH   4   7
ATOM      7  C   UNL     1       3.565   5.314  18.686  0.00  0.00    +0.000 A 
ATOM      8  C   UNL     1       2.984   4.270  17.932  0.00  0.00    +0.000 A 
ATOM      9  C   UNL     1       3.660   3.681  16.858  0.00  0.00    +0.000 A 
ATOM     10  C   UNL     1       4.911   4.157  16.554  0.00  0.00    +0.000 A 
ATOM     11  C   UNL     1       5.468   5.205  17.248  0.00  0.00    +0.000 A 
ATOM     12  C   UNL     1       4.814   5.820  18.301  0.00  0.00    +0.000 A 
ATOM     13  O   UNL     1       6.714   5.515  16.792  0.00  0.00    +0.000 OA
ATOM     14  C   UNL     1       6.907   4.479  15.804  0.00  0.00    +0.000 C 
ATOM     15  O   UNL     1       5.731   3.674  15.585  0.00  0.00    +0.000 OA
ENDBRANCH   4   7
BRANCH   1  18
ATOM     16  C   UNL     1      -0.046   8.966  21.492  0.00  0.00    +0.000 C 
ATOM     17  O   UNL     1      -0.847   8.085  21.784  0.00  0.00    +0.000 OA
ATOM     18  N   UNL     1       1.287   8.704  21.234  0.00  0.00    +0.000 N 
ATOM     19  H   UNL     1       1.887   9.402  20.795  0.00  0.00    +0.000 HD
BRANCH  16  21
ATOM     20  C   UNL     1      -0.463  11.204  20.165  0.00  0.00    +0.000 A 
ATOM     21  C   UNL     1      -0.402  10.397  21.379  0.00  0.00    +0.000 A 
ATOM     22  C   UNL     1      -0.759  11.168  22.477  0.00  0.00    +0.000 A 
ATOM     23  S   UNL     1      -1.098  12.789  22.099  0.00  0.00    +0.000 S 
ATOM     24  C   UNL     1      -0.816  12.523  20.441  0.00  0.00    +0.000 A 
ATOM     25  C   UNL     1      -0.960  13.668  19.488  0.00  0.00    +0.000 C 
BRANCH  20  27
ATOM     26  C   UNL     1      -1.401  10.225  18.042  0.00  0.00    +0.000 C 
ATOM     27  C   UNL     1      -0.159  10.716  18.770  0.00  0.00    +0.000 C 
ENDBRANCH  20  27
ENDBRANCH  16  21
ENDBRANCH   1  18
TORSDOF 4
ENDMDL
MODEL 5
REMARK VINA RESULT:      -7.4      3.133      9.358
REMARK  Name = 
REMARK  6 active torsions:
REMARK  status: ('A' for Active; 'I' for Inactive)
REMARK    1  A    between atoms: C_1  and  C_2
REMARK    2  A    between atoms: C_2  and  C_3
REMARK    3  A    between atoms: C_4  and  C_5
REMARK    4  A    between atoms: N_7  and  N_8
REMARK    5  A    between atoms: N_11  and  C_12
REMARK    6  A    between atoms: C_23  and  C_24
REMARK                            x       y       z     vdW  Elec       q    Type
REMARK                         _______ _______ _______ _____ _____    ______ ____
ROOT
ATOM      1  N   UNL     1       9.350   9.673  19.173  0.00  0.00    +0.000 N 
ATOM      2  C   UNL     1       8.463   8.881  18.459  0.00  0.00    +0.000 C 
ATOM      3  O   UNL     1       7.732   9.398  17.614  0.00  0.00    +0.000 OA
ATOM      4  N   UNL     1       8.458   7.559  18.846  0.00  0.00    +0.000 N 
ATOM      5  H   UNL     1      10.244   9.295  19.472  0.00  0.00    +0.000 HD
ATOM      6  H   UNL     1       8.895   7.359  19.735  0.00  0.00    +0.000 HD
ENDROOT
BRANCH   4   7
ATOM      7  C   UNL     1       7.585   6.571  18.320  0.00  0.00    +0.000 A 
ATOM      8  C   UNL     1       7.248   6.502  16.950  0.00  0.00    +0.000 A 
ATOM      9  C   UNL     1       6.299   5.591  16.475  0.00  0.00    +0.000 A 
ATOM     10  C   UNL     1       5.705   4.755  17.389  0.00  0.00    +0.000 A 
ATOM     11  C   UNL     1       6.059   4.778  18.717  0.00  0.00    +0.000 A 
ATOM     12  C   UNL     1       7.009   5.654  19.211  0.00  0.00    +0.000 A 
ATOM     13  O   UNL     1       5.346   3.877  19.451  0.00  0.00    +0.000 OA
ATOM     14  C   UNL     1       4.443   3.364  18.446  0.00  0.00    +0.000 C 
ATOM     15  O   UNL     1       4.730   3.850  17.120  0.00  0.00    +0.000 OA
ENDBRANCH   4   7
BRANCH   1  18
ATOM     16  C   UNL     1       9.343  12.085  19.614  0.00  0.00    +0.000 C 
ATOM     17  O   UNL     1       9.412  11.940  20.829  0.00  0.00    +0.000 OA
ATOM     18  N   UNL     1       9.379  11.019  18.733  0.00  0.00    +0.000 N 
ATOM     19  H   UNL     1       9.114  11.134  17.755  0.00  0.00    +0.000 HD
BRANCH  16  21
ATOM     20  C   UNL     1      10.275  14.196  18.341  0.00  0.00    +0.000 A 
ATOM     21  C   UNL     1       9.214  13.400  18.949  0.00  0.00    +0.000 A 
ATOM     22  C   UNL     1       7.995  14.046  18.800  0.00  0.00    +0.000 A 
ATOM     23  S   UNL     1       8.105  15.555  18.027  0.00  0.00    +0.000 S 
ATOM     24  C   UNL     1       9.788  15.394  17.824  0.00  0.00    +0.000 A 
ATOM     25  C   UNL     1      10.546  16.495  17.151  0.00  0.00    +0.000 C 
BRANCH  20  27
ATOM     26  C   UNL     1      12.114  13.146  16.976  0.00  0.00    +0.000 C 
ATOM     27  C   UNL     1      11.736  13.818  18.287  0.00  0.00    +0.000 C 
ENDBRANCH  20  27
ENDBRANCH  16  21
ENDBRANCH   1  18
TORSDOF 4
ENDMDL
MODEL 6
REMARK VINA RESULT:      -7.3      6.574      8.417
REMARK  Name = 
REMARK  6 active torsions:
REMARK  status: ('A' for Active; 'I' for Inactive)
REMARK    1  A    between atoms: C_1  and  C_2
REMARK    2  A    between atoms: C_2  and  C_3
REMARK    3  A    between atoms: C_4  and  C_5
REMARK    4  A    between atoms: N_7  and  N_8
REMARK    5  A    between atoms: N_11  and  C_12
REMARK    6  A    between atoms: C_23  and  C_24
REMARK                            x       y       z     vdW  Elec       q    Type
REMARK                         _______ _______ _______ _____ _____    ______ ____
ROOT
ATOM      1  N   UNL     1       1.836   6.652  20.953  0.00  0.00    +0.000 N 
ATOM      2  C   UNL     1       1.344   7.935  20.768  0.00  0.00    +0.000 C 
ATOM      3  O   UNL     1       1.813   8.643  19.876  0.00  0.00    +0.000 OA
ATOM      4  N   UNL     1       0.392   8.307  21.690  0.00  0.00    +0.000 N 
ATOM      5  H   UNL     1       1.220   5.912  21.278  0.00  0.00    +0.000 HD
ATOM      6  H   UNL     1       0.332   7.731  22.519  0.00  0.00    +0.000 HD
ENDROOT
BRANCH   4   7
ATOM      7  C   UNL     1      -0.203   9.595  21.758  0.00  0.00    +0.000 A 
ATOM      8  C   UNL     1      -0.590  10.193  22.977  0.00  0.00    +0.000 A 
ATOM      9  C   UNL     1      -1.277  11.412  23.009  0.00  0.00    +0.000 A 
ATOM     10  C   UNL     1      -1.558  12.015  21.809  0.00  0.00    +0.000 A 
ATOM     11  C   UNL     1      -1.145  11.469  20.617  0.00  0.00    +0.000 A 
ATOM     12  C   UNL     1      -0.447  10.276  20.557  0.00  0.00    +0.000 A 
ATOM     13  O   UNL     1      -1.534  12.221  19.549  0.00  0.00    +0.000 OA
ATOM     14  C   UNL     1      -2.318  13.241  20.206  0.00  0.00    +0.000 C 
ATOM     15  O   UNL     1      -2.259  13.167  21.644  0.00  0.00    +0.000 OA
ENDBRANCH   4   7
BRANCH   1  18
ATOM     16  C   UNL     1       3.307   4.988  19.914  0.00  0.00    +0.000 C 
ATOM     17  O   UNL     1       2.904   4.076  20.627  0.00  0.00    +0.000 OA
ATOM     18  N   UNL     1       2.779   6.265  19.970  0.00  0.00    +0.000 N 
ATOM     19  H   UNL     1       3.255   7.053  19.531  0.00  0.00    +0.000 HD
BRANCH  16  21
ATOM     20  C   UNL     1       4.313   4.220  17.604  0.00  0.00    +0.000 A 
ATOM     21  C   UNL     1       4.394   4.839  18.922  0.00  0.00    +0.000 A 
ATOM     22  C   UNL     1       5.677   5.319  19.141  0.00  0.00    +0.000 A 
ATOM     23  S   UNL     1       6.757   5.004  17.868  0.00  0.00    +0.000 S 
ATOM     24  C   UNL     1       5.543   4.240  16.950  0.00  0.00    +0.000 A 
ATOM     25  C   UNL     1       5.891   3.688  15.603  0.00  0.00    +0.000 C 
BRANCH  20  27
ATOM     26  C   UNL     1       2.770   2.228  17.586  0.00  0.00    +0.000 C 
ATOM     27  C   UNL     1       3.078   3.597  16.999  0.00  0.00    +0.000 C 
ENDBRANCH  20  27
ENDBRANCH  16  21
ENDBRANCH   1  18
TORSDOF 4
ENDMDL
MODEL 7
REMARK VINA RESULT:      -7.2      6.566      9.440
REMARK  Name = 
REMARK  6 active torsions:
REMARK  status: ('A' for Active; 'I' for Inactive)
REMARK    1  A    between atoms: C_1  and  C_2
REMARK    2  A    between atoms: C_2  and  C_3
REMARK    3  A    between atoms: C_4  and  C_5
REMARK    4  A    between atoms: N_7  and  N_8
REMARK    5  A    between atoms: N_11  and  C_12
REMARK    6  A    between atoms: C_23  and  C_24
REMARK                            x       y       z     vdW  Elec       q    Type
REMARK                         _______ _______ _______ _____ _____    ______ ____
ROOT
ATOM      1  N   UNL     1       1.949   7.949  20.176  0.00  0.00    +0.000 N 
ATOM      2  C   UNL     1       2.490   7.454  18.999  0.00  0.00    +0.000 C 
ATOM      3  O   UNL     1       2.176   7.964  17.923  0.00  0.00    +0.000 OA
ATOM      4  N   UNL     1       3.302   6.355  19.176  0.00  0.00    +0.000 N 
ATOM      5  H   UNL     1       2.494   7.934  21.033  0.00  0.00    +0.000 HD
ATOM      6  H   UNL     1       3.225   5.890  20.070  0.00  0.00    +0.000 HD
ENDROOT
BRANCH   4   7
ATOM      7  C   UNL     1       3.907   5.623  18.120  0.00  0.00    +0.000 A 
ATOM      8  C   UNL     1       3.556   4.289  17.818  0.00  0.00    +0.000 A 
ATOM      9  C   UNL     1       4.244   3.553  16.848  0.00  0.00    +0.000 A 
ATOM     10  C   UNL     1       5.277   4.175  16.190  0.00  0.00    +0.000 A 
ATOM     11  C   UNL     1       5.598   5.489  16.440  0.00  0.00    +0.000 A 
ATOM     12  C   UNL     1       4.920   6.247  17.378  0.00  0.00    +0.000 A 
ATOM     13  O   UNL     1       6.654   5.907  15.687  0.00  0.00    +0.000 OA
ATOM     14  C   UNL     1       7.013   4.679  15.017  0.00  0.00    +0.000 C 
ATOM     15  O   UNL     1       6.086   3.603  15.262  0.00  0.00    +0.000 OA
ENDBRANCH   4   7
BRANCH   1  18
ATOM     16  C   UNL     1      -0.039   9.302  20.652  0.00  0.00    +0.000 C 
ATOM     17  O   UNL     1      -0.428   8.553  21.541  0.00  0.00    +0.000 OA
ATOM     18  N   UNL     1       1.156   9.107  19.984  0.00  0.00    +0.000 N 
ATOM     19  H   UNL     1       1.365   9.605  19.119  0.00  0.00    +0.000 HD
BRANCH  16  21
ATOM     20  C   UNL     1      -1.135  11.679  20.958  0.00  0.00    +0.000 A 
ATOM     21  C   UNL     1      -0.791  10.488  20.188  0.00  0.00    +0.000 A 
ATOM     22  C   UNL     1      -1.258  10.616  18.887  0.00  0.00    +0.000 A 
ATOM     23  S   UNL     1      -2.115  12.055  18.601  0.00  0.00    +0.000 S 
ATOM     24  C   UNL     1      -1.867  12.588  20.200  0.00  0.00    +0.000 A 
ATOM     25  C   UNL     1      -2.433  13.909  20.619  0.00  0.00    +0.000 C 
BRANCH  20  27
ATOM     26  C   UNL     1      -1.904  11.510  23.352  0.00  0.00    +0.000 C 
ATOM     27  C   UNL     1      -0.784  11.919  22.406  0.00  0.00    +0.000 C 
ENDBRANCH  20  27
ENDBRANCH  16  21
ENDBRANCH   1  18
TORSDOF 4
ENDMDL
MODEL 8
REMARK VINA RESULT:      -7.2      6.536      8.400
REMARK  Name = 
REMARK  6 active torsions:
REMARK  status: ('A' for Active; 'I' for Inactive)
REMARK    1  A    between atoms: C_1  and  C_2
REMARK    2  A    between atoms: C_2  and  C_3
REMARK    3  A    between atoms: C_4  and  C_5
REMARK    4  A    between atoms: N_7  and  N_8
REMARK    5  A    between atoms: N_11  and  C_12
REMARK    6  A    between atoms: C_23  and  C_24
REMARK                            x       y       z     vdW  Elec       q    Type
REMARK                         _______ _______ _______ _____ _____    ______ ____
ROOT
ATOM      1  N   UNL     1       1.988   6.921  20.908  0.00  0.00    +0.000 N 
ATOM      2  C   UNL     1       1.391   8.126  20.568  0.00  0.00    +0.000 C 
ATOM      3  O   UNL     1       1.761   8.723  19.557  0.00  0.00    +0.000 OA
ATOM      4  N   UNL     1       0.457   8.565  21.481  0.00  0.00    +0.000 N 
ATOM      5  H   UNL     1       1.447   6.197  21.372  0.00  0.00    +0.000 HD
ATOM      6  H   UNL     1       0.482   8.116  22.387  0.00  0.00    +0.000 HD
ENDROOT
BRANCH   4   7
ATOM      7  C   UNL     1      -0.231   9.804  21.396  0.00  0.00    +0.000 A 
ATOM      8  C   UNL     1      -0.707  10.328  20.173  0.00  0.00    +0.000 A 
ATOM      9  C   UNL     1      -1.281  11.602  20.098  0.00  0.00    +0.000 A 
ATOM     10  C   UNL     1      -1.373  12.328  21.260  0.00  0.00    +0.000 A 
ATOM     11  C   UNL     1      -0.959  11.811  22.464  0.00  0.00    +0.000 A 
ATOM     12  C   UNL     1      -0.407  10.547  22.572  0.00  0.00    +0.000 A 
ATOM     13  O   UNL     1      -1.131  12.696  23.486  0.00  0.00    +0.000 OA
ATOM     14  C   UNL     1      -1.607  13.854  22.765  0.00  0.00    +0.000 C 
ATOM     15  O   UNL     1      -1.850  13.595  21.368  0.00  0.00    +0.000 OA
ENDBRANCH   4   7
BRANCH   1  18
ATOM     16  C   UNL     1       3.344   5.146  19.898  0.00  0.00    +0.000 C 
ATOM     17  O   UNL     1       2.868   4.272  20.614  0.00  0.00    +0.000 OA
ATOM     18  N   UNL     1       2.910   6.459  19.938  0.00  0.00    +0.000 N 
ATOM     19  H   UNL     1       3.446   7.206  19.498  0.00  0.00    +0.000 HD
BRANCH  16  21
ATOM     20  C   UNL     1       4.313   4.292  17.601  0.00  0.00    +0.000 A 
ATOM     21  C   UNL     1       4.426   4.909  18.918  0.00  0.00    +0.000 A 
ATOM     22  C   UNL     1       5.740   5.292  19.149  0.00  0.00    +0.000 A 
ATOM     23  S   UNL     1       6.806   4.889  17.889  0.00  0.00    +0.000 S 
ATOM     24  C   UNL     1       5.547   4.215  16.961  0.00  0.00    +0.000 A 
ATOM     25  C   UNL     1       5.866   3.631  15.620  0.00  0.00    +0.000 C 
BRANCH  20  27
ATOM     26  C   UNL     1       2.634   2.413  17.560  0.00  0.00    +0.000 C 
ATOM     27  C   UNL     1       3.040   3.762  16.987  0.00  0.00    +0.000 C 
ENDBRANCH  20  27
ENDBRANCH  16  21
ENDBRANCH   1  18
TORSDOF 4
ENDMDL
MODEL 9
REMARK VINA RESULT:      -7.2      6.596      8.956
REMARK  Name = 
REMARK  6 active torsions:
REMARK  status: ('A' for Active; 'I' for Inactive)
REMARK    1  A    between atoms: C_1  and  C_2
REMARK    2  A    between atoms: C_2  and  C_3
REMARK    3  A    between atoms: C_4  and  C_5
REMARK    4  A    between atoms: N_7  and  N_8
REMARK    5  A    between atoms: N_11  and  C_12
REMARK    6  A    between atoms: C_23  and  C_24
REMARK                            x       y       z     vdW  Elec       q    Type
REMARK                         _______ _______ _______ _____ _____    ______ ____
ROOT
ATOM      1  N   UNL     1       1.812   6.840  20.850  0.00  0.00    +0.000 N 
ATOM      2  C   UNL     1       2.775   6.749  19.856  0.00  0.00    +0.000 C 
ATOM      3  O   UNL     1       2.807   7.594  18.961  0.00  0.00    +0.000 OA
ATOM      4  N   UNL     1       3.578   5.634  19.957  0.00  0.00    +0.000 N 
ATOM      5  H   UNL     1       2.022   6.529  21.794  0.00  0.00    +0.000 HD
ATOM      6  H   UNL     1       3.240   4.901  20.566  0.00  0.00    +0.000 HD
ENDROOT
BRANCH   4   7
ATOM      7  C   UNL     1       4.582   5.279  19.018  0.00  0.00    +0.000 A 
ATOM      8  C   UNL     1       5.962   5.405  19.294  0.00  0.00    +0.000 A 
ATOM      9  C   UNL     1       6.929   5.156  18.314  0.00  0.00    +0.000 A 
ATOM     10  C   UNL     1       6.492   4.776  17.069  0.00  0.00    +0.000 A 
ATOM     11  C   UNL     1       5.155   4.602  16.801  0.00  0.00    +0.000 A 
ATOM     12  C   UNL     1       4.178   4.821  17.756  0.00  0.00    +0.000 A 
ATOM     13  O   UNL     1       4.938   4.233  15.508  0.00  0.00    +0.000 OA
ATOM     14  C   UNL     1       6.281   4.293  14.979  0.00  0.00    +0.000 C 
ATOM     15  O   UNL     1       7.280   4.546  15.987  0.00  0.00    +0.000 OA
ENDBRANCH   4   7
BRANCH   1  18
ATOM     16  C   UNL     1       1.124   9.041  21.685  0.00  0.00    +0.000 C 
ATOM     17  O   UNL     1       1.981   9.059  22.562  0.00  0.00    +0.000 OA
ATOM     18  N   UNL     1       1.026   8.015  20.762  0.00  0.00    +0.000 N 
ATOM     19  H   UNL     1       0.195   7.907  20.180  0.00  0.00    +0.000 HD
BRANCH  16  21
ATOM     20  C   UNL     1      -0.360  10.683  20.256  0.00  0.00    +0.000 A 
ATOM     21  C   UNL     1       0.104  10.097  21.509  0.00  0.00    +0.000 A 
ATOM     22  C   UNL     1      -0.580  10.661  22.577  0.00  0.00    +0.000 A 
ATOM     23  S   UNL     1      -1.682  11.872  22.125  0.00  0.00    +0.000 S 
ATOM     24  C   UNL     1      -1.319  11.669  20.474  0.00  0.00    +0.000 A 
ATOM     25  C   UNL     1      -2.021  12.525  19.467  0.00  0.00    +0.000 C 
BRANCH  20  27
ATOM     26  C   UNL     1       1.457  10.983  18.537  0.00  0.00    +0.000 C 
ATOM     27  C   UNL     1       0.134  10.316  18.878  0.00  0.00    +0.000 C 
ENDBRANCH  20  27
ENDBRANCH  16  21
ENDBRANCH   1  18
TORSDOF 4
ENDMDL
