MODEL 1
REMARK VINA RESULT:      -8.1      0.000      0.000
REMARK  Name = 
REMARK  7 active torsions:
REMARK  status: ('A' for Active; 'I' for Inactive)
REMARK    1  A    between atoms: C_1  and  O_2
REMARK    2  A    between atoms: O_2  and  N_3
REMARK    3  A    between atoms: N_7  and  C_8
REMARK    4  A    between atoms: C_17  and  C_18
REMARK    5  A    between atoms: C_18  and  O_20
REMARK    6  A    between atoms: N_22  and  C_23
REMARK    7  A    between atoms: C_27  and  N_28
REMARK                            x       y       z     vdW  Elec       q    Type
REMARK                         _______ _______ _______ _____ _____    ______ ____
ROOT
ATOM      1  C   UNL     1       1.198   8.714  19.409  0.00  0.00    +0.000 A 
ATOM      2  N   UNL     1       1.605   7.553  19.991  0.00  0.00    +0.000 NA
ATOM      3  C   UNL     1       2.584   6.810  19.400  0.00  0.00    +0.000 A 
ATOM      4  C   UNL     1       3.204   7.248  18.224  0.00  0.00    +0.000 A 
ATOM      5  C   UNL     1       2.799   8.427  17.619  0.00  0.00    +0.000 A 
ATOM      6  C   UNL     1       1.785   9.149  18.213  0.00  0.00    +0.000 A 
ATOM      7  F   UNL     1       1.439  10.312  17.644  0.00  0.00    +0.000 F 
ATOM      8  C   UNL     1       4.272   6.453  17.597  0.00  0.00    +0.000 A 
ATOM      9  O   UNL     1       4.847   6.851  16.586  0.00  0.00    +0.000 OA
ATOM     10  C   UNL     1       4.624   5.152  18.188  0.00  0.00    +0.000 A 
ATOM     11  C   UNL     1       3.963   4.798  19.301  0.00  0.00    +0.000 A 
ATOM     12  N   UNL     1       3.008   5.561  19.961  0.00  0.00    +0.000 N 
ENDROOT
BRANCH   1  17
ATOM     13  N   UNL     1      -1.766  12.349  22.063  0.00  0.00    +0.000 NA
ATOM     14  C   UNL     1      -0.884  11.575  21.499  0.00  0.00    +0.000 C 
ATOM     15  C   UNL     1      -0.084  10.492  22.210  0.00  0.00    +0.000 C 
ATOM     16  C   UNL     1      -0.174   9.194  21.410  0.00  0.00    +0.000 C 
ATOM     17  N   UNL     1       0.245   9.487  20.045  0.00  0.00    +0.000 N 
ATOM     18  C   UNL     1      -0.595  10.440  19.306  0.00  0.00    +0.000 C 
ATOM     19  C   UNL     1      -0.577  11.810  20.013  0.00  0.00    +0.000 C 
BRANCH  19  20
ATOM     20  N   UNL     1       0.719  12.505  19.892  0.00  0.00    +0.000 NA
ATOM     21  H   UNL     1       0.926  12.650  18.903  0.00  0.00    +0.000 HD
ATOM     22  H   UNL     1       1.458  11.925  20.284  0.00  0.00    +0.000 HD
ENDBRANCH  19  20
BRANCH  13  24
ATOM     23  C   UNL     1      -3.275  12.319  23.785  0.00  0.00    +0.000 C 
ATOM     24  O   UNL     1      -1.927  12.046  23.419  0.00  0.00    +0.000 OA
ENDBRANCH  13  24
ENDBRANCH   1  17
BRANCH  12  25
ATOM     25  C   UNL     1       2.113   4.863  20.909  0.00  0.00    +0.000 C 
ATOM     26  C   UNL     1       1.099   3.836  20.466  0.00  0.00    +0.000 C 
ATOM     27  C   UNL     1       2.287   3.414  21.274  0.00  0.00    +0.000 C 
ENDBRANCH  12  25
BRANCH  10  28
ATOM     28  C   UNL     1       5.624   4.239  17.590  0.00  0.00    +0.000 C 
ATOM     29  O   UNL     1       5.460   3.682  16.520  0.00  0.00    +0.000 OA
BRANCH  28  30
ATOM     30  O   UNL     1       6.743   4.076  18.326  0.00  0.00    +0.000 OA
ATOM     31  H   UNL     1       6.657   4.342  19.275  0.00  0.00    +0.000 HD
ENDBRANCH  28  30
ENDBRANCH  10  28
TORSDOF 6
ENDMDL
MODEL 2
REMARK VINA RESULT:      -7.7      1.089      1.693
REMARK  Name = 
REMARK  7 active torsions:
REMARK  status: ('A' for Active; 'I' for Inactive)
REMARK    1  A    between atoms: C_1  and  O_2
REMARK    2  A    between atoms: O_2  and  N_3
REMARK    3  A    between atoms: N_7  and  C_8
REMARK    4  A    between atoms: C_17  and  C_18
REMARK    5  A    between atoms: C_18  and  O_20
REMARK    6  A    between atoms: N_22  and  C_23
REMARK    7  A    between atoms: C_27  and  N_28
REMARK                            x       y       z     vdW  Elec       q    Type
REMARK                         _______ _______ _______ _____ _____    ______ ____
ROOT
ATOM      1  C   UNL     1       1.737   8.621  19.744  0.00  0.00    +0.000 A 
ATOM      2  N   UNL     1       1.950   7.372  20.240  0.00  0.00    +0.000 NA
ATOM      3  C   UNL     1       2.640   6.459  19.496  0.00  0.00    +0.000 A 
ATOM      4  C   UNL     1       3.166   6.806  18.247  0.00  0.00    +0.000 A 
ATOM      5  C   UNL     1       2.955   8.074  17.728  0.00  0.00    +0.000 A 
ATOM      6  C   UNL     1       2.228   8.973  18.480  0.00  0.00    +0.000 A 
ATOM      7  F   UNL     1       2.076  10.211  17.988  0.00  0.00    +0.000 F 
ATOM      8  C   UNL     1       3.924   5.827  17.452  0.00  0.00    +0.000 A 
ATOM      9  O   UNL     1       4.421   6.136  16.372  0.00  0.00    +0.000 OA
ATOM     10  C   UNL     1       4.053   4.453  17.963  0.00  0.00    +0.000 A 
ATOM     11  C   UNL     1       3.497   4.200  19.158  0.00  0.00    +0.000 A 
ATOM     12  N   UNL     1       2.846   5.121  19.967  0.00  0.00    +0.000 N 
ENDROOT
BRANCH   1  17
ATOM     13  N   UNL     1      -1.535  11.596  22.825  0.00  0.00    +0.000 NA
ATOM     14  C   UNL     1      -0.916  10.759  22.043  0.00  0.00    +0.000 C 
ATOM     15  C   UNL     1      -1.009  10.745  20.523  0.00  0.00    +0.000 C 
ATOM     16  C   UNL     1       0.400  10.693  19.934  0.00  0.00    +0.000 C 
ATOM     17  N   UNL     1       1.086   9.554  20.530  0.00  0.00    +0.000 N 
ATOM     18  C   UNL     1       1.291   9.616  21.984  0.00  0.00    +0.000 C 
ATOM     19  C   UNL     1      -0.072   9.660  22.703  0.00  0.00    +0.000 C 
BRANCH  19  20
ATOM     20  N   UNL     1      -0.804   8.380  22.630  0.00  0.00    +0.000 NA
ATOM     21  H   UNL     1      -1.782   8.570  22.409  0.00  0.00    +0.000 HD
ATOM     22  H   UNL     1      -0.772   7.913  23.535  0.00  0.00    +0.000 HD
ENDBRANCH  19  20
BRANCH  13  24
ATOM     23  C   UNL     1      -3.558  12.663  22.720  0.00  0.00    +0.000 C 
ATOM     24  O   UNL     1      -2.287  12.524  22.095  0.00  0.00    +0.000 OA
ENDBRANCH  13  24
ENDBRANCH   1  17
BRANCH  12  25
ATOM     25  C   UNL     1       1.963   4.594  21.029  0.00  0.00    +0.000 C 
ATOM     26  C   UNL     1       0.968   3.485  20.785  0.00  0.00    +0.000 C 
ATOM     27  C   UNL     1       2.163   3.240  21.654  0.00  0.00    +0.000 C 
ENDBRANCH  12  25
BRANCH  10  28
ATOM     28  C   UNL     1       4.723   3.370  17.206  0.00  0.00    +0.000 C 
ATOM     29  O   UNL     1       4.270   2.244  17.115  0.00  0.00    +0.000 OA
BRANCH  28  30
ATOM     30  O   UNL     1       5.879   3.735  16.614  0.00  0.00    +0.000 OA
ATOM     31  H   UNL     1       6.201   4.639  16.855  0.00  0.00    +0.000 HD
ENDBRANCH  28  30
ENDBRANCH  10  28
TORSDOF 6
ENDMDL
MODEL 3
REMARK VINA RESULT:      -7.5      2.109      8.511
REMARK  Name = 
REMARK  7 active torsions:
REMARK  status: ('A' for Active; 'I' for Inactive)
REMARK    1  A    between atoms: C_1  and  O_2
REMARK    2  A    between atoms: O_2  and  N_3
REMARK    3  A    between atoms: N_7  and  C_8
REMARK    4  A    between atoms: C_17  and  C_18
REMARK    5  A    between atoms: C_18  and  O_20
REMARK    6  A    between atoms: N_22  and  C_23
REMARK    7  A    between atoms: C_27  and  N_28
REMARK                            x       y       z     vdW  Elec       q    Type
REMARK                         _______ _______ _______ _____ _____    ______ ____
ROOT
ATOM      1  C   UNL     1       1.842   7.747  19.384  0.00  0.00    +0.000 A 
ATOM      2  N   UNL     1       1.281   8.951  19.088  0.00  0.00    +0.000 NA
ATOM      3  C   UNL     1       0.659   9.665  20.071  0.00  0.00    +0.000 A 
ATOM      4  C   UNL     1       0.627   9.192  21.387  0.00  0.00    +0.000 A 
ATOM      5  C   UNL     1       1.193   7.967  21.703  0.00  0.00    +0.000 A 
ATOM      6  C   UNL     1       1.789   7.245  20.691  0.00  0.00    +0.000 A 
ATOM      7  F   UNL     1       2.377   6.086  21.022  0.00  0.00    +0.000 F 
ATOM      8  C   UNL     1      -0.030   9.970  22.450  0.00  0.00    +0.000 A 
ATOM      9  O   UNL     1      -0.028   9.580  23.615  0.00  0.00    +0.000 OA
ATOM     10  C   UNL     1      -0.719  11.219  22.086  0.00  0.00    +0.000 A 
ATOM     11  C   UNL     1      -0.660  11.585  20.797  0.00  0.00    +0.000 A 
ATOM     12  N   UNL     1       0.018  10.915  19.787  0.00  0.00    +0.000 N 
ENDROOT
BRANCH   1  17
ATOM     13  N   UNL     1       5.145   4.881  16.235  0.00  0.00    +0.000 NA
ATOM     14  C   UNL     1       4.508   5.576  17.132  0.00  0.00    +0.000 C 
ATOM     15  C   UNL     1       4.714   7.061  17.401  0.00  0.00    +0.000 C 
ATOM     16  C   UNL     1       3.356   7.760  17.429  0.00  0.00    +0.000 C 
ATOM     17  N   UNL     1       2.519   7.060  18.394  0.00  0.00    +0.000 N 
ATOM     18  C   UNL     1       2.211   5.658  18.080  0.00  0.00    +0.000 C 
ATOM     19  C   UNL     1       3.514   4.833  18.035  0.00  0.00    +0.000 C 
BRANCH  19  20
ATOM     20  N   UNL     1       4.120   4.641  19.366  0.00  0.00    +0.000 NA
ATOM     21  H   UNL     1       5.017   4.167  19.256  0.00  0.00    +0.000 HD
ATOM     22  H   UNL     1       3.520   4.047  19.936  0.00  0.00    +0.000 HD
ENDBRANCH  19  20
BRANCH  13  24
ATOM     23  C   UNL     1       6.751   4.834  14.603  0.00  0.00    +0.000 C 
ATOM     24  O   UNL     1       6.037   5.673  15.504  0.00  0.00    +0.000 OA
ENDBRANCH  13  24
ENDBRANCH   1  17
BRANCH  12  25
ATOM     25  C   UNL     1      -0.353  11.227  18.391  0.00  0.00    +0.000 C 
ATOM     26  C   UNL     1      -1.497  10.544  17.681  0.00  0.00    +0.000 C 
ATOM     27  C   UNL     1      -1.597  11.996  18.033  0.00  0.00    +0.000 C 
ENDBRANCH  12  25
BRANCH  10  28
ATOM     28  C   UNL     1      -1.480  12.034  23.061  0.00  0.00    +0.000 C 
ATOM     29  O   UNL     1      -1.086  13.106  23.482  0.00  0.00    +0.000 OA
BRANCH  28  30
ATOM     30  O   UNL     1      -2.656  11.494  23.442  0.00  0.00    +0.000 OA
ATOM     31  H   UNL     1      -3.308  11.361  22.711  0.00  0.00    +0.000 HD
ENDBRANCH  28  30
ENDBRANCH  10  28
TORSDOF 6
ENDMDL
MODEL 4
REMARK VINA RESULT:      -7.4      2.709      3.810
REMARK  Name = 
REMARK  7 active torsions:
REMARK  status: ('A' for Active; 'I' for Inactive)
REMARK    1  A    between atoms: C_1  and  O_2
REMARK    2  A    between atoms: O_2  and  N_3
REMARK    3  A    between atoms: N_7  and  C_8
REMARK    4  A    between atoms: C_17  and  C_18
REMARK    5  A    between atoms: C_18  and  O_20
REMARK    6  A    between atoms: N_22  and  C_23
REMARK    7  A    between atoms: C_27  and  N_28
REMARK                            x       y       z     vdW  Elec       q    Type
REMARK                         _______ _______ _______ _____ _____    ______ ____
ROOT
ATOM      1  C   UNL     1       1.387   8.472  19.902  0.00  0.00    +0.000 A 
ATOM      2  N   UNL     1       2.151   7.953  18.903  0.00  0.00    +0.000 NA
ATOM      3  C   UNL     1       2.569   6.657  18.978  0.00  0.00    +0.000 A 
ATOM      4  C   UNL     1       2.187   5.843  20.050  0.00  0.00    +0.000 A 
ATOM      5  C   UNL     1       1.411   6.358  21.076  0.00  0.00    +0.000 A 
ATOM      6  C   UNL     1       1.024   7.679  20.999  0.00  0.00    +0.000 A 
ATOM      7  F   UNL     1       0.231   8.149  21.973  0.00  0.00    +0.000 F 
ATOM      8  C   UNL     1       2.625   4.440  20.122  0.00  0.00    +0.000 A 
ATOM      9  O   UNL     1       2.261   3.709  21.040  0.00  0.00    +0.000 OA
ATOM     10  C   UNL     1       3.535   3.931  19.083  0.00  0.00    +0.000 A 
ATOM     11  C   UNL     1       3.871   4.786  18.106  0.00  0.00    +0.000 A 
ATOM     12  N   UNL     1       3.412   6.089  17.967  0.00  0.00    +0.000 N 
ENDROOT
BRANCH   1  17
ATOM     13  N   UNL     1      -0.378  13.363  18.483  0.00  0.00    +0.000 NA
ATOM     14  C   UNL     1       0.105  12.162  18.623  0.00  0.00    +0.000 C 
ATOM     15  C   UNL     1       1.586  11.815  18.703  0.00  0.00    +0.000 C 
ATOM     16  C   UNL     1       1.825  10.906  19.907  0.00  0.00    +0.000 C 
ATOM     17  N   UNL     1       0.922   9.769  19.788  0.00  0.00    +0.000 N 
ATOM     18  C   UNL     1      -0.514  10.081  19.835  0.00  0.00    +0.000 C 
ATOM     19  C   UNL     1      -0.889  10.993  18.650  0.00  0.00    +0.000 C 
BRANCH  19  20
ATOM     20  N   UNL     1      -0.849  10.296  17.350  0.00  0.00    +0.000 NA
ATOM     21  H   UNL     1      -0.394  10.899  16.664  0.00  0.00    +0.000 HD
ATOM     22  H   UNL     1      -1.798  10.115  17.027  0.00  0.00    +0.000 HD
ENDBRANCH  19  20
BRANCH  13  24
ATOM     23  C   UNL     1       0.243  15.425  19.261  0.00  0.00    +0.000 C 
ATOM     24  O   UNL     1       0.636  14.326  18.447  0.00  0.00    +0.000 OA
ENDBRANCH  13  24
ENDBRANCH   1  17
BRANCH  12  25
ATOM     25  C   UNL     1       4.181   6.995  17.087  0.00  0.00    +0.000 C 
ATOM     26  C   UNL     1       5.682   7.131  17.171  0.00  0.00    +0.000 C 
ATOM     27  C   UNL     1       5.055   6.493  15.970  0.00  0.00    +0.000 C 
ENDBRANCH  12  25
BRANCH  10  28
ATOM     28  C   UNL     1       4.100   2.562  19.106  0.00  0.00    +0.000 C 
ATOM     29  O   UNL     1       3.724   1.675  18.362  0.00  0.00    +0.000 OA
BRANCH  28  30
ATOM     30  O   UNL     1       5.077   2.377  20.017  0.00  0.00    +0.000 OA
ATOM     31  H   UNL     1       4.819   2.580  20.950  0.00  0.00    +0.000 HD
ENDBRANCH  28  30
ENDBRANCH  10  28
TORSDOF 6
ENDMDL
MODEL 5
REMARK VINA RESULT:      -7.3      1.052      1.074
REMARK  Name = 
REMARK  7 active torsions:
REMARK  status: ('A' for Active; 'I' for Inactive)
REMARK    1  A    between atoms: C_1  and  O_2
REMARK    2  A    between atoms: O_2  and  N_3
REMARK    3  A    between atoms: N_7  and  C_8
REMARK    4  A    between atoms: C_17  and  C_18
REMARK    5  A    between atoms: C_18  and  O_20
REMARK    6  A    between atoms: N_22  and  C_23
REMARK    7  A    between atoms: C_27  and  N_28
REMARK                            x       y       z     vdW  Elec       q    Type
REMARK                         _______ _______ _______ _____ _____    ______ ____
ROOT
ATOM      1  C   UNL     1       1.779   8.449  19.148  0.00  0.00    +0.000 A 
ATOM      2  N   UNL     1       2.230   7.239  19.576  0.00  0.00    +0.000 NA
ATOM      3  C   UNL     1       3.185   6.582  18.857  0.00  0.00    +0.000 A 
ATOM      4  C   UNL     1       3.736   7.157  17.706  0.00  0.00    +0.000 A 
ATOM      5  C   UNL     1       3.285   8.388  17.257  0.00  0.00    +0.000 A 
ATOM      6  C   UNL     1       2.296   9.023  17.979  0.00  0.00    +0.000 A 
ATOM      7  F   UNL     1       1.907  10.236  17.561  0.00  0.00    +0.000 F 
ATOM      8  C   UNL     1       4.778   6.455  16.940  0.00  0.00    +0.000 A 
ATOM      9  O   UNL     1       5.293   6.971  15.951  0.00  0.00    +0.000 OA
ATOM     10  C   UNL     1       5.175   5.103  17.364  0.00  0.00    +0.000 A 
ATOM     11  C   UNL     1       4.579   4.618  18.464  0.00  0.00    +0.000 A 
ATOM     12  N   UNL     1       3.652   5.286  19.253  0.00  0.00    +0.000 N 
ENDROOT
BRANCH   1  17
ATOM     13  N   UNL     1      -1.392  11.921  21.782  0.00  0.00    +0.000 NA
ATOM     14  C   UNL     1      -0.502  11.250  21.108  0.00  0.00    +0.000 C 
ATOM     15  C   UNL     1       0.855  10.812  21.642  0.00  0.00    +0.000 C 
ATOM     16  C   UNL     1       1.057   9.327  21.344  0.00  0.00    +0.000 C 
ATOM     17  N   UNL     1       0.853   9.131  19.915  0.00  0.00    +0.000 N 
ATOM     18  C   UNL     1      -0.494   9.434  19.410  0.00  0.00    +0.000 C 
ATOM     19  C   UNL     1      -0.816  10.924  19.642  0.00  0.00    +0.000 C 
BRANCH  19  20
ATOM     20  N   UNL     1      -0.038  11.825  18.770  0.00  0.00    +0.000 NA
ATOM     21  H   UNL     1      -0.678  12.316  18.145  0.00  0.00    +0.000 HD
ATOM     22  H   UNL     1       0.603  11.279  18.196  0.00  0.00    +0.000 HD
ENDBRANCH  19  20
BRANCH  13  24
ATOM     23  C   UNL     1      -1.173  13.552  23.374  0.00  0.00    +0.000 C 
ATOM     24  O   UNL     1      -0.967  12.173  23.091  0.00  0.00    +0.000 OA
ENDBRANCH  13  24
ENDBRANCH   1  17
BRANCH  12  25
ATOM     25  C   UNL     1       2.818   4.474  20.163  0.00  0.00    +0.000 C 
ATOM     26  C   UNL     1       1.613   3.697  19.688  0.00  0.00    +0.000 C 
ATOM     27  C   UNL     1       2.835   2.969  20.156  0.00  0.00    +0.000 C 
ENDBRANCH  12  25
BRANCH  10  28
ATOM     28  C   UNL     1       6.152   4.278  16.618  0.00  0.00    +0.000 C 
ATOM     29  O   UNL     1       5.829   3.334  15.920  0.00  0.00    +0.000 OA
BRANCH  28  30
ATOM     30  O   UNL     1       7.436   4.662  16.765  0.00  0.00    +0.000 OA
ATOM     31  H   UNL     1       7.997   4.043  17.295  0.00  0.00    +0.000 HD
ENDBRANCH  28  30
ENDBRANCH  10  28
TORSDOF 6
ENDMDL
MODEL 6
REMARK VINA RESULT:      -7.3      2.634      3.733
REMARK  Name = 
REMARK  7 active torsions:
REMARK  status: ('A' for Active; 'I' for Inactive)
REMARK    1  A    between atoms: C_1  and  O_2
REMARK    2  A    between atoms: O_2  and  N_3
REMARK    3  A    between atoms: N_7  and  C_8
REMARK    4  A    between atoms: C_17  and  C_18
REMARK    5  A    between atoms: C_18  and  O_20
REMARK    6  A    between atoms: N_22  and  C_23
REMARK    7  A    between atoms: C_27  and  N_28
REMARK                            x       y       z     vdW  Elec       q    Type
REMARK                         _______ _______ _______ _____ _____    ______ ____
ROOT
ATOM      1  C   UNL     1       1.490   8.507  19.848  0.00  0.00    +0.000 A 
ATOM      2  N   UNL     1       2.246   7.957  18.859  0.00  0.00    +0.000 NA
ATOM      3  C   UNL     1       2.632   6.652  18.952  0.00  0.00    +0.000 A 
ATOM      4  C   UNL     1       2.226   5.861  20.032  0.00  0.00    +0.000 A 
ATOM      5  C   UNL     1       1.458   6.408  21.048  0.00  0.00    +0.000 A 
ATOM      6  C   UNL     1       1.103   7.737  20.953  0.00  0.00    +0.000 A 
ATOM      7  F   UNL     1       0.318   8.237  21.917  0.00  0.00    +0.000 F 
ATOM      8  C   UNL     1       2.629   4.449  20.123  0.00  0.00    +0.000 A 
ATOM      9  O   UNL     1       2.244   3.738  21.048  0.00  0.00    +0.000 OA
ATOM     10  C   UNL     1       3.531   3.905  19.094  0.00  0.00    +0.000 A 
ATOM     11  C   UNL     1       3.892   4.740  18.108  0.00  0.00    +0.000 A 
ATOM     12  N   UNL     1       3.465   6.052  17.951  0.00  0.00    +0.000 N 
ENDROOT
BRANCH   1  17
ATOM     13  N   UNL     1       0.735  13.785  19.060  0.00  0.00    +0.000 NA
ATOM     14  C   UNL     1       1.124  12.555  19.241  0.00  0.00    +0.000 C 
ATOM     15  C   UNL     1       1.673  11.991  20.543  0.00  0.00    +0.000 C 
ATOM     16  C   UNL     1       0.944  10.690  20.875  0.00  0.00    +0.000 C 
ATOM     17  N   UNL     1       1.057   9.813  19.716  0.00  0.00    +0.000 N 
ATOM     18  C   UNL     1       0.420  10.294  18.482  0.00  0.00    +0.000 C 
ATOM     19  C   UNL     1       1.083  11.611  18.031  0.00  0.00    +0.000 C 
BRANCH  19  20
ATOM     20  N   UNL     1       2.455  11.421  17.521  0.00  0.00    +0.000 NA
ATOM     21  H   UNL     1       2.433  11.429  16.501  0.00  0.00    +0.000 HD
ATOM     22  H   UNL     1       2.811  10.514  17.820  0.00  0.00    +0.000 HD
ENDBRANCH  19  20
BRANCH  13  24
ATOM     23  C   UNL     1       1.456  15.786  19.908  0.00  0.00    +0.000 C 
ATOM     24  O   UNL     1       0.850  14.540  20.233  0.00  0.00    +0.000 OA
ENDBRANCH  13  24
ENDBRANCH   1  17
BRANCH  12  25
ATOM     25  C   UNL     1       4.259   6.928  17.064  0.00  0.00    +0.000 C 
ATOM     26  C   UNL     1       5.759   7.055  17.177  0.00  0.00    +0.000 C 
ATOM     27  C   UNL     1       5.153   6.390  15.980  0.00  0.00    +0.000 C 
ENDBRANCH  12  25
BRANCH  10  28
ATOM     28  C   UNL     1       4.063   2.524  19.137  0.00  0.00    +0.000 C 
ATOM     29  O   UNL     1       3.665   1.635  18.405  0.00  0.00    +0.000 OA
BRANCH  28  30
ATOM     30  O   UNL     1       5.036   2.328  20.049  0.00  0.00    +0.000 OA
ATOM     31  H   UNL     1       4.752   2.441  20.990  0.00  0.00    +0.000 HD
ENDBRANCH  28  30
ENDBRANCH  10  28
TORSDOF 6
ENDMDL
MODEL 7
REMARK VINA RESULT:      -7.2      2.352      3.459
REMARK  Name = 
REMARK  7 active torsions:
REMARK  status: ('A' for Active; 'I' for Inactive)
REMARK    1  A    between atoms: C_1  and  O_2
REMARK    2  A    between atoms: O_2  and  N_3
REMARK    3  A    between atoms: N_7  and  C_8
REMARK    4  A    between atoms: C_17  and  C_18
REMARK    5  A    between atoms: C_18  and  O_20
REMARK    6  A    between atoms: N_22  and  C_23
REMARK    7  A    between atoms: C_27  and  N_28
REMARK                            x       y       z     vdW  Elec       q    Type
REMARK                         _______ _______ _______ _____ _____    ______ ____
ROOT
ATOM      1  C   UNL     1       1.410   8.556  19.595  0.00  0.00    +0.000 A 
ATOM      2  N   UNL     1       2.203   7.961  18.663  0.00  0.00    +0.000 NA
ATOM      3  C   UNL     1       2.660   6.693  18.878  0.00  0.00    +0.000 A 
ATOM      4  C   UNL     1       2.290   5.984  20.025  0.00  0.00    +0.000 A 
ATOM      5  C   UNL     1       1.484   6.578  20.984  0.00  0.00    +0.000 A 
ATOM      6  C   UNL     1       1.057   7.871  20.765  0.00  0.00    +0.000 A 
ATOM      7  F   UNL     1       0.237   8.414  21.676  0.00  0.00    +0.000 F 
ATOM      8  C   UNL     1       2.770   4.611  20.248  0.00  0.00    +0.000 A 
ATOM      9  O   UNL     1       2.417   3.968  21.234  0.00  0.00    +0.000 OA
ATOM     10  C   UNL     1       3.709   4.026  19.277  0.00  0.00    +0.000 A 
ATOM     11  C   UNL     1       4.031   4.785  18.219  0.00  0.00    +0.000 A 
ATOM     12  N   UNL     1       3.533   6.051  17.940  0.00  0.00    +0.000 N 
ENDROOT
BRANCH   1  17
ATOM     13  N   UNL     1      -0.454  13.613  19.580  0.00  0.00    +0.000 NA
ATOM     14  C   UNL     1      -0.028  12.401  19.794  0.00  0.00    +0.000 C 
ATOM     15  C   UNL     1      -0.913  11.202  20.104  0.00  0.00    +0.000 C 
ATOM     16  C   UNL     1      -0.526  10.041  19.189  0.00  0.00    +0.000 C 
ATOM     17  N   UNL     1       0.906   9.818  19.341  0.00  0.00    +0.000 N 
ATOM     18  C   UNL     1       1.777  10.928  18.926  0.00  0.00    +0.000 C 
ATOM     19  C   UNL     1       1.489  12.170  19.794  0.00  0.00    +0.000 C 
BRANCH  19  20
ATOM     20  N   UNL     1       1.955  12.022  21.186  0.00  0.00    +0.000 NA
ATOM     21  H   UNL     1       1.146  11.884  21.793  0.00  0.00    +0.000 HD
ATOM     22  H   UNL     1       2.428  12.874  21.483  0.00  0.00    +0.000 HD
ENDBRANCH  19  20
BRANCH  13  24
ATOM     23  C   UNL     1      -2.215  14.473  20.764  0.00  0.00    +0.000 C 
ATOM     24  O   UNL     1      -1.851  13.687  19.636  0.00  0.00    +0.000 OA
ENDBRANCH  13  24
ENDBRANCH   1  17
BRANCH  12  25
ATOM     25  C   UNL     1       4.285   6.883  16.978  0.00  0.00    +0.000 C 
ATOM     26  C   UNL     1       5.784   7.052  17.044  0.00  0.00    +0.000 C 
ATOM     27  C   UNL     1       5.166   6.295  15.909  0.00  0.00    +0.000 C 
ENDBRANCH  12  25
BRANCH  10  28
ATOM     28  C   UNL     1       4.316   2.686  19.449  0.00  0.00    +0.000 C 
ATOM     29  O   UNL     1       5.003   2.386  20.409  0.00  0.00    +0.000 OA
BRANCH  28  30
ATOM     30  O   UNL     1       4.039   1.816  18.457  0.00  0.00    +0.000 OA
ATOM     31  H   UNL     1       4.829   1.361  18.071  0.00  0.00    +0.000 HD
ENDBRANCH  28  30
ENDBRANCH  10  28
TORSDOF 6
ENDMDL
MODEL 8
REMARK VINA RESULT:      -7.1      2.171      8.534
REMARK  Name = 
REMARK  7 active torsions:
REMARK  status: ('A' for Active; 'I' for Inactive)
REMARK    1  A    between atoms: C_1  and  O_2
REMARK    2  A    between atoms: O_2  and  N_3
REMARK    3  A    between atoms: N_7  and  C_8
REMARK    4  A    between atoms: C_17  and  C_18
REMARK    5  A    between atoms: C_18  and  O_20
REMARK    6  A    between atoms: N_22  and  C_23
REMARK    7  A    between atoms: C_27  and  N_28
REMARK                            x       y       z     vdW  Elec       q    Type
REMARK                         _______ _______ _______ _____ _____    ______ ____
ROOT
ATOM      1  C   UNL     1       1.989   7.422  19.374  0.00  0.00    +0.000 A 
ATOM      2  N   UNL     1       1.868   8.765  19.189  0.00  0.00    +0.000 NA
ATOM      3  C   UNL     1       1.209   9.517  20.118  0.00  0.00    +0.000 A 
ATOM      4  C   UNL     1       0.693   8.930  21.278  0.00  0.00    +0.000 A 
ATOM      5  C   UNL     1       0.808   7.563  21.480  0.00  0.00    +0.000 A 
ATOM      6  C   UNL     1       1.448   6.814  20.515  0.00  0.00    +0.000 A 
ATOM      7  F   UNL     1       1.596   5.502  20.748  0.00  0.00    +0.000 F 
ATOM      8  C   UNL     1      -0.002   9.745  22.287  0.00  0.00    +0.000 A 
ATOM      9  O   UNL     1      -0.423   9.242  23.326  0.00  0.00    +0.000 OA
ATOM     10  C   UNL     1      -0.211  11.176  22.017  0.00  0.00    +0.000 A 
ATOM     11  C   UNL     1       0.295  11.651  20.869  0.00  0.00    +0.000 A 
ATOM     12  N   UNL     1       1.024  10.926  19.935  0.00  0.00    +0.000 N 
ENDROOT
BRANCH   1  17
ATOM     13  N   UNL     1       5.309   4.227  16.580  0.00  0.00    +0.000 NA
ATOM     14  C   UNL     1       4.645   4.976  17.413  0.00  0.00    +0.000 C 
ATOM     15  C   UNL     1       5.005   6.408  17.783  0.00  0.00    +0.000 C 
ATOM     16  C   UNL     1       3.762   7.287  17.655  0.00  0.00    +0.000 C 
ATOM     17  N   UNL     1       2.707   6.679  18.456  0.00  0.00    +0.000 N 
ATOM     18  C   UNL     1       2.266   5.344  18.030  0.00  0.00    +0.000 C 
ATOM     19  C   UNL     1       3.440   4.349  18.127  0.00  0.00    +0.000 C 
BRANCH  19  20
ATOM     20  N   UNL     1       3.814   4.033  19.519  0.00  0.00    +0.000 NA
ATOM     21  H   UNL     1       4.021   4.903  20.012  0.00  0.00    +0.000 HD
ATOM     22  H   UNL     1       4.657   3.461  19.528  0.00  0.00    +0.000 HD
ENDBRANCH  19  20
BRANCH  13  24
ATOM     23  C   UNL     1       6.373   4.722  14.613  0.00  0.00    +0.000 C 
ATOM     24  O   UNL     1       6.396   4.911  16.023  0.00  0.00    +0.000 OA
ENDBRANCH  13  24
ENDBRANCH   1  17
BRANCH  12  25
ATOM     25  C   UNL     1       1.147  11.493  18.575  0.00  0.00    +0.000 C 
ATOM     26  C   UNL     1       1.063  12.975  18.299  0.00  0.00    +0.000 C 
ATOM     27  C   UNL     1       2.363  12.252  18.118  0.00  0.00    +0.000 C 
ENDBRANCH  12  25
BRANCH  10  28
ATOM     28  C   UNL     1      -0.969  12.067  22.925  0.00  0.00    +0.000 C 
ATOM     29  O   UNL     1      -0.551  13.147  23.298  0.00  0.00    +0.000 OA
BRANCH  28  30
ATOM     30  O   UNL     1      -2.171  11.586  23.303  0.00  0.00    +0.000 OA
ATOM     31  H   UNL     1      -2.184  11.151  24.191  0.00  0.00    +0.000 HD
ENDBRANCH  28  30
ENDBRANCH  10  28
TORSDOF 6
ENDMDL
MODEL 9
REMARK VINA RESULT:      -7.1      2.454      3.719
REMARK  Name = 
REMARK  7 active torsions:
REMARK  status: ('A' for Active; 'I' for Inactive)
REMARK    1  A    between atoms: C_1  and  O_2
REMARK    2  A    between atoms: O_2  and  N_3
REMARK    3  A    between atoms: N_7  and  C_8
REMARK    4  A    between atoms: C_17  and  C_18
REMARK    5  A    between atoms: C_18  and  O_20
REMARK    6  A    between atoms: N_22  and  C_23
REMARK    7  A    between atoms: C_27  and  N_28
REMARK                            x       y       z     vdW  Elec       q    Type
REMARK                         _______ _______ _______ _____ _____    ______ ____
ROOT
ATOM      1  C   UNL     1       1.704   8.260  19.966  0.00  0.00    +0.000 A 
ATOM      2  N   UNL     1       2.440   7.756  18.939  0.00  0.00    +0.000 NA
ATOM      3  C   UNL     1       2.748   6.427  18.918  0.00  0.00    +0.000 A 
ATOM      4  C   UNL     1       2.279   5.569  19.919  0.00  0.00    +0.000 A 
ATOM      5  C   UNL     1       1.529   6.068  20.972  0.00  0.00    +0.000 A 
ATOM      6  C   UNL     1       1.255   7.420  20.993  0.00  0.00    +0.000 A 
ATOM      7  F   UNL     1       0.486   7.879  21.991  0.00  0.00    +0.000 F 
ATOM      8  C   UNL     1       2.597   4.132  19.887  0.00  0.00    +0.000 A 
ATOM      9  O   UNL     1       2.156   3.367  20.741  0.00  0.00    +0.000 OA
ATOM     10  C   UNL     1       3.481   3.629  18.823  0.00  0.00    +0.000 A 
ATOM     11  C   UNL     1       3.905   4.525  17.919  0.00  0.00    +0.000 A 
ATOM     12  N   UNL     1       3.559   5.869  17.876  0.00  0.00    +0.000 N 
ENDROOT
BRANCH   1  17
ATOM     13  N   UNL     1      -0.583  13.138  20.093  0.00  0.00    +0.000 NA
ATOM     14  C   UNL     1      -0.229  11.886  20.056  0.00  0.00    +0.000 C 
ATOM     15  C   UNL     1      -0.237  11.009  18.811  0.00  0.00    +0.000 C 
ATOM     16  C   UNL     1       1.108  10.294  18.691  0.00  0.00    +0.000 C 
ATOM     17  N   UNL     1       1.351   9.597  19.948  0.00  0.00    +0.000 N 
ATOM     18  C   UNL     1       1.484  10.447  21.139  0.00  0.00    +0.000 C 
ATOM     19  C   UNL     1       0.172  11.220  21.379  0.00  0.00    +0.000 C 
BRANCH  19  20
ATOM     20  N   UNL     1      -0.931  10.355  21.838  0.00  0.00    +0.000 NA
ATOM     21  H   UNL     1      -0.729   9.391  21.572  0.00  0.00    +0.000 HD
ATOM     22  H   UNL     1      -1.798  10.631  21.380  0.00  0.00    +0.000 HD
ENDBRANCH  19  20
BRANCH  13  24
ATOM     23  C   UNL     1      -0.245  14.820  18.576  0.00  0.00    +0.000 C 
ATOM     24  O   UNL     1      -0.950  13.609  18.827  0.00  0.00    +0.000 OA
ENDBRANCH  13  24
ENDBRANCH   1  17
BRANCH  12  25
ATOM     25  C   UNL     1       4.417   6.771  17.079  0.00  0.00    +0.000 C 
ATOM     26  C   UNL     1       5.923   6.770  17.189  0.00  0.00    +0.000 C 
ATOM     27  C   UNL     1       5.264   6.284  15.935  0.00  0.00    +0.000 C 
ENDBRANCH  12  25
BRANCH  10  28
ATOM     28  C   UNL     1       3.929   2.220  18.747  0.00  0.00    +0.000 C 
ATOM     29  O   UNL     1       3.503   1.430  17.924  0.00  0.00    +0.000 OA
BRANCH  28  30
ATOM     30  O   UNL     1       4.860   1.880  19.661  0.00  0.00    +0.000 OA
ATOM     31  H   UNL     1       5.778   1.789  19.304  0.00  0.00    +0.000 HD
ENDBRANCH  28  30
ENDBRANCH  10  28
TORSDOF 6
ENDMDL
