MODEL 1
REMARK VINA RESULT:      -8.3      0.000      0.000
REMARK  Name = 
REMARK  7 active torsions:
REMARK  status: ('A' for Active; 'I' for Inactive)
REMARK    1  A    between atoms: C_1  and  N_2
REMARK    2  A    between atoms: N_5  and  C_6
REMARK    3  A    between atoms: C_11  and  C_12
REMARK    4  A    between atoms: C_17  and  N_18
REMARK    5  A    between atoms: N_18  and  S_19
REMARK    6  A    between atoms: S_19  and  C_22
REMARK    7  A    between atoms: C_26  and  N_27
REMARK                            x       y       z     vdW  Elec       q    Type
REMARK                         _______ _______ _______ _____ _____    ______ ____
ROOT
ATOM      1  C   UNL     1      -2.341  12.745  22.040  0.00  0.00    +0.000 A 
ATOM      2  C   UNL     1      -1.283  12.140  22.715  0.00  0.00    +0.000 A 
ATOM      3  N   UNL     1      -0.338  11.355  22.155  0.00  0.00    +0.000 NA
ATOM      4  C   UNL     1      -0.422  11.123  20.848  0.00  0.00    +0.000 A 
ATOM      5  C   UNL     1       0.547  10.293  20.320  0.00  0.00    +0.000 A 
ATOM      6  C   UNL     1       0.584   9.970  18.958  0.00  0.00    +0.000 A 
ATOM      7  C   UNL     1      -0.383  10.520  18.116  0.00  0.00    +0.000 A 
ATOM      8  C   UNL     1      -1.370  11.373  18.620  0.00  0.00    +0.000 A 
ATOM      9  C   UNL     1      -1.420  11.678  20.014  0.00  0.00    +0.000 A 
ATOM     10  C   UNL     1      -2.383  12.494  20.660  0.00  0.00    +0.000 A 
ENDROOT
BRANCH   1  15
ATOM     11  C   UNL     1      -6.944  15.403  23.740  0.00  0.00    +0.000 C 
ATOM     12  N   UNL     1      -5.576  14.896  23.820  0.00  0.00    +0.000 NA
ATOM     13  C   UNL     1      -4.735  15.479  22.746  0.00  0.00    +0.000 C 
ATOM     14  C   UNL     1      -3.277  14.948  22.763  0.00  0.00    +0.000 C 
ATOM     15  N   UNL     1      -3.289  13.480  22.720  0.00  0.00    +0.000 N 
ATOM     16  C   UNL     1      -4.128  12.847  23.755  0.00  0.00    +0.000 C 
ATOM     17  C   UNL     1      -5.560  13.421  23.699  0.00  0.00    +0.000 C 
ENDBRANCH   1  15
BRANCH   6  18
ATOM     18  C   UNL     1       1.663   9.064  18.424  0.00  0.00    +0.000 C 
ATOM     19  F   UNL     1       2.753   9.725  17.951  0.00  0.00    +0.000 F 
ATOM     20  F   UNL     1       2.130   8.198  19.365  0.00  0.00    +0.000 F 
ATOM     21  F   UNL     1       1.220   8.293  17.391  0.00  0.00    +0.000 F 
ENDBRANCH   6  18
BRANCH   8  22
ATOM     22  N   UNL     1      -2.278  11.928  17.652  0.00  0.00    +0.000 N 
ATOM     23  H   UNL     1      -2.580  12.886  17.805  0.00  0.00    +0.000 HD
BRANCH  22  24
ATOM     24  S   UNL     1      -3.407  10.875  16.967  0.00  0.00    +0.000 S 
ATOM     25  O   UNL     1      -3.493  11.148  15.550  0.00  0.00    +0.000 OA
ATOM     26  O   UNL     1      -3.156   9.541  17.470  0.00  0.00    +0.000 OA
BRANCH  24  27
ATOM     27  C   UNL     1      -4.942  11.421  17.707  0.00  0.00    +0.000 A 
ATOM     28  C   UNL     1      -5.682  12.436  17.084  0.00  0.00    +0.000 A 
ATOM     29  C   UNL     1      -6.939  12.791  17.586  0.00  0.00    +0.000 A 
ATOM     30  C   UNL     1      -7.463  12.133  18.698  0.00  0.00    +0.000 A 
ATOM     31  C   UNL     1      -6.727  11.108  19.308  0.00  0.00    +0.000 A 
ATOM     32  C   UNL     1      -5.461  10.744  18.818  0.00  0.00    +0.000 A 
BRANCH  31  33
ATOM     33  N   UNL     1      -7.298  10.393  20.458  0.00  0.00    +0.000 N 
ATOM     34  O   UNL     1      -7.510  11.040  21.494  0.00  0.00    +0.000 OA
ATOM     35  O   UNL     1      -7.525   9.183  20.326  0.00  0.00    +0.000 OA
ENDBRANCH  31  33
ENDBRANCH  24  27
ENDBRANCH  22  24
ENDBRANCH   8  22
TORSDOF 6
ENDMDL
MODEL 2
REMARK VINA RESULT:      -8.3      7.553     11.051
REMARK  Name = 
REMARK  7 active torsions:
REMARK  status: ('A' for Active; 'I' for Inactive)
REMARK    1  A    between atoms: C_1  and  N_2
REMARK    2  A    between atoms: N_5  and  C_6
REMARK    3  A    between atoms: C_11  and  C_12
REMARK    4  A    between atoms: C_17  and  N_18
REMARK    5  A    between atoms: N_18  and  S_19
REMARK    6  A    between atoms: S_19  and  C_22
REMARK    7  A    between atoms: C_26  and  N_27
REMARK                            x       y       z     vdW  Elec       q    Type
REMARK                         _______ _______ _______ _____ _____    ______ ____
ROOT
ATOM      1  C   UNL     1       2.029   7.936  19.156  0.00  0.00    +0.000 A 
ATOM      2  C   UNL     1       1.576   7.145  20.209  0.00  0.00    +0.000 A 
ATOM      3  N   UNL     1       1.821   5.827  20.367  0.00  0.00    +0.000 NA
ATOM      4  C   UNL     1       2.546   5.217  19.434  0.00  0.00    +0.000 A 
ATOM      5  C   UNL     1       2.750   3.864  19.617  0.00  0.00    +0.000 A 
ATOM      6  C   UNL     1       3.501   3.099  18.717  0.00  0.00    +0.000 A 
ATOM      7  C   UNL     1       4.068   3.736  17.612  0.00  0.00    +0.000 A 
ATOM      8  C   UNL     1       3.890   5.108  17.407  0.00  0.00    +0.000 A 
ATOM      9  C   UNL     1       3.101   5.878  18.313  0.00  0.00    +0.000 A 
ATOM     10  C   UNL     1       2.809   7.262  18.204  0.00  0.00    +0.000 A 
ENDROOT
BRANCH   1  15
ATOM     11  C   UNL     1       1.760  13.506  19.352  0.00  0.00    +0.000 C 
ATOM     12  N   UNL     1       1.332  12.149  19.017  0.00  0.00    +0.000 NA
ATOM     13  C   UNL     1       1.106  11.351  20.247  0.00  0.00    +0.000 C 
ATOM     14  C   UNL     1       0.683   9.888  19.949  0.00  0.00    +0.000 C 
ATOM     15  N   UNL     1       1.669   9.263  19.059  0.00  0.00    +0.000 N 
ATOM     16  C   UNL     1       1.949  10.027  17.828  0.00  0.00    +0.000 C 
ATOM     17  C   UNL     1       2.352  11.474  18.184  0.00  0.00    +0.000 C 
ENDBRANCH   1  15
BRANCH   6  18
ATOM     18  C   UNL     1       3.702   1.625  18.959  0.00  0.00    +0.000 C 
ATOM     19  F   UNL     1       4.092   0.934  17.855  0.00  0.00    +0.000 F 
ATOM     20  F   UNL     1       4.644   1.375  19.908  0.00  0.00    +0.000 F 
ATOM     21  F   UNL     1       2.561   1.018  19.392  0.00  0.00    +0.000 F 
ENDBRANCH   6  18
BRANCH   8  22
ATOM     22  N   UNL     1       4.569   5.668  16.269  0.00  0.00    +0.000 N 
ATOM     23  H   UNL     1       4.083   5.621  15.377  0.00  0.00    +0.000 HD
BRANCH  22  24
ATOM     24  S   UNL     1       6.251   5.514  16.227  0.00  0.00    +0.000 S 
ATOM     25  O   UNL     1       6.839   6.815  16.457  0.00  0.00    +0.000 OA
ATOM     26  O   UNL     1       6.627   4.360  17.014  0.00  0.00    +0.000 OA
BRANCH  24  27
ATOM     27  C   UNL     1       6.556   5.088  14.515  0.00  0.00    +0.000 A 
ATOM     28  C   UNL     1       7.717   5.560  13.887  0.00  0.00    +0.000 A 
ATOM     29  C   UNL     1       8.027   5.140  12.588  0.00  0.00    +0.000 A 
ATOM     30  C   UNL     1       7.191   4.246  11.921  0.00  0.00    +0.000 A 
ATOM     31  C   UNL     1       6.040   3.764  12.559  0.00  0.00    +0.000 A 
ATOM     32  C   UNL     1       5.713   4.181  13.860  0.00  0.00    +0.000 A 
BRANCH  31  33
ATOM     33  N   UNL     1       5.180   2.795  11.866  0.00  0.00    +0.000 N 
ATOM     34  O   UNL     1       5.675   1.701  11.555  0.00  0.00    +0.000 OA
ATOM     35  O   UNL     1       4.013   3.132  11.626  0.00  0.00    +0.000 OA
ENDBRANCH  31  33
ENDBRANCH  24  27
ENDBRANCH  22  24
ENDBRANCH   8  22
TORSDOF 6
ENDMDL
MODEL 3
REMARK VINA RESULT:      -8.0      1.747      2.224
REMARK  Name = 
REMARK  7 active torsions:
REMARK  status: ('A' for Active; 'I' for Inactive)
REMARK    1  A    between atoms: C_1  and  N_2
REMARK    2  A    between atoms: N_5  and  C_6
REMARK    3  A    between atoms: C_11  and  C_12
REMARK    4  A    between atoms: C_17  and  N_18
REMARK    5  A    between atoms: N_18  and  S_19
REMARK    6  A    between atoms: S_19  and  C_22
REMARK    7  A    between atoms: C_26  and  N_27
REMARK                            x       y       z     vdW  Elec       q    Type
REMARK                         _______ _______ _______ _____ _____    ______ ____
ROOT
ATOM      1  C   UNL     1      -2.964  12.678  21.857  0.00  0.00    +0.000 A 
ATOM      2  C   UNL     1      -1.896  12.164  22.589  0.00  0.00    +0.000 A 
ATOM      3  N   UNL     1      -0.866  11.453  22.083  0.00  0.00    +0.000 NA
ATOM      4  C   UNL     1      -0.866  11.206  20.776  0.00  0.00    +0.000 A 
ATOM      5  C   UNL     1       0.190  10.453  20.304  0.00  0.00    +0.000 A 
ATOM      6  C   UNL     1       0.319  10.125  18.949  0.00  0.00    +0.000 A 
ATOM      7  C   UNL     1      -0.647  10.591  18.056  0.00  0.00    +0.000 A 
ATOM      8  C   UNL     1      -1.721  11.367  18.502  0.00  0.00    +0.000 A 
ATOM      9  C   UNL     1      -1.863  11.675  19.888  0.00  0.00    +0.000 A 
ATOM     10  C   UNL     1      -2.918  12.416  20.479  0.00  0.00    +0.000 A 
ENDROOT
BRANCH   1  15
ATOM     11  C   UNL     1      -6.911  16.286  23.455  0.00  0.00    +0.000 C 
ATOM     12  N   UNL     1      -6.139  15.045  23.463  0.00  0.00    +0.000 NA
ATOM     13  C   UNL     1      -4.715  15.313  23.781  0.00  0.00    +0.000 C 
ATOM     14  C   UNL     1      -3.841  14.030  23.769  0.00  0.00    +0.000 C 
ATOM     15  N   UNL     1      -3.999  13.341  22.483  0.00  0.00    +0.000 N 
ATOM     16  C   UNL     1      -5.399  13.067  22.106  0.00  0.00    +0.000 C 
ATOM     17  C   UNL     1      -6.222  14.373  22.147  0.00  0.00    +0.000 C 
ENDBRANCH   1  15
BRANCH   6  18
ATOM     18  C   UNL     1       1.491   9.304  18.477  0.00  0.00    +0.000 C 
ATOM     19  F   UNL     1       1.192   8.454  17.458  0.00  0.00    +0.000 F 
ATOM     20  F   UNL     1       2.522  10.073  18.032  0.00  0.00    +0.000 F 
ATOM     21  F   UNL     1       2.003   8.525  19.471  0.00  0.00    +0.000 F 
ENDBRANCH   6  18
BRANCH   8  22
ATOM     22  N   UNL     1      -2.621  11.842  17.485  0.00  0.00    +0.000 N 
ATOM     23  H   UNL     1      -2.897  12.819  17.539  0.00  0.00    +0.000 HD
BRANCH  22  24
ATOM     24  S   UNL     1      -3.782  10.753  16.919  0.00  0.00    +0.000 S 
ATOM     25  O   UNL     1      -3.819  10.827  15.476  0.00  0.00    +0.000 OA
ATOM     26  O   UNL     1      -3.609   9.494  17.612  0.00  0.00    +0.000 OA
BRANCH  24  27
ATOM     27  C   UNL     1      -5.307  11.466  17.526  0.00  0.00    +0.000 A 
ATOM     28  C   UNL     1      -5.980  10.847  18.589  0.00  0.00    +0.000 A 
ATOM     29  C   UNL     1      -7.108  11.457  19.150  0.00  0.00    +0.000 A 
ATOM     30  C   UNL     1      -7.560  12.682  18.663  0.00  0.00    +0.000 A 
ATOM     31  C   UNL     1      -6.875  13.305  17.610  0.00  0.00    +0.000 A 
ATOM     32  C   UNL     1      -5.745  12.703  17.034  0.00  0.00    +0.000 A 
BRANCH  31  33
ATOM     33  N   UNL     1      -7.334  14.613  17.123  0.00  0.00    +0.000 N 
ATOM     34  O   UNL     1      -7.898  15.366  17.930  0.00  0.00    +0.000 OA
ATOM     35  O   UNL     1      -7.137  14.882  15.930  0.00  0.00    +0.000 OA
ENDBRANCH  31  33
ENDBRANCH  24  27
ENDBRANCH  22  24
ENDBRANCH   8  22
TORSDOF 6
ENDMDL
MODEL 4
REMARK VINA RESULT:      -8.0      6.970     10.249
REMARK  Name = 
REMARK  7 active torsions:
REMARK  status: ('A' for Active; 'I' for Inactive)
REMARK    1  A    between atoms: C_1  and  N_2
REMARK    2  A    between atoms: N_5  and  C_6
REMARK    3  A    between atoms: C_11  and  C_12
REMARK    4  A    between atoms: C_17  and  N_18
REMARK    5  A    between atoms: N_18  and  S_19
REMARK    6  A    between atoms: S_19  and  C_22
REMARK    7  A    between atoms: C_26  and  N_27
REMARK                            x       y       z     vdW  Elec       q    Type
REMARK                         _______ _______ _______ _____ _____    ______ ____
ROOT
ATOM      1  C   UNL     1       1.700   8.962  19.221  0.00  0.00    +0.000 A 
ATOM      2  C   UNL     1       1.348   8.381  20.436  0.00  0.00    +0.000 A 
ATOM      3  N   UNL     1       1.602   7.107  20.803  0.00  0.00    +0.000 NA
ATOM      4  C   UNL     1       2.232   6.326  19.930  0.00  0.00    +0.000 A 
ATOM      5  C   UNL     1       2.448   5.023  20.332  0.00  0.00    +0.000 A 
ATOM      6  C   UNL     1       3.106   4.095  19.516  0.00  0.00    +0.000 A 
ATOM      7  C   UNL     1       3.566   4.514  18.268  0.00  0.00    +0.000 A 
ATOM      8  C   UNL     1       3.374   5.830  17.838  0.00  0.00    +0.000 A 
ATOM      9  C   UNL     1       2.678   6.766  18.661  0.00  0.00    +0.000 A 
ATOM     10  C   UNL     1       2.383   8.114  18.335  0.00  0.00    +0.000 A 
ENDROOT
BRANCH   1  15
ATOM     11  C   UNL     1       0.900  14.484  19.139  0.00  0.00    +0.000 C 
ATOM     12  N   UNL     1       0.834  13.108  18.653  0.00  0.00    +0.000 NA
ATOM     13  C   UNL     1       0.053  12.258  19.585  0.00  0.00    +0.000 C 
ATOM     14  C   UNL     1      -0.020  10.775  19.134  0.00  0.00    +0.000 C 
ATOM     15  N   UNL     1       1.338  10.259  18.922  0.00  0.00    +0.000 N 
ATOM     16  C   UNL     1       2.167  11.079  18.017  0.00  0.00    +0.000 C 
ATOM     17  C   UNL     1       2.194  12.543  18.507  0.00  0.00    +0.000 C 
ENDBRANCH   1  15
BRANCH   6  18
ATOM     18  C   UNL     1       3.323   2.684  19.998  0.00  0.00    +0.000 C 
ATOM     19  F   UNL     1       3.278   2.551  21.351  0.00  0.00    +0.000 F 
ATOM     20  F   UNL     1       2.396   1.816  19.507  0.00  0.00    +0.000 F 
ATOM     21  F   UNL     1       4.536   2.194  19.618  0.00  0.00    +0.000 F 
ENDBRANCH   6  18
BRANCH   8  22
ATOM     22  N   UNL     1       3.943   6.165  16.559  0.00  0.00    +0.000 N 
ATOM     23  H   UNL     1       3.289   6.349  15.802  0.00  0.00    +0.000 HD
BRANCH  22  24
ATOM     24  S   UNL     1       5.395   5.410  16.144  0.00  0.00    +0.000 S 
ATOM     25  O   UNL     1       5.250   3.986  16.348  0.00  0.00    +0.000 OA
ATOM     26  O   UNL     1       5.852   5.953  14.883  0.00  0.00    +0.000 OA
BRANCH  24  27
ATOM     27  C   UNL     1       6.518   6.015  17.399  0.00  0.00    +0.000 A 
ATOM     28  C   UNL     1       7.071   5.113  18.318  0.00  0.00    +0.000 A 
ATOM     29  C   UNL     1       8.038   5.551  19.229  0.00  0.00    +0.000 A 
ATOM     30  C   UNL     1       8.462   6.879  19.220  0.00  0.00    +0.000 A 
ATOM     31  C   UNL     1       7.918   7.774  18.289  0.00  0.00    +0.000 A 
ATOM     32  C   UNL     1       6.942   7.350  17.372  0.00  0.00    +0.000 A 
BRANCH  31  33
ATOM     33  N   UNL     1       8.391   9.165  18.260  0.00  0.00    +0.000 N 
ATOM     34  O   UNL     1       9.222   9.512  19.112  0.00  0.00    +0.000 OA
ATOM     35  O   UNL     1       7.925   9.911  17.388  0.00  0.00    +0.000 OA
ENDBRANCH  31  33
ENDBRANCH  24  27
ENDBRANCH  22  24
ENDBRANCH   8  22
TORSDOF 6
ENDMDL
MODEL 5
REMARK VINA RESULT:      -7.9      6.744     10.339
REMARK  Name = 
REMARK  7 active torsions:
REMARK  status: ('A' for Active; 'I' for Inactive)
REMARK    1  A    between atoms: C_1  and  N_2
REMARK    2  A    between atoms: N_5  and  C_6
REMARK    3  A    between atoms: C_11  and  C_12
REMARK    4  A    between atoms: C_17  and  N_18
REMARK    5  A    between atoms: N_18  and  S_19
REMARK    6  A    between atoms: S_19  and  C_22
REMARK    7  A    between atoms: C_26  and  N_27
REMARK                            x       y       z     vdW  Elec       q    Type
REMARK                         _______ _______ _______ _____ _____    ______ ____
ROOT
ATOM      1  C   UNL     1       1.303   9.178  19.898  0.00  0.00    +0.000 A 
ATOM      2  C   UNL     1       0.767   8.506  20.994  0.00  0.00    +0.000 A 
ATOM      3  N   UNL     1       0.978   7.209  21.302  0.00  0.00    +0.000 NA
ATOM      4  C   UNL     1       1.753   6.497  20.488  0.00  0.00    +0.000 A 
ATOM      5  C   UNL     1       1.920   5.168  20.822  0.00  0.00    +0.000 A 
ATOM      6  C   UNL     1       2.715   4.307  20.058  0.00  0.00    +0.000 A 
ATOM      7  C   UNL     1       3.365   4.819  18.935  0.00  0.00    +0.000 A 
ATOM      8  C   UNL     1       3.225   6.164  18.578  0.00  0.00    +0.000 A 
ATOM      9  C   UNL     1       2.391   7.032  19.345  0.00  0.00    +0.000 A 
ATOM     10  C   UNL     1       2.132   8.401  19.075  0.00  0.00    +0.000 A 
ENDROOT
BRANCH   1  15
ATOM     11  C   UNL     1       1.039  14.746  19.627  0.00  0.00    +0.000 C 
ATOM     12  N   UNL     1       0.668  13.365  19.326  0.00  0.00    +0.000 NA
ATOM     13  C   UNL     1       0.226  12.659  20.554  0.00  0.00    +0.000 C 
ATOM     14  C   UNL     1      -0.148  11.175  20.297  0.00  0.00    +0.000 C 
ATOM     15  N   UNL     1       0.974  10.493  19.641  0.00  0.00    +0.000 N 
ATOM     16  C   UNL     1       1.468  11.164  18.424  0.00  0.00    +0.000 C 
ATOM     17  C   UNL     1       1.812  12.637  18.735  0.00  0.00    +0.000 C 
ENDBRANCH   1  15
BRANCH   6  18
ATOM     18  C   UNL     1       2.873   2.864  20.463  0.00  0.00    +0.000 C 
ATOM     19  F   UNL     1       2.243   1.988  19.635  0.00  0.00    +0.000 F 
ATOM     20  F   UNL     1       4.176   2.471  20.501  0.00  0.00    +0.000 F 
ATOM     21  F   UNL     1       2.372   2.623  21.708  0.00  0.00    +0.000 F 
ENDBRANCH   6  18
BRANCH   8  22
ATOM     22  N   UNL     1       3.988   6.596  17.437  0.00  0.00    +0.000 N 
ATOM     23  H   UNL     1       3.552   6.481  16.526  0.00  0.00    +0.000 HD
BRANCH  22  24
ATOM     24  S   UNL     1       5.663   6.390  17.511  0.00  0.00    +0.000 S 
ATOM     25  O   UNL     1       6.298   7.645  17.178  0.00  0.00    +0.000 OA
ATOM     26  O   UNL     1       5.985   5.674  18.727  0.00  0.00    +0.000 OA
BRANCH  24  27
ATOM     27  C   UNL     1       5.973   5.263  16.156  0.00  0.00    +0.000 A 
ATOM     28  C   UNL     1       5.260   4.057  16.089  0.00  0.00    +0.000 A 
ATOM     29  C   UNL     1       5.406   3.222  14.975  0.00  0.00    +0.000 A 
ATOM     30  C   UNL     1       6.250   3.589  13.927  0.00  0.00    +0.000 A 
ATOM     31  C   UNL     1       6.948   4.802  13.992  0.00  0.00    +0.000 A 
ATOM     32  C   UNL     1       6.816   5.649  15.105  0.00  0.00    +0.000 A 
BRANCH  31  33
ATOM     33  N   UNL     1       7.809   5.202  12.870  0.00  0.00    +0.000 N 
ATOM     34  O   UNL     1       7.554   4.736  11.750  0.00  0.00    +0.000 OA
ATOM     35  O   UNL     1       8.745   5.976  13.113  0.00  0.00    +0.000 OA
ENDBRANCH  31  33
ENDBRANCH  24  27
ENDBRANCH  22  24
ENDBRANCH   8  22
TORSDOF 6
ENDMDL
MODEL 6
REMARK VINA RESULT:      -7.8      3.796      6.506
REMARK  Name = 
REMARK  7 active torsions:
REMARK  status: ('A' for Active; 'I' for Inactive)
REMARK    1  A    between atoms: C_1  and  N_2
REMARK    2  A    between atoms: N_5  and  C_6
REMARK    3  A    between atoms: C_11  and  C_12
REMARK    4  A    between atoms: C_17  and  N_18
REMARK    5  A    between atoms: N_18  and  S_19
REMARK    6  A    between atoms: S_19  and  C_22
REMARK    7  A    between atoms: C_26  and  N_27
REMARK                            x       y       z     vdW  Elec       q    Type
REMARK                         _______ _______ _______ _____ _____    ______ ____
ROOT
ATOM      1  C   UNL     1      -2.632  13.402  21.887  0.00  0.00    +0.000 A 
ATOM      2  C   UNL     1      -3.881  13.436  21.272  0.00  0.00    +0.000 A 
ATOM      3  N   UNL     1      -4.194  12.861  20.092  0.00  0.00    +0.000 NA
ATOM      4  C   UNL     1      -3.229  12.214  19.444  0.00  0.00    +0.000 A 
ATOM      5  C   UNL     1      -3.582  11.665  18.227  0.00  0.00    +0.000 A 
ATOM      6  C   UNL     1      -2.669  10.950  17.444  0.00  0.00    +0.000 A 
ATOM      7  C   UNL     1      -1.369  10.782  17.922  0.00  0.00    +0.000 A 
ATOM      8  C   UNL     1      -0.985  11.316  19.156  0.00  0.00    +0.000 A 
ATOM      9  C   UNL     1      -1.912  12.067  19.939  0.00  0.00    +0.000 A 
ATOM     10  C   UNL     1      -1.646  12.693  21.184  0.00  0.00    +0.000 A 
ENDROOT
BRANCH   1  15
ATOM     11  C   UNL     1      -1.890  17.210  25.898  0.00  0.00    +0.000 C 
ATOM     12  N   UNL     1      -2.021  15.876  25.317  0.00  0.00    +0.000 NA
ATOM     13  C   UNL     1      -0.950  15.628  24.321  0.00  0.00    +0.000 C 
ATOM     14  C   UNL     1      -1.062  14.235  23.646  0.00  0.00    +0.000 C 
ATOM     15  N   UNL     1      -2.403  14.077  23.068  0.00  0.00    +0.000 N 
ATOM     16  C   UNL     1      -3.508  14.332  24.011  0.00  0.00    +0.000 C 
ATOM     17  C   UNL     1      -3.338  15.723  24.660  0.00  0.00    +0.000 C 
ENDBRANCH   1  15
BRANCH   6  18
ATOM     18  C   UNL     1      -3.099  10.364  16.124  0.00  0.00    +0.000 C 
ATOM     19  F   UNL     1      -2.699   9.078  15.936  0.00  0.00    +0.000 F 
ATOM     20  F   UNL     1      -4.452  10.360  15.971  0.00  0.00    +0.000 F 
ATOM     21  F   UNL     1      -2.603  11.065  15.066  0.00  0.00    +0.000 F 
ENDBRANCH   6  18
BRANCH   8  22
ATOM     22  N   UNL     1       0.362  11.030  19.575  0.00  0.00    +0.000 N 
ATOM     23  H   UNL     1       1.095  11.174  18.886  0.00  0.00    +0.000 HD
BRANCH  22  24
ATOM     24  S   UNL     1       0.574   9.748  20.654  0.00  0.00    +0.000 S 
ATOM     25  O   UNL     1       1.441  10.185  21.725  0.00  0.00    +0.000 OA
ATOM     26  O   UNL     1      -0.718   9.151  20.919  0.00  0.00    +0.000 OA
BRANCH  24  27
ATOM     27  C   UNL     1       1.494   8.567  19.674  0.00  0.00    +0.000 A 
ATOM     28  C   UNL     1       1.970   8.945  18.412  0.00  0.00    +0.000 A 
ATOM     29  C   UNL     1       2.790   8.073  17.686  0.00  0.00    +0.000 A 
ATOM     30  C   UNL     1       3.142   6.833  18.217  0.00  0.00    +0.000 A 
ATOM     31  C   UNL     1       2.676   6.466  19.487  0.00  0.00    +0.000 A 
ATOM     32  C   UNL     1       1.848   7.328  20.225  0.00  0.00    +0.000 A 
BRANCH  31  33
ATOM     33  N   UNL     1       3.077   5.173  20.059  0.00  0.00    +0.000 N 
ATOM     34  O   UNL     1       4.024   4.574  19.527  0.00  0.00    +0.000 OA
ATOM     35  O   UNL     1       2.440   4.754  21.034  0.00  0.00    +0.000 OA
ENDBRANCH  31  33
ENDBRANCH  24  27
ENDBRANCH  22  24
ENDBRANCH   8  22
TORSDOF 6
ENDMDL
MODEL 7
REMARK VINA RESULT:      -7.8      6.842     10.246
REMARK  Name = 
REMARK  7 active torsions:
REMARK  status: ('A' for Active; 'I' for Inactive)
REMARK    1  A    between atoms: C_1  and  N_2
REMARK    2  A    between atoms: N_5  and  C_6
REMARK    3  A    between atoms: C_11  and  C_12
REMARK    4  A    between atoms: C_17  and  N_18
REMARK    5  A    between atoms: N_18  and  S_19
REMARK    6  A    between atoms: S_19  and  C_22
REMARK    7  A    between atoms: C_26  and  N_27
REMARK                            x       y       z     vdW  Elec       q    Type
REMARK                         _______ _______ _______ _____ _____    ______ ____
ROOT
ATOM      1  C   UNL     1       1.489   9.934  19.441  0.00  0.00    +0.000 A 
ATOM      2  C   UNL     1       0.804   9.481  20.566  0.00  0.00    +0.000 A 
ATOM      3  N   UNL     1       0.792   8.211  21.022  0.00  0.00    +0.000 NA
ATOM      4  C   UNL     1       1.481   7.301  20.339  0.00  0.00    +0.000 A 
ATOM      5  C   UNL     1       1.420   6.010  20.822  0.00  0.00    +0.000 A 
ATOM      6  C   UNL     1       2.104   4.955  20.206  0.00  0.00    +0.000 A 
ATOM      7  C   UNL     1       2.878   5.231  19.079  0.00  0.00    +0.000 A 
ATOM      8  C   UNL     1       2.969   6.531  18.573  0.00  0.00    +0.000 A 
ATOM      9  C   UNL     1       2.249   7.599  19.188  0.00  0.00    +0.000 A 
ATOM     10  C   UNL     1       2.222   8.950  18.759  0.00  0.00    +0.000 A 
ENDROOT
BRANCH   1  15
ATOM     11  C   UNL     1       1.693  15.486  18.918  0.00  0.00    +0.000 C 
ATOM     12  N   UNL     1       1.416  14.107  18.523  0.00  0.00    +0.000 NA
ATOM     13  C   UNL     1       0.434  13.483  19.443  0.00  0.00    +0.000 C 
ATOM     14  C   UNL     1       0.129  12.002  19.090  0.00  0.00    +0.000 C 
ATOM     15  N   UNL     1       1.386  11.245  19.025  0.00  0.00    +0.000 N 
ATOM     16  C   UNL     1       2.408  11.833  18.139  0.00  0.00    +0.000 C 
ATOM     17  C   UNL     1       2.660  13.306  18.528  0.00  0.00    +0.000 C 
ENDBRANCH   1  15
BRANCH   6  18
ATOM     18  C   UNL     1       2.012   3.561  20.771  0.00  0.00    +0.000 C 
ATOM     19  F   UNL     1       0.744   3.173  21.076  0.00  0.00    +0.000 F 
ATOM     20  F   UNL     1       2.495   2.618  19.916  0.00  0.00    +0.000 F 
ATOM     21  F   UNL     1       2.727   3.427  21.923  0.00  0.00    +0.000 F 
ENDBRANCH   6  18
BRANCH   8  22
ATOM     22  N   UNL     1       3.843   6.708  17.444  0.00  0.00    +0.000 N 
ATOM     23  H   UNL     1       3.458   6.487  16.529  0.00  0.00    +0.000 HD
BRANCH  22  24
ATOM     24  S   UNL     1       5.482   6.374  17.681  0.00  0.00    +0.000 S 
ATOM     25  O   UNL     1       6.236   7.588  17.465  0.00  0.00    +0.000 OA
ATOM     26  O   UNL     1       5.622   5.598  18.894  0.00  0.00    +0.000 OA
BRANCH  24  27
ATOM     27  C   UNL     1       5.851   5.270  16.321  0.00  0.00    +0.000 A 
ATOM     28  C   UNL     1       5.144   4.066  16.203  0.00  0.00    +0.000 A 
ATOM     29  C   UNL     1       5.339   3.250  15.083  0.00  0.00    +0.000 A 
ATOM     30  C   UNL     1       6.226   3.635  14.079  0.00  0.00    +0.000 A 
ATOM     31  C   UNL     1       6.920   4.848  14.194  0.00  0.00    +0.000 A 
ATOM     32  C   UNL     1       6.738   5.675  15.315  0.00  0.00    +0.000 A 
BRANCH  31  33
ATOM     33  N   UNL     1       7.828   5.267  13.118  0.00  0.00    +0.000 N 
ATOM     34  O   UNL     1       8.767   6.021  13.414  0.00  0.00    +0.000 OA
ATOM     35  O   UNL     1       7.596   4.849  11.975  0.00  0.00    +0.000 OA
ENDBRANCH  31  33
ENDBRANCH  24  27
ENDBRANCH  22  24
ENDBRANCH   8  22
TORSDOF 6
ENDMDL
MODEL 8
REMARK VINA RESULT:      -7.7      6.675     10.219
REMARK  Name = 
REMARK  7 active torsions:
REMARK  status: ('A' for Active; 'I' for Inactive)
REMARK    1  A    between atoms: C_1  and  N_2
REMARK    2  A    between atoms: N_5  and  C_6
REMARK    3  A    between atoms: C_11  and  C_12
REMARK    4  A    between atoms: C_17  and  N_18
REMARK    5  A    between atoms: N_18  and  S_19
REMARK    6  A    between atoms: S_19  and  C_22
REMARK    7  A    between atoms: C_26  and  N_27
REMARK                            x       y       z     vdW  Elec       q    Type
REMARK                         _______ _______ _______ _____ _____    ______ ____
ROOT
ATOM      1  C   UNL     1       1.254   9.038  20.114  0.00  0.00    +0.000 A 
ATOM      2  C   UNL     1       0.722   8.303  21.170  0.00  0.00    +0.000 A 
ATOM      3  N   UNL     1       0.960   6.998  21.420  0.00  0.00    +0.000 NA
ATOM      4  C   UNL     1       1.761   6.344  20.583  0.00  0.00    +0.000 A 
ATOM      5  C   UNL     1       1.956   5.005  20.858  0.00  0.00    +0.000 A 
ATOM      6  C   UNL     1       2.781   4.199  20.065  0.00  0.00    +0.000 A 
ATOM      7  C   UNL     1       3.431   4.779  18.975  0.00  0.00    +0.000 A 
ATOM      8  C   UNL     1       3.263   6.136  18.679  0.00  0.00    +0.000 A 
ATOM      9  C   UNL     1       2.400   6.947  19.475  0.00  0.00    +0.000 A 
ATOM     10  C   UNL     1       2.111   8.320  19.266  0.00  0.00    +0.000 A 
ENDROOT
BRANCH   1  15
ATOM     11  C   UNL     1      -1.344  13.970  19.853  0.00  0.00    +0.000 C 
ATOM     12  N   UNL     1      -0.241  13.022  19.716  0.00  0.00    +0.000 NA
ATOM     13  C   UNL     1      -0.588  11.948  18.753  0.00  0.00    +0.000 C 
ATOM     14  C   UNL     1       0.538  10.890  18.594  0.00  0.00    +0.000 C 
ATOM     15  N   UNL     1       0.897  10.355  19.914  0.00  0.00    +0.000 N 
ATOM     16  C   UNL     1       1.231  11.383  20.918  0.00  0.00    +0.000 C 
ATOM     17  C   UNL     1       0.084  12.412  21.024  0.00  0.00    +0.000 C 
ENDBRANCH   1  15
BRANCH   6  18
ATOM     18  C   UNL     1       2.968   2.743  20.404  0.00  0.00    +0.000 C 
ATOM     19  F   UNL     1       2.438   2.385  21.604  0.00  0.00    +0.000 F 
ATOM     20  F   UNL     1       2.402   1.915  19.484  0.00  0.00    +0.000 F 
ATOM     21  F   UNL     1       4.285   2.396  20.463  0.00  0.00    +0.000 F 
ENDBRANCH   6  18
BRANCH   8  22
ATOM     22  N   UNL     1       4.029   6.638  17.570  0.00  0.00    +0.000 N 
ATOM     23  H   UNL     1       3.587   6.599  16.655  0.00  0.00    +0.000 HD
BRANCH  22  24
ATOM     24  S   UNL     1       5.700   6.397  17.618  0.00  0.00    +0.000 S 
ATOM     25  O   UNL     1       6.356   7.647  17.307  0.00  0.00    +0.000 OA
ATOM     26  O   UNL     1       6.022   5.647  18.814  0.00  0.00    +0.000 OA
BRANCH  24  27
ATOM     27  C   UNL     1       5.971   5.296  16.234  0.00  0.00    +0.000 A 
ATOM     28  C   UNL     1       5.197   4.133  16.120  0.00  0.00    +0.000 A 
ATOM     29  C   UNL     1       5.317   3.325  14.983  0.00  0.00    +0.000 A 
ATOM     30  C   UNL     1       6.195   3.677  13.959  0.00  0.00    +0.000 A 
ATOM     31  C   UNL     1       6.955   4.849  14.071  0.00  0.00    +0.000 A 
ATOM     32  C   UNL     1       6.850   5.667  15.208  0.00  0.00    +0.000 A 
BRANCH  31  33
ATOM     33  N   UNL     1       7.854   5.236  12.974  0.00  0.00    +0.000 N 
ATOM     34  O   UNL     1       8.779   6.020  13.233  0.00  0.00    +0.000 OA
ATOM     35  O   UNL     1       7.628   4.761  11.853  0.00  0.00    +0.000 OA
ENDBRANCH  31  33
ENDBRANCH  24  27
ENDBRANCH  22  24
ENDBRANCH   8  22
TORSDOF 6
ENDMDL
MODEL 9
REMARK VINA RESULT:      -7.7      6.406      9.536
REMARK  Name = 
REMARK  7 active torsions:
REMARK  status: ('A' for Active; 'I' for Inactive)
REMARK    1  A    between atoms: C_1  and  N_2
REMARK    2  A    between atoms: N_5  and  C_6
REMARK    3  A    between atoms: C_11  and  C_12
REMARK    4  A    between atoms: C_17  and  N_18
REMARK    5  A    between atoms: N_18  and  S_19
REMARK    6  A    between atoms: S_19  and  C_22
REMARK    7  A    between atoms: C_26  and  N_27
REMARK                            x       y       z     vdW  Elec       q    Type
REMARK                         _______ _______ _______ _____ _____    ______ ____
ROOT
ATOM      1  C   UNL     1       1.235   9.322  19.925  0.00  0.00    +0.000 A 
ATOM      2  C   UNL     1       1.543   9.720  18.627  0.00  0.00    +0.000 A 
ATOM      3  N   UNL     1       2.268   9.010  17.736  0.00  0.00    +0.000 NA
ATOM      4  C   UNL     1       2.745   7.831  18.127  0.00  0.00    +0.000 A 
ATOM      5  C   UNL     1       3.504   7.150  17.196  0.00  0.00    +0.000 A 
ATOM      6  C   UNL     1       4.061   5.895  17.471  0.00  0.00    +0.000 A 
ATOM      7  C   UNL     1       3.825   5.319  18.719  0.00  0.00    +0.000 A 
ATOM      8  C   UNL     1       3.049   5.979  19.677  0.00  0.00    +0.000 A 
ATOM      9  C   UNL     1       2.506   7.270  19.403  0.00  0.00    +0.000 A 
ATOM     10  C   UNL     1       1.738   8.064  20.293  0.00  0.00    +0.000 A 
ENDROOT
BRANCH   1  15
ATOM     11  C   UNL     1      -2.593  11.833  23.115  0.00  0.00    +0.000 C 
ATOM     12  N   UNL     1      -1.276  11.599  22.527  0.00  0.00    +0.000 NA
ATOM     13  C   UNL     1      -1.326  11.747  21.051  0.00  0.00    +0.000 C 
ATOM     14  C   UNL     1       0.042  11.473  20.370  0.00  0.00    +0.000 C 
ATOM     15  N   UNL     1       0.537  10.152  20.776  0.00  0.00    +0.000 N 
ATOM     16  C   UNL     1       0.587   9.942  22.236  0.00  0.00    +0.000 C 
ATOM     17  C   UNL     1      -0.793  10.240  22.860  0.00  0.00    +0.000 C 
ENDBRANCH   1  15
BRANCH   6  18
ATOM     18  C   UNL     1       4.880   5.185  16.423  0.00  0.00    +0.000 C 
ATOM     19  F   UNL     1       6.140   4.874  16.828  0.00  0.00    +0.000 F 
ATOM     20  F   UNL     1       4.315   4.012  16.025  0.00  0.00    +0.000 F 
ATOM     21  F   UNL     1       5.028   5.934  15.294  0.00  0.00    +0.000 F 
ENDBRANCH   6  18
BRANCH   8  22
ATOM     22  N   UNL     1       2.822   5.265  20.905  0.00  0.00    +0.000 N 
ATOM     23  H   UNL     1       3.613   5.183  21.539  0.00  0.00    +0.000 HD
BRANCH  22  24
ATOM     24  S   UNL     1       1.755   3.957  20.846  0.00  0.00    +0.000 S 
ATOM     25  O   UNL     1       1.452   3.547  22.200  0.00  0.00    +0.000 OA
ATOM     26  O   UNL     1       0.711   4.257  19.891  0.00  0.00    +0.000 OA
BRANCH  24  27
ATOM     27  C   UNL     1       2.763   2.670  20.116  0.00  0.00    +0.000 A 
ATOM     28  C   UNL     1       2.627   2.384  18.751  0.00  0.00    +0.000 A 
ATOM     29  C   UNL     1       3.488   1.464  18.142  0.00  0.00    +0.000 A 
ATOM     30  C   UNL     1       4.488   0.839  18.886  0.00  0.00    +0.000 A 
ATOM     31  C   UNL     1       4.631   1.141  20.247  0.00  0.00    +0.000 A 
ATOM     32  C   UNL     1       3.770   2.058  20.873  0.00  0.00    +0.000 A 
BRANCH  31  33
ATOM     33  N   UNL     1       5.708   0.507  21.020  0.00  0.00    +0.000 N 
ATOM     34  O   UNL     1       6.142  -0.584  20.621  0.00  0.00    +0.000 OA
ATOM     35  O   UNL     1       6.112   1.096  22.031  0.00  0.00    +0.000 OA
ENDBRANCH  31  33
ENDBRANCH  24  27
ENDBRANCH  22  24
ENDBRANCH   8  22
TORSDOF 6
ENDMDL
