MODEL 1
REMARK VINA RESULT:      -7.1      0.000      0.000
REMARK  Name = 
REMARK  7 active torsions:
REMARK  status: ('A' for Active; 'I' for Inactive)
REMARK    1  A    between atoms: C_1  and  N_2
REMARK    2  A    between atoms: C_5  and  N_6
REMARK    3  A    between atoms: C_10  and  C_11
REMARK    4  A    between atoms: C_11  and  N_12
REMARK    5  A    between atoms: N_12  and  C_13
REMARK    6  A    between atoms: C_13  and  C_14
REMARK    7  A    between atoms: C_17  and  C_18
REMARK                            x       y       z     vdW  Elec       q    Type
REMARK                         _______ _______ _______ _____ _____    ______ ____
ROOT
ATOM      1  N   UNL     1       3.292   3.382  19.029  0.00  0.00    +0.000 N 
ATOM      2  C   UNL     1       2.818   2.008  18.954  0.00  0.00    +0.000 C 
ATOM      3  C   UNL     1       1.318   2.155  18.732  0.00  0.00    +0.000 C 
ATOM      4  C   UNL     1       0.967   3.403  19.524  0.00  0.00    +0.000 C 
ATOM      5  C   UNL     1       2.202   4.311  19.378  0.00  0.00    +0.000 C 
ENDROOT
BRANCH   1  10
ATOM      6  C   UNL     1       6.710   4.697  14.210  0.00  0.00    +0.000 C 
ATOM      7  N   UNL     1       5.443   4.319  14.822  0.00  0.00    +0.000 N 
ATOM      8  C   UNL     1       5.482   4.280  16.232  0.00  0.00    +0.000 A 
ATOM      9  C   UNL     1       4.339   3.889  16.910  0.00  0.00    +0.000 A 
ATOM     10  C   UNL     1       4.370   3.844  18.294  0.00  0.00    +0.000 A 
ATOM     11  N   UNL     1       5.491   4.198  18.949  0.00  0.00    +0.000 NA
ATOM     12  C   UNL     1       6.546   4.564  18.213  0.00  0.00    +0.000 A 
ATOM     13  N   UNL     1       6.597   4.636  16.882  0.00  0.00    +0.000 NA
ATOM     14  H   UNL     1       5.118   3.418  14.483  0.00  0.00    +0.000 HD
ENDBRANCH   1  10
BRANCH   5  15
ATOM     15  C   UNL     1       2.478   5.048  20.720  0.00  0.00    +0.000 C 
BRANCH  15  16
ATOM     16  N   UNL     1       1.894   6.389  20.798  0.00  0.00    +0.000 NA
ATOM     17  H   UNL     1       2.152   6.828  21.681  0.00  0.00    +0.000 HD
BRANCH  16  18
ATOM     18  C   UNL     1       2.224   7.218  19.652  0.00  0.00    +0.000 C 
BRANCH  18  19
ATOM     19  C   UNL     1       1.580   8.563  19.757  0.00  0.00    +0.000 A 
ATOM     20  C   UNL     1       1.004   9.198  20.843  0.00  0.00    +0.000 A 
ATOM     21  N   UNL     1       0.490  10.456  20.600  0.00  0.00    +0.000 NA
ATOM     22  C   UNL     1       0.664  10.770  19.336  0.00  0.00    +0.000 A 
ATOM     23  C   UNL     1       0.241  12.052  18.715  0.00  0.00    +0.000 C 
ATOM     24  S   UNL     1       1.440   9.573  18.376  0.00  0.00    +0.000 S 
ENDBRANCH  18  19
ENDBRANCH  16  18
ENDBRANCH  15  16
ENDBRANCH   5  15
TORSDOF 5
ENDMDL
MODEL 2
REMARK VINA RESULT:      -7.1      2.501      6.110
REMARK  Name = 
REMARK  7 active torsions:
REMARK  status: ('A' for Active; 'I' for Inactive)
REMARK    1  A    between atoms: C_1  and  N_2
REMARK    2  A    between atoms: C_5  and  N_6
REMARK    3  A    between atoms: C_10  and  C_11
REMARK    4  A    between atoms: C_11  and  N_12
REMARK    5  A    between atoms: N_12  and  C_13
REMARK    6  A    between atoms: C_13  and  C_14
REMARK    7  A    between atoms: C_17  and  C_18
REMARK                            x       y       z     vdW  Elec       q    Type
REMARK                         _______ _______ _______ _____ _____    ______ ____
ROOT
ATOM      1  N   UNL     1       5.305   5.403  18.369  0.00  0.00    +0.000 N 
ATOM      2  C   UNL     1       6.433   5.318  19.285  0.00  0.00    +0.000 C 
ATOM      3  C   UNL     1       7.627   5.707  18.423  0.00  0.00    +0.000 C 
ATOM      4  C   UNL     1       7.270   5.151  17.056  0.00  0.00    +0.000 C 
ATOM      5  C   UNL     1       5.740   5.308  16.964  0.00  0.00    +0.000 C 
ENDROOT
BRANCH   1  10
ATOM      6  C   UNL     1       0.944   9.587  18.027  0.00  0.00    +0.000 C 
ATOM      7  N   UNL     1       2.100   8.888  17.481  0.00  0.00    +0.000 N 
ATOM      8  C   UNL     1       2.559   7.829  18.292  0.00  0.00    +0.000 A 
ATOM      9  C   UNL     1       3.682   7.127  17.883  0.00  0.00    +0.000 A 
ATOM     10  C   UNL     1       4.141   6.089  18.675  0.00  0.00    +0.000 A 
ATOM     11  N   UNL     1       3.483   5.767  19.804  0.00  0.00    +0.000 NA
ATOM     12  C   UNL     1       2.407   6.496  20.120  0.00  0.00    +0.000 A 
ATOM     13  N   UNL     1       1.901   7.508  19.412  0.00  0.00    +0.000 NA
ATOM     14  H   UNL     1       2.875   9.524  17.312  0.00  0.00    +0.000 HD
ENDBRANCH   1  10
BRANCH   5  15
ATOM     15  C   UNL     1       5.124   4.072  16.250  0.00  0.00    +0.000 C 
BRANCH  15  16
ATOM     16  N   UNL     1       4.557   3.075  17.162  0.00  0.00    +0.000 NA
ATOM     17  H   UNL     1       4.752   3.336  18.127  0.00  0.00    +0.000 HD
BRANCH  16  18
ATOM     18  C   UNL     1       3.143   2.835  16.930  0.00  0.00    +0.000 C 
BRANCH  18  19
ATOM     19  C   UNL     1       2.375   2.857  18.212  0.00  0.00    +0.000 A 
ATOM     20  C   UNL     1       1.071   3.239  18.469  0.00  0.00    +0.000 A 
ATOM     21  N   UNL     1       0.663   3.139  19.784  0.00  0.00    +0.000 NA
ATOM     22  C   UNL     1       1.655   2.696  20.523  0.00  0.00    +0.000 A 
ATOM     23  C   UNL     1       1.578   2.457  21.989  0.00  0.00    +0.000 C 
ATOM     24  S   UNL     1       3.123   2.387  19.685  0.00  0.00    +0.000 S 
ENDBRANCH  18  19
ENDBRANCH  16  18
ENDBRANCH  15  16
ENDBRANCH   5  15
TORSDOF 5
ENDMDL
MODEL 3
REMARK VINA RESULT:      -7.1      2.426      6.325
REMARK  Name = 
REMARK  7 active torsions:
REMARK  status: ('A' for Active; 'I' for Inactive)
REMARK    1  A    between atoms: C_1  and  N_2
REMARK    2  A    between atoms: C_5  and  N_6
REMARK    3  A    between atoms: C_10  and  C_11
REMARK    4  A    between atoms: C_11  and  N_12
REMARK    5  A    between atoms: N_12  and  C_13
REMARK    6  A    between atoms: C_13  and  C_14
REMARK    7  A    between atoms: C_17  and  C_18
REMARK                            x       y       z     vdW  Elec       q    Type
REMARK                         _______ _______ _______ _____ _____    ______ ____
ROOT
ATOM      1  N   UNL     1       5.219   5.592  18.217  0.00  0.00    +0.000 N 
ATOM      2  C   UNL     1       6.382   5.515  19.088  0.00  0.00    +0.000 C 
ATOM      3  C   UNL     1       7.535   5.939  18.189  0.00  0.00    +0.000 C 
ATOM      4  C   UNL     1       7.137   5.396  16.827  0.00  0.00    +0.000 C 
ATOM      5  C   UNL     1       5.602   5.526  16.795  0.00  0.00    +0.000 C 
ENDROOT
BRANCH   1  10
ATOM      6  C   UNL     1       0.840   9.771  18.186  0.00  0.00    +0.000 C 
ATOM      7  N   UNL     1       1.994   9.115  17.587  0.00  0.00    +0.000 N 
ATOM      8  C   UNL     1       2.464   8.006  18.322  0.00  0.00    +0.000 A 
ATOM      9  C   UNL     1       3.585   7.338  17.858  0.00  0.00    +0.000 A 
ATOM     10  C   UNL     1       4.055   6.251  18.577  0.00  0.00    +0.000 A 
ATOM     11  N   UNL     1       3.408   5.852  19.687  0.00  0.00    +0.000 NA
ATOM     12  C   UNL     1       2.332   6.555  20.059  0.00  0.00    +0.000 A 
ATOM     13  N   UNL     1       1.816   7.609  19.424  0.00  0.00    +0.000 NA
ATOM     14  H   UNL     1       2.765   9.763  17.454  0.00  0.00    +0.000 HD
ENDBRANCH   1  10
BRANCH   5  15
ATOM     15  C   UNL     1       4.983   4.288  16.086  0.00  0.00    +0.000 C 
BRANCH  15  16
ATOM     16  N   UNL     1       5.042   3.054  16.874  0.00  0.00    +0.000 NA
ATOM     17  H   UNL     1       5.559   3.218  17.737  0.00  0.00    +0.000 HD
BRANCH  16  18
ATOM     18  C   UNL     1       3.733   2.474  17.117  0.00  0.00    +0.000 C 
BRANCH  18  19
ATOM     19  C   UNL     1       3.393   2.499  18.573  0.00  0.00    +0.000 A 
ATOM     20  C   UNL     1       4.210   2.399  19.684  0.00  0.00    +0.000 A 
ATOM     21  N   UNL     1       3.572   2.457  20.907  0.00  0.00    +0.000 NA
ATOM     22  C   UNL     1       2.277   2.589  20.725  0.00  0.00    +0.000 A 
ATOM     23  C   UNL     1       1.274   2.692  21.817  0.00  0.00    +0.000 C 
ATOM     24  S   UNL     1       1.761   2.640  19.086  0.00  0.00    +0.000 S 
ENDBRANCH  18  19
ENDBRANCH  16  18
ENDBRANCH  15  16
ENDBRANCH   5  15
TORSDOF 5
ENDMDL
MODEL 4
REMARK VINA RESULT:      -7.0      2.349      6.724
REMARK  Name = 
REMARK  7 active torsions:
REMARK  status: ('A' for Active; 'I' for Inactive)
REMARK    1  A    between atoms: C_1  and  N_2
REMARK    2  A    between atoms: C_5  and  N_6
REMARK    3  A    between atoms: C_10  and  C_11
REMARK    4  A    between atoms: C_11  and  N_12
REMARK    5  A    between atoms: N_12  and  C_13
REMARK    6  A    between atoms: C_13  and  C_14
REMARK    7  A    between atoms: C_17  and  C_18
REMARK                            x       y       z     vdW  Elec       q    Type
REMARK                         _______ _______ _______ _____ _____    ______ ____
ROOT
ATOM      1  N   UNL     1       2.100   4.596  19.900  0.00  0.00    +0.000 N 
ATOM      2  C   UNL     1       0.930   3.808  20.259  0.00  0.00    +0.000 C 
ATOM      3  C   UNL     1       1.414   2.954  21.424  0.00  0.00    +0.000 C 
ATOM      4  C   UNL     1       2.867   2.678  21.077  0.00  0.00    +0.000 C 
ATOM      5  C   UNL     1       3.344   3.963  20.373  0.00  0.00    +0.000 C 
ENDROOT
BRANCH   1  10
ATOM      6  C   UNL     1       0.864  10.401  21.086  0.00  0.00    +0.000 C 
ATOM      7  N   UNL     1       0.967   9.003  21.481  0.00  0.00    +0.000 N 
ATOM      8  C   UNL     1       1.471   8.161  20.467  0.00  0.00    +0.000 A 
ATOM      9  C   UNL     1       1.568   6.804  20.728  0.00  0.00    +0.000 A 
ATOM     10  C   UNL     1       2.057   5.971  19.737  0.00  0.00    +0.000 A 
ATOM     11  N   UNL     1       2.447   6.490  18.558  0.00  0.00    +0.000 NA
ATOM     12  C   UNL     1       2.320   7.811  18.394  0.00  0.00    +0.000 A 
ATOM     13  N   UNL     1       1.862   8.681  19.297  0.00  0.00    +0.000 NA
ATOM     14  H   UNL     1       0.072   8.635  21.791  0.00  0.00    +0.000 HD
ENDBRANCH   1  10
BRANCH   5  15
ATOM     15  C   UNL     1       4.291   3.598  19.194  0.00  0.00    +0.000 C 
BRANCH  15  16
ATOM     16  N   UNL     1       4.845   4.757  18.490  0.00  0.00    +0.000 NA
ATOM     17  H   UNL     1       4.630   5.611  19.004  0.00  0.00    +0.000 HD
BRANCH  16  18
ATOM     18  C   UNL     1       6.263   4.624  18.208  0.00  0.00    +0.000 C 
BRANCH  18  19
ATOM     19  C   UNL     1       6.527   4.666  16.737  0.00  0.00    +0.000 A 
ATOM     20  C   UNL     1       7.385   5.465  16.004  0.00  0.00    +0.000 A 
ATOM     21  N   UNL     1       7.389   5.250  14.640  0.00  0.00    +0.000 NA
ATOM     22  C   UNL     1       6.530   4.302  14.338  0.00  0.00    +0.000 A 
ATOM     23  C   UNL     1       6.271   3.799  12.964  0.00  0.00    +0.000 C 
ATOM     24  S   UNL     1       5.672   3.630  15.668  0.00  0.00    +0.000 S 
ENDBRANCH  18  19
ENDBRANCH  16  18
ENDBRANCH  15  16
ENDBRANCH   5  15
TORSDOF 5
ENDMDL
MODEL 5
REMARK VINA RESULT:      -7.0      1.448      1.702
REMARK  Name = 
REMARK  7 active torsions:
REMARK  status: ('A' for Active; 'I' for Inactive)
REMARK    1  A    between atoms: C_1  and  N_2
REMARK    2  A    between atoms: C_5  and  N_6
REMARK    3  A    between atoms: C_10  and  C_11
REMARK    4  A    between atoms: C_11  and  N_12
REMARK    5  A    between atoms: N_12  and  C_13
REMARK    6  A    between atoms: C_13  and  C_14
REMARK    7  A    between atoms: C_17  and  C_18
REMARK                            x       y       z     vdW  Elec       q    Type
REMARK                         _______ _______ _______ _____ _____    ______ ____
ROOT
ATOM      1  N   UNL     1       4.138   3.601  18.294  0.00  0.00    +0.000 N 
ATOM      2  C   UNL     1       4.231   2.545  19.291  0.00  0.00    +0.000 C 
ATOM      3  C   UNL     1       3.127   1.575  18.893  0.00  0.00    +0.000 C 
ATOM      4  C   UNL     1       2.040   2.485  18.346  0.00  0.00    +0.000 C 
ATOM      5  C   UNL     1       2.808   3.630  17.660  0.00  0.00    +0.000 C 
ENDROOT
BRANCH   1  10
ATOM      6  C   UNL     1       7.663   4.992  13.574  0.00  0.00    +0.000 C 
ATOM      7  N   UNL     1       6.380   4.616  14.152  0.00  0.00    +0.000 N 
ATOM      8  C   UNL     1       6.392   4.541  15.561  0.00  0.00    +0.000 A 
ATOM      9  C   UNL     1       5.231   4.148  16.208  0.00  0.00    +0.000 A 
ATOM     10  C   UNL     1       5.236   4.068  17.590  0.00  0.00    +0.000 A 
ATOM     11  N   UNL     1       6.348   4.391  18.276  0.00  0.00    +0.000 NA
ATOM     12  C   UNL     1       7.422   4.762  17.569  0.00  0.00    +0.000 A 
ATOM     13  N   UNL     1       7.498   4.867  16.241  0.00  0.00    +0.000 NA
ATOM     14  H   UNL     1       6.050   3.727  13.785  0.00  0.00    +0.000 HD
ENDBRANCH   1  10
BRANCH   5  15
ATOM     15  C   UNL     1       2.077   4.980  17.911  0.00  0.00    +0.000 C 
BRANCH  15  16
ATOM     16  N   UNL     1       2.068   5.405  19.313  0.00  0.00    +0.000 NA
ATOM     17  H   UNL     1       2.331   4.625  19.914  0.00  0.00    +0.000 HD
BRANCH  16  18
ATOM     18  C   UNL     1       2.882   6.584  19.552  0.00  0.00    +0.000 C 
BRANCH  18  19
ATOM     19  C   UNL     1       2.059   7.831  19.476  0.00  0.00    +0.000 A 
ATOM     20  C   UNL     1       1.832   8.690  18.416  0.00  0.00    +0.000 A 
ATOM     21  N   UNL     1       1.011   9.768  18.682  0.00  0.00    +0.000 NA
ATOM     22  C   UNL     1       0.627   9.734  19.938  0.00  0.00    +0.000 A 
ATOM     23  C   UNL     1      -0.269  10.732  20.578  0.00  0.00    +0.000 C 
ATOM     24  S   UNL     1       1.236   8.419  20.863  0.00  0.00    +0.000 S 
ENDBRANCH  18  19
ENDBRANCH  16  18
ENDBRANCH  15  16
ENDBRANCH   5  15
TORSDOF 5
ENDMDL
MODEL 6
REMARK VINA RESULT:      -7.0      2.150      6.046
REMARK  Name = 
REMARK  7 active torsions:
REMARK  status: ('A' for Active; 'I' for Inactive)
REMARK    1  A    between atoms: C_1  and  N_2
REMARK    2  A    between atoms: C_5  and  N_6
REMARK    3  A    between atoms: C_10  and  C_11
REMARK    4  A    between atoms: C_11  and  N_12
REMARK    5  A    between atoms: N_12  and  C_13
REMARK    6  A    between atoms: C_13  and  C_14
REMARK    7  A    between atoms: C_17  and  C_18
REMARK                            x       y       z     vdW  Elec       q    Type
REMARK                         _______ _______ _______ _____ _____    ______ ____
ROOT
ATOM      1  N   UNL     1       2.324   4.450  19.218  0.00  0.00    +0.000 N 
ATOM      2  C   UNL     1       1.177   3.565  19.083  0.00  0.00    +0.000 C 
ATOM      3  C   UNL     1       1.398   2.519  20.168  0.00  0.00    +0.000 C 
ATOM      4  C   UNL     1       2.909   2.370  20.209  0.00  0.00    +0.000 C 
ATOM      5  C   UNL     1       3.443   3.783  19.908  0.00  0.00    +0.000 C 
ENDROOT
BRANCH   1  10
ATOM      6  C   UNL     1       1.099   9.907  21.533  0.00  0.00    +0.000 C 
ATOM      7  N   UNL     1       1.319   8.474  21.669  0.00  0.00    +0.000 N 
ATOM      8  C   UNL     1       1.672   7.835  20.462  0.00  0.00    +0.000 A 
ATOM      9  C   UNL     1       1.861   6.462  20.475  0.00  0.00    +0.000 A 
ATOM     10  C   UNL     1       2.204   5.828  19.293  0.00  0.00    +0.000 A 
ATOM     11  N   UNL     1       2.369   6.549  18.170  0.00  0.00    +0.000 NA
ATOM     12  C   UNL     1       2.168   7.869  18.250  0.00  0.00    +0.000 A 
ATOM     13  N   UNL     1       1.839   8.555  19.346  0.00  0.00    +0.000 NA
ATOM     14  H   UNL     1       0.503   8.005  22.055  0.00  0.00    +0.000 HD
ENDBRANCH   1  10
BRANCH   5  15
ATOM     15  C   UNL     1       4.705   3.689  19.004  0.00  0.00    +0.000 C 
BRANCH  15  16
ATOM     16  N   UNL     1       4.457   3.095  17.688  0.00  0.00    +0.000 NA
ATOM     17  H   UNL     1       3.500   2.749  17.639  0.00  0.00    +0.000 HD
BRANCH  16  18
ATOM     18  C   UNL     1       4.776   3.993  16.592  0.00  0.00    +0.000 C 
BRANCH  18  19
ATOM     19  C   UNL     1       5.886   4.924  16.965  0.00  0.00    +0.000 A 
ATOM     20  C   UNL     1       7.178   4.656  17.380  0.00  0.00    +0.000 A 
ATOM     21  N   UNL     1       7.964   5.758  17.651  0.00  0.00    +0.000 NA
ATOM     22  C   UNL     1       7.269   6.856  17.453  0.00  0.00    +0.000 A 
ATOM     23  C   UNL     1       7.793   8.235  17.639  0.00  0.00    +0.000 C 
ATOM     24  S   UNL     1       5.644   6.623  16.944  0.00  0.00    +0.000 S 
ENDBRANCH  18  19
ENDBRANCH  16  18
ENDBRANCH  15  16
ENDBRANCH   5  15
TORSDOF 5
ENDMDL
MODEL 7
REMARK VINA RESULT:      -7.0      2.398      6.185
REMARK  Name = 
REMARK  7 active torsions:
REMARK  status: ('A' for Active; 'I' for Inactive)
REMARK    1  A    between atoms: C_1  and  N_2
REMARK    2  A    between atoms: C_5  and  N_6
REMARK    3  A    between atoms: C_10  and  C_11
REMARK    4  A    between atoms: C_11  and  N_12
REMARK    5  A    between atoms: N_12  and  C_13
REMARK    6  A    between atoms: C_13  and  C_14
REMARK    7  A    between atoms: C_17  and  C_18
REMARK                            x       y       z     vdW  Elec       q    Type
REMARK                         _______ _______ _______ _____ _____    ______ ____
ROOT
ATOM      1  N   UNL     1       2.333   4.383  18.828  0.00  0.00    +0.000 N 
ATOM      2  C   UNL     1       1.185   3.563  18.472  0.00  0.00    +0.000 C 
ATOM      3  C   UNL     1       1.271   2.385  19.434  0.00  0.00    +0.000 C 
ATOM      4  C   UNL     1       2.767   2.178  19.603  0.00  0.00    +0.000 C 
ATOM      5  C   UNL     1       3.361   3.598  19.535  0.00  0.00    +0.000 C 
ENDROOT
BRANCH   1  10
ATOM      6  C   UNL     1       1.208   9.556  21.764  0.00  0.00    +0.000 C 
ATOM      7  N   UNL     1       1.402   8.112  21.732  0.00  0.00    +0.000 N 
ATOM      8  C   UNL     1       1.743   7.612  20.458  0.00  0.00    +0.000 A 
ATOM      9  C   UNL     1       1.908   6.244  20.311  0.00  0.00    +0.000 A 
ATOM     10  C   UNL     1       2.238   5.745  19.063  0.00  0.00    +0.000 A 
ATOM     11  N   UNL     1       2.414   6.589  18.030  0.00  0.00    +0.000 NA
ATOM     12  C   UNL     1       2.237   7.894  18.263  0.00  0.00    +0.000 A 
ATOM     13  N   UNL     1       1.922   8.454  19.432  0.00  0.00    +0.000 NA
ATOM     14  H   UNL     1       0.579   7.617  22.063  0.00  0.00    +0.000 HD
ENDBRANCH   1  10
BRANCH   5  15
ATOM     15  C   UNL     1       4.706   3.570  18.754  0.00  0.00    +0.000 C 
BRANCH  15  16
ATOM     16  N   UNL     1       5.791   4.311  19.403  0.00  0.00    +0.000 NA
ATOM     17  H   UNL     1       6.651   3.765  19.371  0.00  0.00    +0.000 HD
BRANCH  16  18
ATOM     18  C   UNL     1       5.964   5.648  18.864  0.00  0.00    +0.000 C 
BRANCH  18  19
ATOM     19  C   UNL     1       6.009   5.626  17.370  0.00  0.00    +0.000 A 
ATOM     20  C   UNL     1       5.273   6.339  16.441  0.00  0.00    +0.000 A 
ATOM     21  N   UNL     1       5.562   6.078  15.116  0.00  0.00    +0.000 NA
ATOM     22  C   UNL     1       6.504   5.164  15.040  0.00  0.00    +0.000 A 
ATOM     23  C   UNL     1       7.074   4.639  13.771  0.00  0.00    +0.000 C 
ATOM     24  S   UNL     1       7.080   4.567  16.545  0.00  0.00    +0.000 S 
ENDBRANCH  18  19
ENDBRANCH  16  18
ENDBRANCH  15  16
ENDBRANCH   5  15
TORSDOF 5
ENDMDL
MODEL 8
REMARK VINA RESULT:      -6.9      2.291      6.511
REMARK  Name = 
REMARK  7 active torsions:
REMARK  status: ('A' for Active; 'I' for Inactive)
REMARK    1  A    between atoms: C_1  and  N_2
REMARK    2  A    between atoms: C_5  and  N_6
REMARK    3  A    between atoms: C_10  and  C_11
REMARK    4  A    between atoms: C_11  and  N_12
REMARK    5  A    between atoms: N_12  and  C_13
REMARK    6  A    between atoms: C_13  and  C_14
REMARK    7  A    between atoms: C_17  and  C_18
REMARK                            x       y       z     vdW  Elec       q    Type
REMARK                         _______ _______ _______ _____ _____    ______ ____
ROOT
ATOM      1  N   UNL     1       2.489   4.859  19.148  0.00  0.00    +0.000 N 
ATOM      2  C   UNL     1       1.531   3.830  18.775  0.00  0.00    +0.000 C 
ATOM      3  C   UNL     1       1.846   2.682  19.726  0.00  0.00    +0.000 C 
ATOM      4  C   UNL     1       3.352   2.777  19.904  0.00  0.00    +0.000 C 
ATOM      5  C   UNL     1       3.650   4.287  19.854  0.00  0.00    +0.000 C 
ENDROOT
BRANCH   1  10
ATOM      6  C   UNL     1       1.801  10.808  18.265  0.00  0.00    +0.000 C 
ATOM      7  N   UNL     1       2.100   9.464  17.788  0.00  0.00    +0.000 N 
ATOM      8  C   UNL     1       1.955   8.465  18.774  0.00  0.00    +0.000 A 
ATOM      9  C   UNL     1       2.258   7.157  18.433  0.00  0.00    +0.000 A 
ATOM     10  C   UNL     1       2.122   6.172  19.396  0.00  0.00    +0.000 A 
ATOM     11  N   UNL     1       1.681   6.494  20.626  0.00  0.00    +0.000 NA
ATOM     12  C   UNL     1       1.410   7.782  20.866  0.00  0.00    +0.000 A 
ATOM     13  N   UNL     1       1.512   8.788  19.996  0.00  0.00    +0.000 NA
ATOM     14  H   UNL     1       3.039   9.404  17.405  0.00  0.00    +0.000 HD
ENDBRANCH   1  10
BRANCH   5  15
ATOM     15  C   UNL     1       4.977   4.538  19.083  0.00  0.00    +0.000 C 
BRANCH  15  16
ATOM     16  N   UNL     1       5.295   3.511  18.088  0.00  0.00    +0.000 NA
ATOM     17  H   UNL     1       5.010   2.595  18.431  0.00  0.00    +0.000 HD
BRANCH  16  18
ATOM     18  C   UNL     1       4.745   3.805  16.776  0.00  0.00    +0.000 C 
BRANCH  18  19
ATOM     19  C   UNL     1       5.791   4.364  15.866  0.00  0.00    +0.000 A 
ATOM     20  C   UNL     1       6.865   5.191  16.137  0.00  0.00    +0.000 A 
ATOM     21  N   UNL     1       7.653   5.530  15.055  0.00  0.00    +0.000 NA
ATOM     22  C   UNL     1       7.172   4.972  13.966  0.00  0.00    +0.000 A 
ATOM     23  C   UNL     1       7.766   5.111  12.610  0.00  0.00    +0.000 C 
ATOM     24  S   UNL     1       5.754   4.026  14.183  0.00  0.00    +0.000 S 
ENDBRANCH  18  19
ENDBRANCH  16  18
ENDBRANCH  15  16
ENDBRANCH   5  15
TORSDOF 5
ENDMDL
MODEL 9
REMARK VINA RESULT:      -6.9      1.359      1.476
REMARK  Name = 
REMARK  7 active torsions:
REMARK  status: ('A' for Active; 'I' for Inactive)
REMARK    1  A    between atoms: C_1  and  N_2
REMARK    2  A    between atoms: C_5  and  N_6
REMARK    3  A    between atoms: C_10  and  C_11
REMARK    4  A    between atoms: C_11  and  N_12
REMARK    5  A    between atoms: N_12  and  C_13
REMARK    6  A    between atoms: C_13  and  C_14
REMARK    7  A    between atoms: C_17  and  C_18
REMARK                            x       y       z     vdW  Elec       q    Type
REMARK                         _______ _______ _______ _____ _____    ______ ____
ROOT
ATOM      1  N   UNL     1       4.111   3.753  18.352  0.00  0.00    +0.000 N 
ATOM      2  C   UNL     1       4.158   2.724  19.380  0.00  0.00    +0.000 C 
ATOM      3  C   UNL     1       3.015   1.789  19.006  0.00  0.00    +0.000 C 
ATOM      4  C   UNL     1       1.968   2.727  18.430  0.00  0.00    +0.000 C 
ATOM      5  C   UNL     1       2.785   3.819  17.713  0.00  0.00    +0.000 C 
ENDROOT
BRANCH   1  10
ATOM      6  C   UNL     1       7.649   4.994  13.600  0.00  0.00    +0.000 C 
ATOM      7  N   UNL     1       6.352   4.702  14.194  0.00  0.00    +0.000 N 
ATOM      8  C   UNL     1       6.382   4.589  15.600  0.00  0.00    +0.000 A 
ATOM      9  C   UNL     1       5.206   4.269  16.260  0.00  0.00    +0.000 A 
ATOM     10  C   UNL     1       5.229   4.153  17.639  0.00  0.00    +0.000 A 
ATOM     11  N   UNL     1       6.375   4.372  18.310  0.00  0.00    +0.000 NA
ATOM     12  C   UNL     1       7.461   4.678  17.592  0.00  0.00    +0.000 A 
ATOM     13  N   UNL     1       7.522   4.811  16.266  0.00  0.00    +0.000 NA
ATOM     14  H   UNL     1       5.948   3.851  13.812  0.00  0.00    +0.000 HD
ENDBRANCH   1  10
BRANCH   5  15
ATOM     15  C   UNL     1       2.110   5.205  17.922  0.00  0.00    +0.000 C 
BRANCH  15  16
ATOM     16  N   UNL     1       2.920   6.155  18.689  0.00  0.00    +0.000 NA
ATOM     17  H   UNL     1       3.884   5.829  18.738  0.00  0.00    +0.000 HD
BRANCH  16  18
ATOM     18  C   UNL     1       2.821   7.515  18.189  0.00  0.00    +0.000 C 
BRANCH  18  19
ATOM     19  C   UNL     1       1.905   8.336  19.038  0.00  0.00    +0.000 A 
ATOM     20  C   UNL     1       1.572   8.213  20.374  0.00  0.00    +0.000 A 
ATOM     21  N   UNL     1       0.680   9.149  20.861  0.00  0.00    +0.000 NA
ATOM     22  C   UNL     1       0.330   9.970  19.897  0.00  0.00    +0.000 A 
ATOM     23  C   UNL     1      -0.612  11.109  20.055  0.00  0.00    +0.000 C 
ATOM     24  S   UNL     1       1.040   9.657  18.363  0.00  0.00    +0.000 S 
ENDBRANCH  18  19
ENDBRANCH  16  18
ENDBRANCH  15  16
ENDBRANCH   5  15
TORSDOF 5
ENDMDL
