MODEL 1
REMARK VINA RESULT:      -6.1      0.000      0.000
REMARK  Name = 
REMARK  6 active torsions:
REMARK  status: ('A' for Active; 'I' for Inactive)
REMARK    1  A    between atoms: C_1  and  O_2
REMARK    2  A    between atoms: O_2  and  C_3
REMARK    3  A    between atoms: C_8  and  O_9
REMARK    4  A    between atoms: O_9  and  C_10
REMARK    5  A    between atoms: C_18  and  C_19
REMARK    6  A    between atoms: C_21  and  C_22
REMARK                            x       y       z     vdW  Elec       q    Type
REMARK                         _______ _______ _______ _____ _____    ______ ____
ROOT
ATOM      1  C   UNL     1      -1.611  15.184  23.847  0.00  0.00    +0.000 A 
ATOM      2  C   UNL     1      -2.415  14.741  24.902  0.00  0.00    +0.000 A 
ATOM      3  C   UNL     1      -3.729  14.352  24.676  0.00  0.00    +0.000 A 
ATOM      4  C   UNL     1      -4.219  14.327  23.375  0.00  0.00    +0.000 A 
ATOM      5  C   UNL     1      -3.429  14.754  22.287  0.00  0.00    +0.000 A 
ATOM      6  C   UNL     1      -2.157  15.307  22.545  0.00  0.00    +0.000 A 
ATOM      7  C   UNL     1      -4.045  14.546  20.901  0.00  0.00    +0.000 C 
ATOM      8  N   UNL     1      -4.616  13.183  20.833  0.00  0.00    +0.000 N 
ATOM      9  C   UNL     1      -4.726  12.464  19.640  0.00  0.00    +0.000 A 
ATOM     10  N   UNL     1      -5.928  12.093  19.268  0.00  0.00    +0.000 NA
ATOM     11  C   UNL     1      -6.108  11.359  18.129  0.00  0.00    +0.000 A 
ATOM     12  N   UNL     1      -5.196  10.962  17.302  0.00  0.00    +0.000 NA
ATOM     13  N   UNL     1      -3.953  11.313  17.676  0.00  0.00    +0.000 N 
ATOM     14  C   UNL     1      -2.782  11.025  17.020  0.00  0.00    +0.000 A 
ATOM     15  C   UNL     1      -2.714  10.382  15.683  0.00  0.00    +0.000 C 
ATOM     16  N   UNL     1      -1.743  11.434  17.710  0.00  0.00    +0.000 NA
ATOM     17  C   UNL     1      -2.254  12.060  18.824  0.00  0.00    +0.000 A 
ATOM     18  C   UNL     1      -3.641  12.023  18.807  0.00  0.00    +0.000 A 
ATOM     19  C   UNL     1      -5.582  12.848  21.912  0.00  0.00    +0.000 C 
ATOM     20  C   UNL     1      -5.609  13.858  23.061  0.00  0.00    +0.000 C 
ENDROOT
BRANCH  17  21
ATOM     21  C   UNL     1      -1.284  12.705  19.753  0.00  0.00    +0.000 C 
ATOM     22  C   UNL     1       0.026  13.053  19.032  0.00  0.00    +0.000 C 
ATOM     23  C   UNL     1       0.969  13.757  19.983  0.00  0.00    +0.000 C 
ATOM     24  O   UNL     1       1.212  12.971  21.148  0.00  0.00    +0.000 OA
ATOM     25  C   UNL     1       0.018  12.664  21.868  0.00  0.00    +0.000 C 
ATOM     26  C   UNL     1      -0.983  11.895  21.012  0.00  0.00    +0.000 C 
ENDBRANCH  17  21
BRANCH   1  28
ATOM     27  C   UNL     1      -0.033  16.748  24.685  0.00  0.00    +0.000 C 
ATOM     28  O   UNL     1      -0.284  15.484  24.063  0.00  0.00    +0.000 OA
ENDBRANCH   1  28
BRANCH   6  29
ATOM     29  O   UNL     1      -1.532  15.883  21.468  0.00  0.00    +0.000 OA
ATOM     30  C   UNL     1      -1.638  17.305  21.346  0.00  0.00    +0.000 C 
ENDBRANCH   6  29
TORSDOF 3
ENDMDL
MODEL 2
REMARK VINA RESULT:      -6.0      2.840      5.426
REMARK  Name = 
REMARK  6 active torsions:
REMARK  status: ('A' for Active; 'I' for Inactive)
REMARK    1  A    between atoms: C_1  and  O_2
REMARK    2  A    between atoms: O_2  and  C_3
REMARK    3  A    between atoms: C_8  and  O_9
REMARK    4  A    between atoms: O_9  and  C_10
REMARK    5  A    between atoms: C_18  and  C_19
REMARK    6  A    between atoms: C_21  and  C_22
REMARK                            x       y       z     vdW  Elec       q    Type
REMARK                         _______ _______ _______ _____ _____    ______ ____
ROOT
ATOM      1  C   UNL     1       0.749  10.057  19.304  0.00  0.00    +0.000 A 
ATOM      2  C   UNL     1       0.955   9.344  20.490  0.00  0.00    +0.000 A 
ATOM      3  C   UNL     1       0.445   9.812  21.695  0.00  0.00    +0.000 A 
ATOM      4  C   UNL     1      -0.345  10.956  21.702  0.00  0.00    +0.000 A 
ATOM      5  C   UNL     1      -0.583  11.690  20.521  0.00  0.00    +0.000 A 
ATOM      6  C   UNL     1       0.077  11.304  19.336  0.00  0.00    +0.000 A 
ATOM      7  C   UNL     1      -1.577  12.847  20.651  0.00  0.00    +0.000 C 
ATOM      8  N   UNL     1      -2.758  12.378  21.409  0.00  0.00    +0.000 N 
ATOM      9  C   UNL     1      -4.035  12.917  21.236  0.00  0.00    +0.000 A 
ATOM     10  N   UNL     1      -4.608  13.460  22.284  0.00  0.00    +0.000 NA
ATOM     11  C   UNL     1      -5.871  13.977  22.196  0.00  0.00    +0.000 A 
ATOM     12  N   UNL     1      -6.627  14.021  21.148  0.00  0.00    +0.000 NA
ATOM     13  N   UNL     1      -6.067  13.450  20.067  0.00  0.00    +0.000 N 
ATOM     14  C   UNL     1      -6.624  13.326  18.818  0.00  0.00    +0.000 A 
ATOM     15  C   UNL     1      -7.913  13.943  18.417  0.00  0.00    +0.000 C 
ATOM     16  N   UNL     1      -5.844  12.631  18.022  0.00  0.00    +0.000 NA
ATOM     17  C   UNL     1      -4.717  12.342  18.757  0.00  0.00    +0.000 A 
ATOM     18  C   UNL     1      -4.822  12.874  20.035  0.00  0.00    +0.000 A 
ATOM     19  C   UNL     1      -2.458  11.770  22.732  0.00  0.00    +0.000 C 
ATOM     20  C   UNL     1      -0.974  11.475  22.962  0.00  0.00    +0.000 C 
ENDROOT
BRANCH  17  21
ATOM     21  C   UNL     1      -3.612  11.625  18.063  0.00  0.00    +0.000 C 
ATOM     22  C   UNL     1      -3.798  11.662  16.540  0.00  0.00    +0.000 C 
ATOM     23  C   UNL     1      -2.633  10.977  15.859  0.00  0.00    +0.000 C 
ATOM     24  O   UNL     1      -2.472   9.640  16.328  0.00  0.00    +0.000 OA
ATOM     25  C   UNL     1      -2.253   9.571  17.737  0.00  0.00    +0.000 C 
ATOM     26  C   UNL     1      -3.406  10.184  18.525  0.00  0.00    +0.000 C 
ENDBRANCH  17  21
BRANCH   1  28
ATOM     27  C   UNL     1       2.164   8.507  18.192  0.00  0.00    +0.000 C 
ATOM     28  O   UNL     1       1.180   9.544  18.101  0.00  0.00    +0.000 OA
ENDBRANCH   1  28
BRANCH   6  29
ATOM     29  O   UNL     1      -0.040  12.175  18.282  0.00  0.00    +0.000 OA
ATOM     30  C   UNL     1       0.921  13.232  18.209  0.00  0.00    +0.000 C 
ENDBRANCH   6  29
TORSDOF 3
ENDMDL
MODEL 3
REMARK VINA RESULT:      -5.8      9.866     12.857
REMARK  Name = 
REMARK  6 active torsions:
REMARK  status: ('A' for Active; 'I' for Inactive)
REMARK    1  A    between atoms: C_1  and  O_2
REMARK    2  A    between atoms: O_2  and  C_3
REMARK    3  A    between atoms: C_8  and  O_9
REMARK    4  A    between atoms: O_9  and  C_10
REMARK    5  A    between atoms: C_18  and  C_19
REMARK    6  A    between atoms: C_21  and  C_22
REMARK                            x       y       z     vdW  Elec       q    Type
REMARK                         _______ _______ _______ _____ _____    ______ ____
ROOT
ATOM      1  C   UNL     1      10.545  14.587  17.797  0.00  0.00    +0.000 A 
ATOM      2  C   UNL     1      10.478  13.374  17.104  0.00  0.00    +0.000 A 
ATOM      3  C   UNL     1      10.409  12.169  17.792  0.00  0.00    +0.000 A 
ATOM      4  C   UNL     1      10.324  12.180  19.181  0.00  0.00    +0.000 A 
ATOM      5  C   UNL     1      10.376  13.388  19.908  0.00  0.00    +0.000 A 
ATOM      6  C   UNL     1      10.617  14.591  19.212  0.00  0.00    +0.000 A 
ATOM      7  C   UNL     1      10.138  13.263  21.414  0.00  0.00    +0.000 C 
ATOM      8  N   UNL     1       8.970  12.383  21.640  0.00  0.00    +0.000 N 
ATOM      9  C   UNL     1       8.141  12.493  22.760  0.00  0.00    +0.000 A 
ATOM     10  N   UNL     1       8.040  11.445  23.542  0.00  0.00    +0.000 NA
ATOM     11  C   UNL     1       7.222  11.469  24.636  0.00  0.00    +0.000 A 
ATOM     12  N   UNL     1       6.492  12.455  25.045  0.00  0.00    +0.000 NA
ATOM     13  N   UNL     1       6.563  13.534  24.245  0.00  0.00    +0.000 N 
ATOM     14  C   UNL     1       5.896  14.723  24.403  0.00  0.00    +0.000 A 
ATOM     15  C   UNL     1       5.074  15.064  25.591  0.00  0.00    +0.000 C 
ATOM     16  N   UNL     1       6.120  15.527  23.389  0.00  0.00    +0.000 NA
ATOM     17  C   UNL     1       7.008  14.864  22.573  0.00  0.00    +0.000 A 
ATOM     18  C   UNL     1       7.324  13.623  23.107  0.00  0.00    +0.000 A 
ATOM     19  C   UNL     1       9.050  11.048  20.991  0.00  0.00    +0.000 C 
ATOM     20  C   UNL     1      10.186  10.915  19.975  0.00  0.00    +0.000 C 
ENDROOT
BRANCH  17  21
ATOM     21  C   UNL     1       7.508  15.590  21.372  0.00  0.00    +0.000 C 
ATOM     22  C   UNL     1       7.495  17.109  21.598  0.00  0.00    +0.000 C 
ATOM     23  C   UNL     1       8.062  17.817  20.387  0.00  0.00    +0.000 C 
ATOM     24  O   UNL     1       7.353  17.464  19.202  0.00  0.00    +0.000 OA
ATOM     25  C   UNL     1       7.381  16.061  18.937  0.00  0.00    +0.000 C 
ATOM     26  C   UNL     1       6.773  15.252  20.078  0.00  0.00    +0.000 C 
ENDBRANCH  17  21
BRANCH   1  28
ATOM     27  C   UNL     1      11.807  16.314  16.764  0.00  0.00    +0.000 C 
ATOM     28  O   UNL     1      10.524  15.781  17.110  0.00  0.00    +0.000 OA
ENDBRANCH   1  28
BRANCH   6  29
ATOM     29  O   UNL     1      10.856  15.692  19.996  0.00  0.00    +0.000 OA
ATOM     30  C   UNL     1      12.225  16.011  20.259  0.00  0.00    +0.000 C 
ENDBRANCH   6  29
TORSDOF 3
ENDMDL
MODEL 4
REMARK VINA RESULT:      -5.7      1.842      3.040
REMARK  Name = 
REMARK  6 active torsions:
REMARK  status: ('A' for Active; 'I' for Inactive)
REMARK    1  A    between atoms: C_1  and  O_2
REMARK    2  A    between atoms: O_2  and  C_3
REMARK    3  A    between atoms: C_8  and  O_9
REMARK    4  A    between atoms: O_9  and  C_10
REMARK    5  A    between atoms: C_18  and  C_19
REMARK    6  A    between atoms: C_21  and  C_22
REMARK                            x       y       z     vdW  Elec       q    Type
REMARK                         _______ _______ _______ _____ _____    ______ ____
ROOT
ATOM      1  C   UNL     1      -5.151  14.993  23.091  0.00  0.00    +0.000 A 
ATOM      2  C   UNL     1      -6.378  14.359  23.313  0.00  0.00    +0.000 A 
ATOM      3  C   UNL     1      -6.979  13.608  22.312  0.00  0.00    +0.000 A 
ATOM      4  C   UNL     1      -6.310  13.419  21.106  0.00  0.00    +0.000 A 
ATOM      5  C   UNL     1      -5.066  14.033  20.855  0.00  0.00    +0.000 A 
ATOM      6  C   UNL     1      -4.545  14.931  21.811  0.00  0.00    +0.000 A 
ATOM      7  C   UNL     1      -4.383  13.632  19.546  0.00  0.00    +0.000 C 
ATOM      8  N   UNL     1      -4.458  12.162  19.400  0.00  0.00    +0.000 N 
ATOM      9  C   UNL     1      -3.507  11.419  18.694  0.00  0.00    +0.000 A 
ATOM     10  N   UNL     1      -3.930  10.714  17.672  0.00  0.00    +0.000 NA
ATOM     11  C   UNL     1      -3.062   9.937  16.956  0.00  0.00    +0.000 A 
ATOM     12  N   UNL     1      -1.791   9.802  17.151  0.00  0.00    +0.000 NA
ATOM     13  N   UNL     1      -1.340  10.499  18.209  0.00  0.00    +0.000 N 
ATOM     14  C   UNL     1      -0.050  10.545  18.677  0.00  0.00    +0.000 A 
ATOM     15  C   UNL     1       1.108   9.924  17.987  0.00  0.00    +0.000 C 
ATOM     16  N   UNL     1       0.023  11.246  19.785  0.00  0.00    +0.000 NA
ATOM     17  C   UNL     1      -1.247  11.722  20.014  0.00  0.00    +0.000 A 
ATOM     18  C   UNL     1      -2.113  11.290  19.020  0.00  0.00    +0.000 A 
ATOM     19  C   UNL     1      -5.825  11.586  19.498  0.00  0.00    +0.000 C 
ATOM     20  C   UNL     1      -6.880  12.567  20.011  0.00  0.00    +0.000 C 
ENDROOT
BRANCH  17  21
ATOM     21  C   UNL     1      -1.438  12.633  21.177  0.00  0.00    +0.000 C 
ATOM     22  C   UNL     1      -0.166  13.445  21.459  0.00  0.00    +0.000 C 
ATOM     23  C   UNL     1      -0.406  14.402  22.606  0.00  0.00    +0.000 C 
ATOM     24  O   UNL     1      -0.850  13.712  23.772  0.00  0.00    +0.000 OA
ATOM     25  C   UNL     1      -2.056  12.980  23.557  0.00  0.00    +0.000 C 
ATOM     26  C   UNL     1      -1.904  11.939  22.454  0.00  0.00    +0.000 C 
ENDBRANCH  17  21
BRANCH   1  28
ATOM     27  C   UNL     1      -5.255  16.750  24.685  0.00  0.00    +0.000 C 
ATOM     28  O   UNL     1      -4.519  15.663  24.114  0.00  0.00    +0.000 OA
ENDBRANCH   1  28
BRANCH   6  29
ATOM     29  O   UNL     1      -3.439  15.641  21.416  0.00  0.00    +0.000 OA
ATOM     30  C   UNL     1      -3.637  17.025  21.112  0.00  0.00    +0.000 C 
ENDBRANCH   6  29
TORSDOF 3
ENDMDL
MODEL 5
REMARK VINA RESULT:      -5.6      1.470      1.586
REMARK  Name = 
REMARK  6 active torsions:
REMARK  status: ('A' for Active; 'I' for Inactive)
REMARK    1  A    between atoms: C_1  and  O_2
REMARK    2  A    between atoms: O_2  and  C_3
REMARK    3  A    between atoms: C_8  and  O_9
REMARK    4  A    between atoms: O_9  and  C_10
REMARK    5  A    between atoms: C_18  and  C_19
REMARK    6  A    between atoms: C_21  and  C_22
REMARK                            x       y       z     vdW  Elec       q    Type
REMARK                         _______ _______ _______ _____ _____    ______ ____
ROOT
ATOM      1  C   UNL     1      -3.344  16.372  23.947  0.00  0.00    +0.000 A 
ATOM      2  C   UNL     1      -4.495  16.231  24.729  0.00  0.00    +0.000 A 
ATOM      3  C   UNL     1      -5.708  15.882  24.148  0.00  0.00    +0.000 A 
ATOM      4  C   UNL     1      -5.754  15.590  22.789  0.00  0.00    +0.000 A 
ATOM      5  C   UNL     1      -4.608  15.710  21.975  0.00  0.00    +0.000 A 
ATOM      6  C   UNL     1      -3.424  16.229  22.540  0.00  0.00    +0.000 A 
ATOM      7  C   UNL     1      -4.770  15.230  20.531  0.00  0.00    +0.000 C 
ATOM      8  N   UNL     1      -5.466  13.925  20.538  0.00  0.00    +0.000 N 
ATOM      9  C   UNL     1      -5.284  12.961  19.542  0.00  0.00    +0.000 A 
ATOM     10  N   UNL     1      -6.341  12.589  18.861  0.00  0.00    +0.000 NA
ATOM     11  C   UNL     1      -6.244  11.627  17.895  0.00  0.00    +0.000 A 
ATOM     12  N   UNL     1      -5.177  10.998  17.522  0.00  0.00    +0.000 NA
ATOM     13  N   UNL     1      -4.084  11.349  18.223  0.00  0.00    +0.000 N 
ATOM     14  C   UNL     1      -2.815  10.848  18.074  0.00  0.00    +0.000 A 
ATOM     15  C   UNL     1      -2.409   9.916  16.993  0.00  0.00    +0.000 C 
ATOM     16  N   UNL     1      -2.006  11.340  18.985  0.00  0.00    +0.000 NA
ATOM     17  C   UNL     1      -2.758  12.233  19.713  0.00  0.00    +0.000 A 
ATOM     18  C   UNL     1      -4.058  12.277  19.232  0.00  0.00    +0.000 A 
ATOM     19  C   UNL     1      -6.762  13.904  21.265  0.00  0.00    +0.000 C 
ATOM     20  C   UNL     1      -7.020  15.148  22.117  0.00  0.00    +0.000 C 
ENDROOT
BRANCH  17  21
ATOM     21  C   UNL     1      -2.059  13.012  20.774  0.00  0.00    +0.000 C 
ATOM     22  C   UNL     1      -0.586  13.246  20.410  0.00  0.00    +0.000 C 
ATOM     23  C   UNL     1       0.083  14.087  21.475  0.00  0.00    +0.000 C 
ATOM     24  O   UNL     1      -0.043  13.488  22.763  0.00  0.00    +0.000 OA
ATOM     25  C   UNL     1      -1.403  13.295  23.153  0.00  0.00    +0.000 C 
ATOM     26  C   UNL     1      -2.158  12.404  22.171  0.00  0.00    +0.000 C 
ENDBRANCH  17  21
BRANCH   1  28
ATOM     27  C   UNL     1      -1.873  15.924  25.757  0.00  0.00    +0.000 C 
ATOM     28  O   UNL     1      -2.129  16.632  24.540  0.00  0.00    +0.000 OA
ENDBRANCH   1  28
BRANCH   6  29
ATOM     29  O   UNL     1      -2.416  16.506  21.651  0.00  0.00    +0.000 OA
ATOM     30  C   UNL     1      -2.264  17.872  21.252  0.00  0.00    +0.000 C 
ENDBRANCH   6  29
TORSDOF 3
ENDMDL
MODEL 6
REMARK VINA RESULT:      -5.6      9.449     12.005
REMARK  Name = 
REMARK  6 active torsions:
REMARK  status: ('A' for Active; 'I' for Inactive)
REMARK    1  A    between atoms: C_1  and  O_2
REMARK    2  A    between atoms: O_2  and  C_3
REMARK    3  A    between atoms: C_8  and  O_9
REMARK    4  A    between atoms: O_9  and  C_10
REMARK    5  A    between atoms: C_18  and  C_19
REMARK    6  A    between atoms: C_21  and  C_22
REMARK                            x       y       z     vdW  Elec       q    Type
REMARK                         _______ _______ _______ _____ _____    ______ ____
ROOT
ATOM      1  C   UNL     1       9.730  15.683  17.825  0.00  0.00    +0.000 A 
ATOM      2  C   UNL     1       9.904  17.063  17.969  0.00  0.00    +0.000 A 
ATOM      3  C   UNL     1       8.978  17.825  18.670  0.00  0.00    +0.000 A 
ATOM      4  C   UNL     1       7.912  17.191  19.302  0.00  0.00    +0.000 A 
ATOM      5  C   UNL     1       7.716  15.799  19.187  0.00  0.00    +0.000 A 
ATOM      6  C   UNL     1       8.563  15.061  18.334  0.00  0.00    +0.000 A 
ATOM      7  C   UNL     1       6.586  15.218  20.040  0.00  0.00    +0.000 C 
ATOM      8  N   UNL     1       6.682  15.781  21.405  0.00  0.00    +0.000 N 
ATOM      9  C   UNL     1       6.233  15.101  22.541  0.00  0.00    +0.000 A 
ATOM     10  N   UNL     1       5.301  15.678  23.260  0.00  0.00    +0.000 NA
ATOM     11  C   UNL     1       4.838  15.086  24.402  0.00  0.00    +0.000 A 
ATOM     12  N   UNL     1       5.207  13.951  24.900  0.00  0.00    +0.000 NA
ATOM     13  N   UNL     1       6.179  13.352  24.189  0.00  0.00    +0.000 N 
ATOM     14  C   UNL     1       6.787  12.154  24.471  0.00  0.00    +0.000 A 
ATOM     15  C   UNL     1       6.358  11.239  25.558  0.00  0.00    +0.000 C 
ATOM     16  N   UNL     1       7.761  11.911  23.624  0.00  0.00    +0.000 NA
ATOM     17  C   UNL     1       7.750  12.955  22.727  0.00  0.00    +0.000 A 
ATOM     18  C   UNL     1       6.744  13.856  23.045  0.00  0.00    +0.000 A 
ATOM     19  C   UNL     1       6.708  17.266  21.476  0.00  0.00    +0.000 C 
ATOM     20  C   UNL     1       6.914  17.952  20.124  0.00  0.00    +0.000 C 
ENDROOT
BRANCH  17  21
ATOM     21  C   UNL     1       8.710  12.891  21.590  0.00  0.00    +0.000 C 
ATOM     22  C   UNL     1       9.141  11.445  21.308  0.00  0.00    +0.000 C 
ATOM     23  C   UNL     1      10.068  11.404  20.114  0.00  0.00    +0.000 C 
ATOM     24  O   UNL     1      11.199  12.252  20.308  0.00  0.00    +0.000 OA
ATOM     25  C   UNL     1      10.836  13.615  20.529  0.00  0.00    +0.000 C 
ATOM     26  C   UNL     1       9.943  13.776  21.755  0.00  0.00    +0.000 C 
ENDBRANCH  17  21
BRANCH   1  28
ATOM     27  C   UNL     1      12.024  15.451  17.257  0.00  0.00    +0.000 C 
ATOM     28  O   UNL     1      10.695  14.922  17.205  0.00  0.00    +0.000 OA
ENDBRANCH   1  28
BRANCH   6  29
ATOM     29  O   UNL     1       8.192  13.758  18.113  0.00  0.00    +0.000 OA
ATOM     30  C   UNL     1       7.115  13.540  17.197  0.00  0.00    +0.000 C 
ENDBRANCH   6  29
TORSDOF 3
ENDMDL
MODEL 7
REMARK VINA RESULT:      -5.6      2.498      4.731
REMARK  Name = 
REMARK  6 active torsions:
REMARK  status: ('A' for Active; 'I' for Inactive)
REMARK    1  A    between atoms: C_1  and  O_2
REMARK    2  A    between atoms: O_2  and  C_3
REMARK    3  A    between atoms: C_8  and  O_9
REMARK    4  A    between atoms: O_9  and  C_10
REMARK    5  A    between atoms: C_18  and  C_19
REMARK    6  A    between atoms: C_21  and  C_22
REMARK                            x       y       z     vdW  Elec       q    Type
REMARK                         _______ _______ _______ _____ _____    ______ ____
ROOT
ATOM      1  C   UNL     1      -5.260  15.103  23.838  0.00  0.00    +0.000 A 
ATOM      2  C   UNL     1      -4.363  16.144  24.102  0.00  0.00    +0.000 A 
ATOM      3  C   UNL     1      -2.996  15.959  23.940  0.00  0.00    +0.000 A 
ATOM      4  C   UNL     1      -2.527  14.752  23.433  0.00  0.00    +0.000 A 
ATOM      5  C   UNL     1      -3.406  13.687  23.145  0.00  0.00    +0.000 A 
ATOM      6  C   UNL     1      -4.771  13.825  23.473  0.00  0.00    +0.000 A 
ATOM      7  C   UNL     1      -2.771  12.470  22.470  0.00  0.00    +0.000 C 
ATOM      8  N   UNL     1      -1.888  12.937  21.378  0.00  0.00    +0.000 N 
ATOM      9  C   UNL     1      -1.618  12.173  20.239  0.00  0.00    +0.000 A 
ATOM     10  N   UNL     1      -0.366  11.863  20.004  0.00  0.00    +0.000 NA
ATOM     11  C   UNL     1      -0.025  11.146  18.891  0.00  0.00    +0.000 A 
ATOM     12  N   UNL     1      -0.821  10.688  17.981  0.00  0.00    +0.000 NA
ATOM     13  N   UNL     1      -2.109  11.014  18.191  0.00  0.00    +0.000 N 
ATOM     14  C   UNL     1      -3.181  10.690  17.398  0.00  0.00    +0.000 A 
ATOM     15  C   UNL     1      -3.104   9.786  16.223  0.00  0.00    +0.000 C 
ATOM     16  N   UNL     1      -4.282  11.249  17.845  0.00  0.00    +0.000 NA
ATOM     17  C   UNL     1      -3.927  11.910  18.998  0.00  0.00    +0.000 A 
ATOM     18  C   UNL     1      -2.573  11.750  19.252  0.00  0.00    +0.000 A 
ATOM     19  C   UNL     1      -0.860  13.933  21.779  0.00  0.00    +0.000 C 
ATOM     20  C   UNL     1      -1.067  14.515  23.179  0.00  0.00    +0.000 C 
ENDROOT
BRANCH  17  21
ATOM     21  C   UNL     1      -5.016  12.571  19.772  0.00  0.00    +0.000 C 
ATOM     22  C   UNL     1      -6.331  11.786  19.659  0.00  0.00    +0.000 C 
ATOM     23  C   UNL     1      -7.401  12.447  20.499  0.00  0.00    +0.000 C 
ATOM     24  O   UNL     1      -7.580  13.813  20.129  0.00  0.00    +0.000 OA
ATOM     25  C   UNL     1      -6.386  14.583  20.264  0.00  0.00    +0.000 C 
ATOM     26  C   UNL     1      -5.252  14.033  19.404  0.00  0.00    +0.000 C 
ENDBRANCH  17  21
BRANCH   1  28
ATOM     27  C   UNL     1      -7.070  16.580  23.410  0.00  0.00    +0.000 C 
ATOM     28  O   UNL     1      -6.618  15.319  23.916  0.00  0.00    +0.000 OA
ENDBRANCH   1  28
BRANCH   6  29
ATOM     29  O   UNL     1      -5.527  12.685  23.354  0.00  0.00    +0.000 OA
ATOM     30  C   UNL     1      -6.021  12.110  24.567  0.00  0.00    +0.000 C 
ENDBRANCH   6  29
TORSDOF 3
ENDMDL
MODEL 8
REMARK VINA RESULT:      -5.5      2.043      3.819
REMARK  Name = 
REMARK  6 active torsions:
REMARK  status: ('A' for Active; 'I' for Inactive)
REMARK    1  A    between atoms: C_1  and  O_2
REMARK    2  A    between atoms: O_2  and  C_3
REMARK    3  A    between atoms: C_8  and  O_9
REMARK    4  A    between atoms: O_9  and  C_10
REMARK    5  A    between atoms: C_18  and  C_19
REMARK    6  A    between atoms: C_21  and  C_22
REMARK                            x       y       z     vdW  Elec       q    Type
REMARK                         _______ _______ _______ _____ _____    ______ ____
ROOT
ATOM      1  C   UNL     1      -6.475  14.609  22.599  0.00  0.00    +0.000 A 
ATOM      2  C   UNL     1      -7.587  13.767  22.704  0.00  0.00    +0.000 A 
ATOM      3  C   UNL     1      -7.917  12.896  21.672  0.00  0.00    +0.000 A 
ATOM      4  C   UNL     1      -7.082  12.808  20.563  0.00  0.00    +0.000 A 
ATOM      5  C   UNL     1      -5.946  13.633  20.433  0.00  0.00    +0.000 A 
ATOM      6  C   UNL     1      -5.716  14.631  21.403  0.00  0.00    +0.000 A 
ATOM      7  C   UNL     1      -5.048  13.337  19.230  0.00  0.00    +0.000 C 
ATOM      8  N   UNL     1      -4.839  11.874  19.140  0.00  0.00    +0.000 N 
ATOM      9  C   UNL     1      -3.692  11.303  18.583  0.00  0.00    +0.000 A 
ATOM     10  N   UNL     1      -3.853  10.511  17.550  0.00  0.00    +0.000 NA
ATOM     11  C   UNL     1      -2.779   9.891  16.975  0.00  0.00    +0.000 A 
ATOM     12  N   UNL     1      -1.538   9.994  17.322  0.00  0.00    +0.000 NA
ATOM     13  N   UNL     1      -1.352  10.785  18.395  0.00  0.00    +0.000 N 
ATOM     14  C   UNL     1      -0.159  11.076  19.007  0.00  0.00    +0.000 A 
ATOM     15  C   UNL     1       1.167  10.663  18.485  0.00  0.00    +0.000 C 
ATOM     16  N   UNL     1      -0.349  11.803  20.085  0.00  0.00    +0.000 NA
ATOM     17  C   UNL     1      -1.702  12.042  20.144  0.00  0.00    +0.000 A 
ATOM     18  C   UNL     1      -2.348  11.439  19.074  0.00  0.00    +0.000 A 
ATOM     19  C   UNL     1      -6.083  11.060  19.103  0.00  0.00    +0.000 C 
ATOM     20  C   UNL     1      -7.352  11.843  19.446  0.00  0.00    +0.000 C 
ENDROOT
BRANCH  17  21
ATOM     21  C   UNL     1      -2.194  12.928  21.236  0.00  0.00    +0.000 C 
ATOM     22  C   UNL     1      -1.120  13.941  21.654  0.00  0.00    +0.000 C 
ATOM     23  C   UNL     1      -1.665  14.864  22.722  0.00  0.00    +0.000 C 
ATOM     24  O   UNL     1      -2.148  14.128  23.844  0.00  0.00    +0.000 OA
ATOM     25  C   UNL     1      -3.181  13.206  23.498  0.00  0.00    +0.000 C 
ATOM     26  C   UNL     1      -2.714  12.186  22.464  0.00  0.00    +0.000 C 
ENDBRANCH  17  21
BRANCH   1  28
ATOM     27  C   UNL     1      -6.796  16.654  23.763  0.00  0.00    +0.000 C 
ATOM     28  O   UNL     1      -6.104  15.405  23.659  0.00  0.00    +0.000 OA
ENDBRANCH   1  28
BRANCH   6  29
ATOM     29  O   UNL     1      -4.716  15.524  21.109  0.00  0.00    +0.000 OA
ATOM     30  C   UNL     1      -5.108  16.752  20.488  0.00  0.00    +0.000 C 
ENDBRANCH   6  29
TORSDOF 3
ENDMDL
MODEL 9
REMARK VINA RESULT:      -5.5      3.365      5.706
REMARK  Name = 
REMARK  6 active torsions:
REMARK  status: ('A' for Active; 'I' for Inactive)
REMARK    1  A    between atoms: C_1  and  O_2
REMARK    2  A    between atoms: O_2  and  C_3
REMARK    3  A    between atoms: C_8  and  O_9
REMARK    4  A    between atoms: O_9  and  C_10
REMARK    5  A    between atoms: C_18  and  C_19
REMARK    6  A    between atoms: C_21  and  C_22
REMARK                            x       y       z     vdW  Elec       q    Type
REMARK                         _______ _______ _______ _____ _____    ______ ____
ROOT
ATOM      1  C   UNL     1      -5.416  13.499  23.361  0.00  0.00    +0.000 A 
ATOM      2  C   UNL     1      -4.800  12.851  24.436  0.00  0.00    +0.000 A 
ATOM      3  C   UNL     1      -3.584  12.200  24.269  0.00  0.00    +0.000 A 
ATOM      4  C   UNL     1      -2.940  12.265  23.038  0.00  0.00    +0.000 A 
ATOM      5  C   UNL     1      -3.528  12.922  21.937  0.00  0.00    +0.000 A 
ATOM      6  C   UNL     1      -4.837  13.432  22.069  0.00  0.00    +0.000 A 
ATOM      7  C   UNL     1      -2.652  13.032  20.687  0.00  0.00    +0.000 C 
ATOM      8  N   UNL     1      -1.297  13.466  21.092  0.00  0.00    +0.000 N 
ATOM      9  C   UNL     1      -0.450  14.196  20.254  0.00  0.00    +0.000 A 
ATOM     10  N   UNL     1       0.709  13.661  19.953  0.00  0.00    +0.000 NA
ATOM     11  C   UNL     1       1.601  14.333  19.165  0.00  0.00    +0.000 A 
ATOM     12  N   UNL     1       1.446  15.498  18.625  0.00  0.00    +0.000 NA
ATOM     13  N   UNL     1       0.272  16.075  18.939  0.00  0.00    +0.000 N 
ATOM     14  C   UNL     1      -0.173  17.309  18.536  0.00  0.00    +0.000 A 
ATOM     15  C   UNL     1       0.531  18.167  17.551  0.00  0.00    +0.000 C 
ATOM     16  N   UNL     1      -1.321  17.602  19.103  0.00  0.00    +0.000 NA
ATOM     17  C   UNL     1      -1.663  16.500  19.853  0.00  0.00    +0.000 A 
ATOM     18  C   UNL     1      -0.691  15.516  19.740  0.00  0.00    +0.000 A 
ATOM     19  C   UNL     1      -0.651  12.627  22.136  0.00  0.00    +0.000 C 
ATOM     20  C   UNL     1      -1.597  11.634  22.813  0.00  0.00    +0.000 C 
ENDROOT
BRANCH  17  21
ATOM     21  C   UNL     1      -2.982  16.525  20.545  0.00  0.00    +0.000 C 
ATOM     22  C   UNL     1      -3.968  17.457  19.827  0.00  0.00    +0.000 C 
ATOM     23  C   UNL     1      -5.313  17.419  20.517  0.00  0.00    +0.000 C 
ATOM     24  O   UNL     1      -5.197  17.754  21.898  0.00  0.00    +0.000 OA
ATOM     25  C   UNL     1      -4.320  16.879  22.607  0.00  0.00    +0.000 C 
ATOM     26  C   UNL     1      -2.910  16.889  22.026  0.00  0.00    +0.000 C 
ENDBRANCH  17  21
BRANCH   1  28
ATOM     27  C   UNL     1      -7.662  13.486  24.134  0.00  0.00    +0.000 C 
ATOM     28  O   UNL     1      -6.576  14.216  23.554  0.00  0.00    +0.000 OA
ENDBRANCH   1  28
BRANCH   6  29
ATOM     29  O   UNL     1      -5.421  13.874  20.909  0.00  0.00    +0.000 OA
ATOM     30  C   UNL     1      -6.375  13.003  20.294  0.00  0.00    +0.000 C 
ENDBRANCH   6  29
TORSDOF 3
ENDMDL
