MODEL 1
REMARK VINA RESULT:      -9.0      0.000      0.000
REMARK  Name = 
REMARK  4 active torsions:
REMARK  status: ('A' for Active; 'I' for Inactive)
REMARK    1  A    between atoms: C_1  and  N_2
REMARK    2  A    between atoms: C_13  and  C_14
REMARK    3  A    between atoms: C_14  and  N_15
REMARK    4  A    between atoms: N_18  and  C_19
REMARK                            x       y       z     vdW  Elec       q    Type
REMARK                         _______ _______ _______ _____ _____    ______ ____
ROOT
ATOM      1  C   UNL     1       2.303   3.401  19.738  0.00  0.00    +0.000 C 
ATOM      2  N   UNL     1       2.755   4.638  19.138  0.00  0.00    +0.000 N 
ATOM      3  C   UNL     1       2.381   5.901  19.511  0.00  0.00    +0.000 A 
ATOM      4  C   UNL     1       2.886   6.793  18.574  0.00  0.00    +0.000 A 
ATOM      5  C   UNL     1       3.709   6.053  17.678  0.00  0.00    +0.000 A 
ATOM      6  C   UNL     1       4.519   6.385  16.572  0.00  0.00    +0.000 A 
ATOM      7  C   UNL     1       5.187   5.374  15.868  0.00  0.00    +0.000 A 
ATOM      8  C   UNL     1       5.056   4.042  16.248  0.00  0.00    +0.000 A 
ATOM      9  C   UNL     1       4.262   3.683  17.342  0.00  0.00    +0.000 A 
ATOM     10  C   UNL     1       3.600   4.704  18.042  0.00  0.00    +0.000 A 
ATOM     11  C   UNL     1       2.530   8.217  18.642  0.00  0.00    +0.000 C 
ATOM     12  O   UNL     1       3.166   9.082  18.051  0.00  0.00    +0.000 OA
ATOM     13  C   UNL     1       1.273   8.478  19.509  0.00  0.00    +0.000 C 
ATOM     14  C   UNL     1       1.524   7.790  20.872  0.00  0.00    +0.000 C 
ATOM     15  C   UNL     1       1.528   6.257  20.685  0.00  0.00    +0.000 C 
ENDROOT
BRANCH  13  16
ATOM     16  C   UNL     1       0.832   9.945  19.670  0.00  0.00    +0.000 C 
BRANCH  16  17
ATOM     17  N   UNL     1       0.417  10.620  18.432  0.00  0.00    +0.000 NA
ATOM     18  C   UNL     1      -0.626   9.958  17.639  0.00  0.00    +0.000 C 
ATOM     19  C   UNL     1      -2.050  10.041  18.217  0.00  0.00    +0.000 C 
ATOM     20  N   UNL     1      -2.467  11.431  18.463  0.00  0.00    +0.000 N 
ATOM     21  C   UNL     1      -1.454  12.331  19.060  0.00  0.00    +0.000 C 
ATOM     22  C   UNL     1       0.015  12.026  18.637  0.00  0.00    +0.000 C 
BRANCH  20  23
ATOM     23  C   UNL     1      -3.827  11.697  18.673  0.00  0.00    +0.000 A 
ATOM     24  C   UNL     1      -4.289  12.489  19.746  0.00  0.00    +0.000 A 
ATOM     25  C   UNL     1      -5.652  12.650  20.027  0.00  0.00    +0.000 A 
ATOM     26  C   UNL     1      -6.588  12.019  19.231  0.00  0.00    +0.000 A 
ATOM     27  F   UNL     1      -7.892  12.127  19.522  0.00  0.00    +0.000 F 
ATOM     28  C   UNL     1      -6.186  11.258  18.145  0.00  0.00    +0.000 A 
ATOM     29  C   UNL     1      -4.819  11.110  17.867  0.00  0.00    +0.000 A 
ENDBRANCH  20  23
ENDBRANCH  16  17
ENDBRANCH  13  16
TORSDOF 3
ENDMDL
MODEL 2
REMARK VINA RESULT:      -9.0      4.673     10.106
REMARK  Name = 
REMARK  4 active torsions:
REMARK  status: ('A' for Active; 'I' for Inactive)
REMARK    1  A    between atoms: C_1  and  N_2
REMARK    2  A    between atoms: C_13  and  C_14
REMARK    3  A    between atoms: C_14  and  N_15
REMARK    4  A    between atoms: N_18  and  C_19
REMARK                            x       y       z     vdW  Elec       q    Type
REMARK                         _______ _______ _______ _____ _____    ______ ____
ROOT
ATOM      1  C   UNL     1       0.174  11.974  18.705  0.00  0.00    +0.000 C 
ATOM      2  N   UNL     1       0.501  10.825  19.523  0.00  0.00    +0.000 N 
ATOM      3  C   UNL     1       1.222   9.731  19.127  0.00  0.00    +0.000 A 
ATOM      4  C   UNL     1       1.152   8.781  20.138  0.00  0.00    +0.000 A 
ATOM      5  C   UNL     1       0.476   9.379  21.240  0.00  0.00    +0.000 A 
ATOM      6  C   UNL     1       0.143   8.958  22.545  0.00  0.00    +0.000 A 
ATOM      7  C   UNL     1      -0.582   9.810  23.388  0.00  0.00    +0.000 A 
ATOM      8  C   UNL     1      -0.983  11.068  22.949  0.00  0.00    +0.000 A 
ATOM      9  C   UNL     1      -0.665  11.513  21.662  0.00  0.00    +0.000 A 
ATOM     10  C   UNL     1       0.066  10.653  20.826  0.00  0.00    +0.000 A 
ATOM     11  C   UNL     1       1.725   7.443  19.937  0.00  0.00    +0.000 C 
ATOM     12  O   UNL     1       1.962   6.683  20.868  0.00  0.00    +0.000 OA
ATOM     13  C   UNL     1       1.960   7.112  18.442  0.00  0.00    +0.000 C 
ATOM     14  C   UNL     1       2.784   8.283  17.854  0.00  0.00    +0.000 C 
ATOM     15  C   UNL     1       1.915   9.558  17.814  0.00  0.00    +0.000 C 
ENDROOT
BRANCH  13  16
ATOM     16  C   UNL     1       2.587   5.742  18.124  0.00  0.00    +0.000 C 
BRANCH  16  17
ATOM     17  N   UNL     1       4.041   5.652  18.315  0.00  0.00    +0.000 NA
ATOM     18  C   UNL     1       4.661   4.347  18.048  0.00  0.00    +0.000 C 
ATOM     19  C   UNL     1       4.785   3.966  16.562  0.00  0.00    +0.000 C 
ATOM     20  N   UNL     1       5.506   4.988  15.788  0.00  0.00    +0.000 N 
ATOM     21  C   UNL     1       5.176   6.400  16.085  0.00  0.00    +0.000 C 
ATOM     22  C   UNL     1       4.796   6.679  17.571  0.00  0.00    +0.000 C 
BRANCH  20  23
ATOM     23  C   UNL     1       5.985   4.652  14.514  0.00  0.00    +0.000 A 
ATOM     24  C   UNL     1       5.329   3.725  13.675  0.00  0.00    +0.000 A 
ATOM     25  C   UNL     1       5.875   3.297  12.458  0.00  0.00    +0.000 A 
ATOM     26  C   UNL     1       7.098   3.796  12.050  0.00  0.00    +0.000 A 
ATOM     27  F   UNL     1       7.650   3.355  10.912  0.00  0.00    +0.000 F 
ATOM     28  C   UNL     1       7.765   4.733  12.822  0.00  0.00    +0.000 A 
ATOM     29  C   UNL     1       7.206   5.161  14.035  0.00  0.00    +0.000 A 
ENDBRANCH  20  23
ENDBRANCH  16  17
ENDBRANCH  13  16
TORSDOF 3
ENDMDL
MODEL 3
REMARK VINA RESULT:      -9.0      0.598      1.065
REMARK  Name = 
REMARK  4 active torsions:
REMARK  status: ('A' for Active; 'I' for Inactive)
REMARK    1  A    between atoms: C_1  and  N_2
REMARK    2  A    between atoms: C_13  and  C_14
REMARK    3  A    between atoms: C_14  and  N_15
REMARK    4  A    between atoms: N_18  and  C_19
REMARK                            x       y       z     vdW  Elec       q    Type
REMARK                         _______ _______ _______ _____ _____    ______ ____
ROOT
ATOM      1  C   UNL     1       3.035   3.539  19.398  0.00  0.00    +0.000 C 
ATOM      2  N   UNL     1       3.236   4.859  18.837  0.00  0.00    +0.000 N 
ATOM      3  C   UNL     1       2.663   6.021  19.280  0.00  0.00    +0.000 A 
ATOM      4  C   UNL     1       2.961   7.023  18.367  0.00  0.00    +0.000 A 
ATOM      5  C   UNL     1       3.862   6.474  17.409  0.00  0.00    +0.000 A 
ATOM      6  C   UNL     1       4.552   6.986  16.290  0.00  0.00    +0.000 A 
ATOM      7  C   UNL     1       5.354   6.137  15.517  0.00  0.00    +0.000 A 
ATOM      8  C   UNL     1       5.476   4.789  15.842  0.00  0.00    +0.000 A 
ATOM      9  C   UNL     1       4.807   4.255  16.947  0.00  0.00    +0.000 A 
ATOM     10  C   UNL     1       4.007   5.114  17.716  0.00  0.00    +0.000 A 
ATOM     11  C   UNL     1       2.365   8.358  18.511  0.00  0.00    +0.000 C 
ATOM     12  O   UNL     1       2.812   9.343  17.937  0.00  0.00    +0.000 OA
ATOM     13  C   UNL     1       1.120   8.359  19.434  0.00  0.00    +0.000 C 
ATOM     14  C   UNL     1       1.548   7.675  20.755  0.00  0.00    +0.000 C 
ATOM     15  C   UNL     1       1.812   6.176  20.500  0.00  0.00    +0.000 C 
ENDROOT
BRANCH  13  16
ATOM     16  C   UNL     1       0.437   9.717  19.677  0.00  0.00    +0.000 C 
BRANCH  16  17
ATOM     17  N   UNL     1       0.167  10.514  18.472  0.00  0.00    +0.000 NA
ATOM     18  C   UNL     1      -0.852   9.993  17.552  0.00  0.00    +0.000 C 
ATOM     19  C   UNL     1      -2.309  10.135  18.029  0.00  0.00    +0.000 C 
ATOM     20  N   UNL     1      -2.649  11.528  18.356  0.00  0.00    +0.000 N 
ATOM     21  C   UNL     1      -1.630  12.304  19.098  0.00  0.00    +0.000 C 
ATOM     22  C   UNL     1      -0.155  11.925  18.761  0.00  0.00    +0.000 C 
BRANCH  20  23
ATOM     23  C   UNL     1      -4.001  11.875  18.487  0.00  0.00    +0.000 A 
ATOM     24  C   UNL     1      -4.930  11.727  17.435  0.00  0.00    +0.000 A 
ATOM     25  C   UNL     1      -6.249  12.190  17.526  0.00  0.00    +0.000 A 
ATOM     26  C   UNL     1      -6.670  12.814  18.686  0.00  0.00    +0.000 A 
ATOM     27  F   UNL     1      -7.914  13.304  18.764  0.00  0.00    +0.000 F 
ATOM     28  C   UNL     1      -5.806  12.953  19.760  0.00  0.00    +0.000 A 
ATOM     29  C   UNL     1      -4.489  12.478  19.661  0.00  0.00    +0.000 A 
ENDBRANCH  20  23
ENDBRANCH  16  17
ENDBRANCH  13  16
TORSDOF 3
ENDMDL
MODEL 4
REMARK VINA RESULT:      -8.8      3.152      4.084
REMARK  Name = 
REMARK  4 active torsions:
REMARK  status: ('A' for Active; 'I' for Inactive)
REMARK    1  A    between atoms: C_1  and  N_2
REMARK    2  A    between atoms: C_13  and  C_14
REMARK    3  A    between atoms: C_14  and  N_15
REMARK    4  A    between atoms: N_18  and  C_19
REMARK                            x       y       z     vdW  Elec       q    Type
REMARK                         _______ _______ _______ _____ _____    ______ ____
ROOT
ATOM      1  C   UNL     1       4.958   5.496  17.524  0.00  0.00    +0.000 C 
ATOM      2  N   UNL     1       3.866   5.548  18.473  0.00  0.00    +0.000 N 
ATOM      3  C   UNL     1       2.997   6.591  18.648  0.00  0.00    +0.000 A 
ATOM      4  C   UNL     1       2.224   6.324  19.770  0.00  0.00    +0.000 A 
ATOM      5  C   UNL     1       2.548   5.008  20.208  0.00  0.00    +0.000 A 
ATOM      6  C   UNL     1       2.083   4.163  21.239  0.00  0.00    +0.000 A 
ATOM      7  C   UNL     1       2.663   2.901  21.422  0.00  0.00    +0.000 A 
ATOM      8  C   UNL     1       3.700   2.473  20.598  0.00  0.00    +0.000 A 
ATOM      9  C   UNL     1       4.179   3.286  19.567  0.00  0.00    +0.000 A 
ATOM     10  C   UNL     1       3.588   4.548  19.390  0.00  0.00    +0.000 A 
ATOM     11  C   UNL     1       1.288   7.334  20.283  0.00  0.00    +0.000 C 
ATOM     12  O   UNL     1       0.383   7.057  21.059  0.00  0.00    +0.000 OA
ATOM     13  C   UNL     1       1.597   8.756  19.753  0.00  0.00    +0.000 C 
ATOM     14  C   UNL     1       1.678   8.646  18.211  0.00  0.00    +0.000 C 
ATOM     15  C   UNL     1       2.928   7.831  17.816  0.00  0.00    +0.000 C 
ENDROOT
BRANCH  13  16
ATOM     16  C   UNL     1       0.654   9.887  20.207  0.00  0.00    +0.000 C 
BRANCH  16  17
ATOM     17  N   UNL     1       1.059  10.595  21.429  0.00  0.00    +0.000 NA
ATOM     18  C   UNL     1       0.968  12.061  21.400  0.00  0.00    +0.000 C 
ATOM     19  C   UNL     1      -0.457  12.637  21.481  0.00  0.00    +0.000 C 
ATOM     20  N   UNL     1      -1.184  12.151  22.664  0.00  0.00    +0.000 N 
ATOM     21  C   UNL     1      -1.028  10.716  22.995  0.00  0.00    +0.000 C 
ATOM     22  C   UNL     1       0.366  10.116  22.641  0.00  0.00    +0.000 C 
BRANCH  20  23
ATOM     23  C   UNL     1      -2.351  12.820  23.058  0.00  0.00    +0.000 A 
ATOM     24  C   UNL     1      -3.353  12.206  23.839  0.00  0.00    +0.000 A 
ATOM     25  C   UNL     1      -4.572  12.833  24.125  0.00  0.00    +0.000 A 
ATOM     26  C   UNL     1      -4.814  14.102  23.633  0.00  0.00    +0.000 A 
ATOM     27  F   UNL     1      -5.996  14.690  23.860  0.00  0.00    +0.000 F 
ATOM     28  C   UNL     1      -3.849  14.761  22.889  0.00  0.00    +0.000 A 
ATOM     29  C   UNL     1      -2.628  14.127  22.615  0.00  0.00    +0.000 A 
ENDBRANCH  20  23
ENDBRANCH  16  17
ENDBRANCH  13  16
TORSDOF 3
ENDMDL
MODEL 5
REMARK VINA RESULT:      -8.6      4.812      9.903
REMARK  Name = 
REMARK  4 active torsions:
REMARK  status: ('A' for Active; 'I' for Inactive)
REMARK    1  A    between atoms: C_1  and  N_2
REMARK    2  A    between atoms: C_13  and  C_14
REMARK    3  A    between atoms: C_14  and  N_15
REMARK    4  A    between atoms: N_18  and  C_19
REMARK                            x       y       z     vdW  Elec       q    Type
REMARK                         _______ _______ _______ _____ _____    ______ ____
ROOT
ATOM      1  C   UNL     1       0.115   9.769  23.039  0.00  0.00    +0.000 C 
ATOM      2  N   UNL     1       0.461   9.759  21.633  0.00  0.00    +0.000 N 
ATOM      3  C   UNL     1       0.908   8.681  20.918  0.00  0.00    +0.000 A 
ATOM      4  C   UNL     1       1.302   9.128  19.664  0.00  0.00    +0.000 A 
ATOM      5  C   UNL     1       0.952  10.506  19.574  0.00  0.00    +0.000 A 
ATOM      6  C   UNL     1       1.042  11.488  18.564  0.00  0.00    +0.000 A 
ATOM      7  C   UNL     1       0.628  12.800  18.827  0.00  0.00    +0.000 A 
ATOM      8  C   UNL     1       0.130  13.147  20.079  0.00  0.00    +0.000 A 
ATOM      9  C   UNL     1       0.026  12.195  21.098  0.00  0.00    +0.000 A 
ATOM     10  C   UNL     1       0.441  10.882  20.823  0.00  0.00    +0.000 A 
ATOM     11  C   UNL     1       1.951   8.209  18.720  0.00  0.00    +0.000 C 
ATOM     12  O   UNL     1       2.042   8.452  17.523  0.00  0.00    +0.000 OA
ATOM     13  C   UNL     1       2.514   6.943  19.412  0.00  0.00    +0.000 C 
ATOM     14  C   UNL     1       1.354   6.337  20.238  0.00  0.00    +0.000 C 
ATOM     15  C   UNL     1       1.012   7.275  21.416  0.00  0.00    +0.000 C 
ENDROOT
BRANCH  13  16
ATOM     16  C   UNL     1       3.191   5.898  18.505  0.00  0.00    +0.000 C 
BRANCH  16  17
ATOM     17  N   UNL     1       4.660   5.902  18.522  0.00  0.00    +0.000 NA
ATOM     18  C   UNL     1       5.325   4.620  18.249  0.00  0.00    +0.000 C 
ATOM     19  C   UNL     1       5.295   4.160  16.780  0.00  0.00    +0.000 C 
ATOM     20  N   UNL     1       5.853   5.175  15.872  0.00  0.00    +0.000 N 
ATOM     21  C   UNL     1       5.472   6.581  16.134  0.00  0.00    +0.000 C 
ATOM     22  C   UNL     1       5.254   6.924  17.639  0.00  0.00    +0.000 C 
BRANCH  20  23
ATOM     23  C   UNL     1       6.197   4.792  14.568  0.00  0.00    +0.000 A 
ATOM     24  C   UNL     1       5.441   3.862  13.824  0.00  0.00    +0.000 A 
ATOM     25  C   UNL     1       5.854   3.387  12.573  0.00  0.00    +0.000 A 
ATOM     26  C   UNL     1       7.044   3.842  12.034  0.00  0.00    +0.000 A 
ATOM     27  F   UNL     1       7.472   3.357  10.860  0.00  0.00    +0.000 F 
ATOM     28  C   UNL     1       7.805   4.781  12.709  0.00  0.00    +0.000 A 
ATOM     29  C   UNL     1       7.377   5.256  13.958  0.00  0.00    +0.000 A 
ENDBRANCH  20  23
ENDBRANCH  16  17
ENDBRANCH  13  16
TORSDOF 3
ENDMDL
MODEL 6
REMARK VINA RESULT:      -8.6      3.996      9.811
REMARK  Name = 
REMARK  4 active torsions:
REMARK  status: ('A' for Active; 'I' for Inactive)
REMARK    1  A    between atoms: C_1  and  N_2
REMARK    2  A    between atoms: C_13  and  C_14
REMARK    3  A    between atoms: C_14  and  N_15
REMARK    4  A    between atoms: N_18  and  C_19
REMARK                            x       y       z     vdW  Elec       q    Type
REMARK                         _______ _______ _______ _____ _____    ______ ____
ROOT
ATOM      1  C   UNL     1      -1.734  11.605  17.908  0.00  0.00    +0.000 C 
ATOM      2  N   UNL     1      -1.152  11.224  19.177  0.00  0.00    +0.000 N 
ATOM      3  C   UNL     1      -0.127  10.334  19.361  0.00  0.00    +0.000 A 
ATOM      4  C   UNL     1       0.006  10.108  20.724  0.00  0.00    +0.000 A 
ATOM      5  C   UNL     1      -0.881  10.998  21.394  0.00  0.00    +0.000 A 
ATOM      6  C   UNL     1      -1.167  11.282  22.746  0.00  0.00    +0.000 A 
ATOM      7  C   UNL     1      -2.157  12.219  23.068  0.00  0.00    +0.000 A 
ATOM      8  C   UNL     1      -2.866  12.873  22.065  0.00  0.00    +0.000 A 
ATOM      9  C   UNL     1      -2.602  12.615  20.716  0.00  0.00    +0.000 A 
ATOM     10  C   UNL     1      -1.606  11.676  20.404  0.00  0.00    +0.000 A 
ATOM     11  C   UNL     1       0.945   9.091  21.217  0.00  0.00    +0.000 C 
ATOM     12  O   UNL     1       1.325   9.056  22.381  0.00  0.00    +0.000 OA
ATOM     13  C   UNL     1       1.361   8.081  20.119  0.00  0.00    +0.000 C 
ATOM     14  C   UNL     1       1.859   8.917  18.915  0.00  0.00    +0.000 C 
ATOM     15  C   UNL     1       0.671   9.673  18.284  0.00  0.00    +0.000 C 
ENDROOT
BRANCH  13  16
ATOM     16  C   UNL     1       2.369   6.989  20.525  0.00  0.00    +0.000 C 
BRANCH  16  17
ATOM     17  N   UNL     1       2.132   5.661  19.941  0.00  0.00    +0.000 NA
ATOM     18  C   UNL     1       1.805   5.621  18.509  0.00  0.00    +0.000 C 
ATOM     19  C   UNL     1       2.983   5.885  17.554  0.00  0.00    +0.000 C 
ATOM     20  N   UNL     1       4.108   4.969  17.798  0.00  0.00    +0.000 N 
ATOM     21  C   UNL     1       4.449   4.699  19.213  0.00  0.00    +0.000 C 
ATOM     22  C   UNL     1       3.232   4.708  20.187  0.00  0.00    +0.000 C 
BRANCH  20  23
ATOM     23  C   UNL     1       5.108   4.857  16.821  0.00  0.00    +0.000 A 
ATOM     24  C   UNL     1       6.387   5.435  16.973  0.00  0.00    +0.000 A 
ATOM     25  C   UNL     1       7.339   5.430  15.946  0.00  0.00    +0.000 A 
ATOM     26  C   UNL     1       7.029   4.837  14.736  0.00  0.00    +0.000 A 
ATOM     27  F   UNL     1       7.916   4.871  13.732  0.00  0.00    +0.000 F 
ATOM     28  C   UNL     1       5.800   4.226  14.549  0.00  0.00    +0.000 A 
ATOM     29  C   UNL     1       4.856   4.230  15.587  0.00  0.00    +0.000 A 
ENDBRANCH  20  23
ENDBRANCH  16  17
ENDBRANCH  13  16
TORSDOF 3
ENDMDL
MODEL 7
REMARK VINA RESULT:      -8.6      2.780      3.098
REMARK  Name = 
REMARK  4 active torsions:
REMARK  status: ('A' for Active; 'I' for Inactive)
REMARK    1  A    between atoms: C_1  and  N_2
REMARK    2  A    between atoms: C_13  and  C_14
REMARK    3  A    between atoms: C_14  and  N_15
REMARK    4  A    between atoms: N_18  and  C_19
REMARK                            x       y       z     vdW  Elec       q    Type
REMARK                         _______ _______ _______ _____ _____    ______ ____
ROOT
ATOM      1  C   UNL     1       2.974   3.340  19.466  0.00  0.00    +0.000 C 
ATOM      2  N   UNL     1       3.198   4.661  18.917  0.00  0.00    +0.000 N 
ATOM      3  C   UNL     1       2.646   5.829  19.371  0.00  0.00    +0.000 A 
ATOM      4  C   UNL     1       2.961   6.834  18.466  0.00  0.00    +0.000 A 
ATOM      5  C   UNL     1       3.850   6.277  17.502  0.00  0.00    +0.000 A 
ATOM      6  C   UNL     1       4.547   6.787  16.386  0.00  0.00    +0.000 A 
ATOM      7  C   UNL     1       5.334   5.930  15.605  0.00  0.00    +0.000 A 
ATOM      8  C   UNL     1       5.432   4.578  15.917  0.00  0.00    +0.000 A 
ATOM      9  C   UNL     1       4.755   4.046  17.019  0.00  0.00    +0.000 A 
ATOM     10  C   UNL     1       3.972   4.913  17.797  0.00  0.00    +0.000 A 
ATOM     11  C   UNL     1       2.388   8.178  18.623  0.00  0.00    +0.000 C 
ATOM     12  O   UNL     1       2.852   9.160  18.057  0.00  0.00    +0.000 OA
ATOM     13  C   UNL     1       1.145   8.192  19.548  0.00  0.00    +0.000 C 
ATOM     14  C   UNL     1       1.563   7.489  20.862  0.00  0.00    +0.000 C 
ATOM     15  C   UNL     1       1.800   5.988  20.593  0.00  0.00    +0.000 C 
ENDROOT
BRANCH  13  16
ATOM     16  C   UNL     1       0.486   9.561  19.803  0.00  0.00    +0.000 C 
BRANCH  16  17
ATOM     17  N   UNL     1       1.021  10.317  20.943  0.00  0.00    +0.000 NA
ATOM     18  C   UNL     1       0.958  11.782  20.849  0.00  0.00    +0.000 C 
ATOM     19  C   UNL     1      -0.441  12.397  21.037  0.00  0.00    +0.000 C 
ATOM     20  N   UNL     1      -1.059  11.987  22.308  0.00  0.00    +0.000 N 
ATOM     21  C   UNL     1      -0.901  10.566  22.694  0.00  0.00    +0.000 C 
ATOM     22  C   UNL     1       0.440   9.916  22.240  0.00  0.00    +0.000 C 
BRANCH  20  23
ATOM     23  C   UNL     1      -2.169  12.703  22.776  0.00  0.00    +0.000 A 
ATOM     24  C   UNL     1      -3.096  12.157  23.690  0.00  0.00    +0.000 A 
ATOM     25  C   UNL     1      -4.269  12.826  24.060  0.00  0.00    +0.000 A 
ATOM     26  C   UNL     1      -4.540  14.070  23.520  0.00  0.00    +0.000 A 
ATOM     27  F   UNL     1      -5.683  14.697  23.831  0.00  0.00    +0.000 F 
ATOM     28  C   UNL     1      -3.644  14.664  22.646  0.00  0.00    +0.000 A 
ATOM     29  C   UNL     1      -2.468  13.988  22.288  0.00  0.00    +0.000 A 
ENDBRANCH  20  23
ENDBRANCH  16  17
ENDBRANCH  13  16
TORSDOF 3
ENDMDL
MODEL 8
REMARK VINA RESULT:      -8.5      2.830      3.591
REMARK  Name = 
REMARK  4 active torsions:
REMARK  status: ('A' for Active; 'I' for Inactive)
REMARK    1  A    between atoms: C_1  and  N_2
REMARK    2  A    between atoms: C_13  and  C_14
REMARK    3  A    between atoms: C_14  and  N_15
REMARK    4  A    between atoms: N_18  and  C_19
REMARK                            x       y       z     vdW  Elec       q    Type
REMARK                         _______ _______ _______ _____ _____    ______ ____
ROOT
ATOM      1  C   UNL     1       3.317   3.731  19.738  0.00  0.00    +0.000 C 
ATOM      2  N   UNL     1       3.498   4.943  18.968  0.00  0.00    +0.000 N 
ATOM      3  C   UNL     1       2.911   6.154  19.218  0.00  0.00    +0.000 A 
ATOM      4  C   UNL     1       3.191   6.997  18.151  0.00  0.00    +0.000 A 
ATOM      5  C   UNL     1       4.095   6.310  17.290  0.00  0.00    +0.000 A 
ATOM      6  C   UNL     1       4.772   6.641  16.097  0.00  0.00    +0.000 A 
ATOM      7  C   UNL     1       5.583   5.687  15.469  0.00  0.00    +0.000 A 
ATOM      8  C   UNL     1       5.725   4.412  16.009  0.00  0.00    +0.000 A 
ATOM      9  C   UNL     1       5.068   4.058  17.191  0.00  0.00    +0.000 A 
ATOM     10  C   UNL     1       4.261   5.021  17.814  0.00  0.00    +0.000 A 
ATOM     11  C   UNL     1       2.577   8.330  18.079  0.00  0.00    +0.000 C 
ATOM     12  O   UNL     1       3.008   9.214  17.348  0.00  0.00    +0.000 OA
ATOM     13  C   UNL     1       1.337   8.466  18.998  0.00  0.00    +0.000 C 
ATOM     14  C   UNL     1       1.780   8.013  20.410  0.00  0.00    +0.000 C 
ATOM     15  C   UNL     1       2.064   6.496  20.401  0.00  0.00    +0.000 C 
ENDROOT
BRANCH  13  16
ATOM     16  C   UNL     1       0.635   9.837  19.019  0.00  0.00    +0.000 C 
BRANCH  16  17
ATOM     17  N   UNL     1       0.621  10.519  20.320  0.00  0.00    +0.000 NA
ATOM     18  C   UNL     1       1.497  11.690  20.459  0.00  0.00    +0.000 C 
ATOM     19  C   UNL     1       1.021  12.962  19.733  0.00  0.00    +0.000 C 
ATOM     20  N   UNL     1      -0.340  13.351  20.135  0.00  0.00    +0.000 N 
ATOM     21  C   UNL     1      -1.328  12.258  20.275  0.00  0.00    +0.000 C 
ATOM     22  C   UNL     1      -0.733  10.904  20.767  0.00  0.00    +0.000 C 
BRANCH  20  23
ATOM     23  C   UNL     1      -0.788  14.642  19.824  0.00  0.00    +0.000 A 
ATOM     24  C   UNL     1      -0.272  15.386  18.741  0.00  0.00    +0.000 A 
ATOM     25  C   UNL     1      -0.630  16.720  18.508  0.00  0.00    +0.000 A 
ATOM     26  C   UNL     1      -1.525  17.341  19.360  0.00  0.00    +0.000 A 
ATOM     27  F   UNL     1      -1.836  18.631  19.173  0.00  0.00    +0.000 F 
ATOM     28  C   UNL     1      -2.087  16.643  20.416  0.00  0.00    +0.000 A 
ATOM     29  C   UNL     1      -1.727  15.304  20.636  0.00  0.00    +0.000 A 
ENDBRANCH  20  23
ENDBRANCH  16  17
ENDBRANCH  13  16
TORSDOF 3
ENDMDL
MODEL 9
REMARK VINA RESULT:      -8.5      3.139      3.537
REMARK  Name = 
REMARK  4 active torsions:
REMARK  status: ('A' for Active; 'I' for Inactive)
REMARK    1  A    between atoms: C_1  and  N_2
REMARK    2  A    between atoms: C_13  and  C_14
REMARK    3  A    between atoms: C_14  and  N_15
REMARK    4  A    between atoms: N_18  and  C_19
REMARK                            x       y       z     vdW  Elec       q    Type
REMARK                         _______ _______ _______ _____ _____    ______ ____
ROOT
ATOM      1  C   UNL     1       3.704   2.745  19.075  0.00  0.00    +0.000 C 
ATOM      2  N   UNL     1       3.711   4.140  18.690  0.00  0.00    +0.000 N 
ATOM      3  C   UNL     1       3.069   5.161  19.339  0.00  0.00    +0.000 A 
ATOM      4  C   UNL     1       3.170   6.301  18.553  0.00  0.00    +0.000 A 
ATOM      5  C   UNL     1       4.022   5.989  17.455  0.00  0.00    +0.000 A 
ATOM      6  C   UNL     1       4.540   6.719  16.364  0.00  0.00    +0.000 A 
ATOM      7  C   UNL     1       5.345   6.076  15.414  0.00  0.00    +0.000 A 
ATOM      8  C   UNL     1       5.635   4.720  15.534  0.00  0.00    +0.000 A 
ATOM      9  C   UNL     1       5.139   3.973  16.606  0.00  0.00    +0.000 A 
ATOM     10  C   UNL     1       4.336   4.627  17.554  0.00  0.00    +0.000 A 
ATOM     11  C   UNL     1       2.458   7.528  18.934  0.00  0.00    +0.000 C 
ATOM     12  O   UNL     1       2.741   8.625  18.468  0.00  0.00    +0.000 OA
ATOM     13  C   UNL     1       1.318   7.265  19.951  0.00  0.00    +0.000 C 
ATOM     14  C   UNL     1       1.944   6.469  21.121  0.00  0.00    +0.000 C 
ATOM     15  C   UNL     1       2.333   5.057  20.636  0.00  0.00    +0.000 C 
ENDROOT
BRANCH  13  16
ATOM     16  C   UNL     1       0.526   8.493  20.439  0.00  0.00    +0.000 C 
BRANCH  16  17
ATOM     17  N   UNL     1       1.218   9.344  21.417  0.00  0.00    +0.000 NA
ATOM     18  C   UNL     1       1.332  10.770  21.084  0.00  0.00    +0.000 C 
ATOM     19  C   UNL     1       0.034  11.587  21.220  0.00  0.00    +0.000 C 
ATOM     20  N   UNL     1      -0.554  11.470  22.564  0.00  0.00    +0.000 N 
ATOM     21  C   UNL     1      -0.551  10.121  23.174  0.00  0.00    +0.000 C 
ATOM     22  C   UNL     1       0.670   9.234  22.783  0.00  0.00    +0.000 C 
BRANCH  20  23
ATOM     23  C   UNL     1      -1.536  12.392  22.950  0.00  0.00    +0.000 A 
ATOM     24  C   UNL     1      -1.257  13.762  23.150  0.00  0.00    +0.000 A 
ATOM     25  C   UNL     1      -2.208  14.656  23.656  0.00  0.00    +0.000 A 
ATOM     26  C   UNL     1      -3.473  14.195  23.970  0.00  0.00    +0.000 A 
ATOM     27  F   UNL     1      -4.375  15.032  24.500  0.00  0.00    +0.000 F 
ATOM     28  C   UNL     1      -3.807  12.867  23.759  0.00  0.00    +0.000 A 
ATOM     29  C   UNL     1      -2.848  11.981  23.245  0.00  0.00    +0.000 A 
ENDBRANCH  20  23
ENDBRANCH  16  17
ENDBRANCH  13  16
TORSDOF 3
ENDMDL
