MODEL 1
REMARK VINA RESULT:      -8.0      0.000      0.000
REMARK  Name = 
REMARK  7 active torsions:
REMARK  status: ('A' for Active; 'I' for Inactive)
REMARK    1  A    between atoms: C_1  and  C_2
REMARK    2  A    between atoms: C_2  and  O_3
REMARK    3  A    between atoms: O_3  and  C_4
REMARK    4  A    between atoms: N_6  and  C_7
REMARK    5  A    between atoms: N_10  and  S_11
REMARK    6  A    between atoms: S_11  and  C_14
REMARK    7  A    between atoms: C_21  and  C_22
REMARK                            x       y       z     vdW  Elec       q    Type
REMARK                         _______ _______ _______ _____ _____    ______ ____
ROOT
ATOM      1  C   UNL     1       5.946   4.160  14.098  0.00  0.00    +0.000 A 
ATOM      2  S   UNL     1       5.459   3.699  15.660  0.00  0.00    +0.000 S 
ATOM      3  C   UNL     1       6.874   4.428  16.276  0.00  0.00    +0.000 A 
ATOM      4  N   UNL     1       7.300   4.281  17.610  0.00  0.00    +0.000 N 
ATOM      5  N   UNL     1       7.635   5.055  15.420  0.00  0.00    +0.000 NA
ATOM      6  C   UNL     1       7.124   4.887  14.136  0.00  0.00    +0.000 A 
ATOM      7  C   UNL     1       7.841   5.551  13.013  0.00  0.00    +0.000 C 
ATOM      8  H   UNL     1       6.986   3.436  18.074  0.00  0.00    +0.000 HD
ENDROOT
BRANCH   1  11
ATOM      9  C   UNL     1       5.624   2.966  12.070  0.00  0.00    +0.000 C 
ATOM     10  O   UNL     1       6.753   2.504  11.995  0.00  0.00    +0.000 OA
ATOM     11  N   UNL     1       5.129   3.743  13.077  0.00  0.00    +0.000 N 
ATOM     12  H   UNL     1       4.129   3.716  13.210  0.00  0.00    +0.000 HD
BRANCH   9  13
ATOM     13  O   UNL     1       4.650   2.743  11.145  0.00  0.00    +0.000 OA
BRANCH  13  15
ATOM     14  C   UNL     1       3.044   3.788   9.668  0.00  0.00    +0.000 C 
ATOM     15  C   UNL     1       3.676   3.793  11.053  0.00  0.00    +0.000 C 
ENDBRANCH  13  15
ENDBRANCH   9  13
ENDBRANCH   1  11
BRANCH   4  16
ATOM     16  S   UNL     1       6.841   5.585  18.573  0.00  0.00    +0.000 S 
ATOM     17  O   UNL     1       7.378   5.425  19.911  0.00  0.00    +0.000 OA
ATOM     18  O   UNL     1       7.149   6.769  17.806  0.00  0.00    +0.000 OA
BRANCH  16  19
ATOM     19  C   UNL     1       5.075   5.432  18.646  0.00  0.00    +0.000 A 
ATOM     20  C   UNL     1       4.272   6.389  18.015  0.00  0.00    +0.000 A 
ATOM     21  C   UNL     1       2.883   6.263  18.067  0.00  0.00    +0.000 A 
ATOM     22  C   UNL     1       2.305   5.181  18.732  0.00  0.00    +0.000 A 
ATOM     23  C   UNL     1       3.111   4.214  19.337  0.00  0.00    +0.000 A 
ATOM     24  C   UNL     1       4.501   4.332  19.290  0.00  0.00    +0.000 A 
ENDBRANCH  16  19
ENDBRANCH   4  16
TORSDOF 5
ENDMDL
MODEL 2
REMARK VINA RESULT:      -7.9      0.440      1.123
REMARK  Name = 
REMARK  7 active torsions:
REMARK  status: ('A' for Active; 'I' for Inactive)
REMARK    1  A    between atoms: C_1  and  C_2
REMARK    2  A    between atoms: C_2  and  O_3
REMARK    3  A    between atoms: O_3  and  C_4
REMARK    4  A    between atoms: N_6  and  C_7
REMARK    5  A    between atoms: N_10  and  S_11
REMARK    6  A    between atoms: S_11  and  C_14
REMARK    7  A    between atoms: C_21  and  C_22
REMARK                            x       y       z     vdW  Elec       q    Type
REMARK                         _______ _______ _______ _____ _____    ______ ____
ROOT
ATOM      1  C   UNL     1       6.046   4.107  13.762  0.00  0.00    +0.000 A 
ATOM      2  S   UNL     1       5.670   3.688  15.365  0.00  0.00    +0.000 S 
ATOM      3  C   UNL     1       7.100   4.471  15.868  0.00  0.00    +0.000 A 
ATOM      4  N   UNL     1       7.612   4.380  17.176  0.00  0.00    +0.000 N 
ATOM      5  N   UNL     1       7.789   5.088  14.945  0.00  0.00    +0.000 NA
ATOM      6  C   UNL     1       7.205   4.864  13.702  0.00  0.00    +0.000 A 
ATOM      7  C   UNL     1       7.833   5.507  12.515  0.00  0.00    +0.000 C 
ATOM      8  H   UNL     1       7.350   3.544  17.686  0.00  0.00    +0.000 HD
ENDROOT
BRANCH   1  11
ATOM      9  C   UNL     1       5.615   2.776  11.842  0.00  0.00    +0.000 C 
ATOM     10  O   UNL     1       6.730   2.284  11.756  0.00  0.00    +0.000 OA
ATOM     11  N   UNL     1       5.179   3.636  12.808  0.00  0.00    +0.000 N 
ATOM     12  H   UNL     1       4.184   3.643  12.983  0.00  0.00    +0.000 HD
BRANCH   9  13
ATOM     13  O   UNL     1       4.600   2.509  10.976  0.00  0.00    +0.000 OA
BRANCH  13  15
ATOM     14  C   UNL     1       3.162   3.980   9.701  0.00  0.00    +0.000 C 
ATOM     15  C   UNL     1       3.489   3.414  11.076  0.00  0.00    +0.000 C 
ENDBRANCH  13  15
ENDBRANCH   9  13
ENDBRANCH   1  11
BRANCH   4  16
ATOM     16  S   UNL     1       7.178   5.704  18.124  0.00  0.00    +0.000 S 
ATOM     17  O   UNL     1       7.819   5.613  19.422  0.00  0.00    +0.000 OA
ATOM     18  O   UNL     1       7.386   6.867  17.294  0.00  0.00    +0.000 OA
BRANCH  16  19
ATOM     19  C   UNL     1       5.429   5.495  18.335  0.00  0.00    +0.000 A 
ATOM     20  C   UNL     1       4.949   4.424  19.098  0.00  0.00    +0.000 A 
ATOM     21  C   UNL     1       3.573   4.265  19.268  0.00  0.00    +0.000 A 
ATOM     22  C   UNL     1       2.688   5.177  18.692  0.00  0.00    +0.000 A 
ATOM     23  C   UNL     1       3.174   6.260  17.955  0.00  0.00    +0.000 A 
ATOM     24  C   UNL     1       4.548   6.426  17.779  0.00  0.00    +0.000 A 
ENDBRANCH  16  19
ENDBRANCH   4  16
TORSDOF 5
ENDMDL
MODEL 3
REMARK VINA RESULT:      -6.8      3.452      5.875
REMARK  Name = 
REMARK  7 active torsions:
REMARK  status: ('A' for Active; 'I' for Inactive)
REMARK    1  A    between atoms: C_1  and  C_2
REMARK    2  A    between atoms: C_2  and  O_3
REMARK    3  A    between atoms: O_3  and  C_4
REMARK    4  A    between atoms: N_6  and  C_7
REMARK    5  A    between atoms: N_10  and  S_11
REMARK    6  A    between atoms: S_11  and  C_14
REMARK    7  A    between atoms: C_21  and  C_22
REMARK                            x       y       z     vdW  Elec       q    Type
REMARK                         _______ _______ _______ _____ _____    ______ ____
ROOT
ATOM      1  C   UNL     1       6.190   6.422  16.652  0.00  0.00    +0.000 A 
ATOM      2  S   UNL     1       4.939   6.085  17.752  0.00  0.00    +0.000 S 
ATOM      3  C   UNL     1       4.713   4.581  16.978  0.00  0.00    +0.000 A 
ATOM      4  N   UNL     1       3.622   3.732  17.244  0.00  0.00    +0.000 N 
ATOM      5  N   UNL     1       5.549   4.279  16.021  0.00  0.00    +0.000 NA
ATOM      6  C   UNL     1       6.404   5.354  15.796  0.00  0.00    +0.000 A 
ATOM      7  C   UNL     1       7.453   5.197  14.752  0.00  0.00    +0.000 C 
ATOM      8  H   UNL     1       2.788   4.194  17.589  0.00  0.00    +0.000 HD
ENDROOT
BRANCH   1  11
ATOM      9  C   UNL     1       7.704   7.898  17.736  0.00  0.00    +0.000 C 
ATOM     10  O   UNL     1       8.180   7.075  18.504  0.00  0.00    +0.000 OA
ATOM     11  N   UNL     1       6.765   7.662  16.773  0.00  0.00    +0.000 N 
ATOM     12  H   UNL     1       6.761   8.298  15.989  0.00  0.00    +0.000 HD
BRANCH   9  13
ATOM     13  O   UNL     1       8.070   9.208  17.705  0.00  0.00    +0.000 OA
BRANCH  13  15
ATOM     14  C   UNL     1       9.654  10.869  18.472  0.00  0.00    +0.000 C 
ATOM     15  C   UNL     1       8.853   9.626  18.834  0.00  0.00    +0.000 C 
ENDBRANCH  13  15
ENDBRANCH   9  13
ENDBRANCH   1  11
BRANCH   4  16
ATOM     16  S   UNL     1       4.012   2.515  18.342  0.00  0.00    +0.000 S 
ATOM     17  O   UNL     1       3.812   1.215  17.731  0.00  0.00    +0.000 OA
ATOM     18  O   UNL     1       5.304   2.871  18.880  0.00  0.00    +0.000 OA
BRANCH  16  19
ATOM     19  C   UNL     1       2.811   2.731  19.629  0.00  0.00    +0.000 A 
ATOM     20  C   UNL     1       1.488   3.043  19.294  0.00  0.00    +0.000 A 
ATOM     21  C   UNL     1       0.543   3.206  20.308  0.00  0.00    +0.000 A 
ATOM     22  C   UNL     1       0.916   3.045  21.642  0.00  0.00    +0.000 A 
ATOM     23  C   UNL     1       2.231   2.707  21.970  0.00  0.00    +0.000 A 
ATOM     24  C   UNL     1       3.183   2.542  20.963  0.00  0.00    +0.000 A 
ENDBRANCH  16  19
ENDBRANCH   4  16
TORSDOF 5
ENDMDL
MODEL 4
REMARK VINA RESULT:      -6.8      4.743      8.165
REMARK  Name = 
REMARK  7 active torsions:
REMARK  status: ('A' for Active; 'I' for Inactive)
REMARK    1  A    between atoms: C_1  and  C_2
REMARK    2  A    between atoms: C_2  and  O_3
REMARK    3  A    between atoms: O_3  and  C_4
REMARK    4  A    between atoms: N_6  and  C_7
REMARK    5  A    between atoms: N_10  and  S_11
REMARK    6  A    between atoms: S_11  and  C_14
REMARK    7  A    between atoms: C_21  and  C_22
REMARK                            x       y       z     vdW  Elec       q    Type
REMARK                         _______ _______ _______ _____ _____    ______ ____
ROOT
ATOM      1  C   UNL     1       2.094   7.142  20.235  0.00  0.00    +0.000 A 
ATOM      2  S   UNL     1       1.921   5.527  20.735  0.00  0.00    +0.000 S 
ATOM      3  C   UNL     1       2.219   5.035  19.128  0.00  0.00    +0.000 A 
ATOM      4  N   UNL     1       2.046   3.712  18.681  0.00  0.00    +0.000 N 
ATOM      5  N   UNL     1       2.517   5.974  18.270  0.00  0.00    +0.000 NA
ATOM      6  C   UNL     1       2.422   7.216  18.891  0.00  0.00    +0.000 A 
ATOM      7  C   UNL     1       2.747   8.422  18.081  0.00  0.00    +0.000 C 
ATOM      8  H   UNL     1       1.376   3.162  19.206  0.00  0.00    +0.000 HD
ENDROOT
BRANCH   1  11
ATOM      9  C   UNL     1       0.833   8.961  21.098  0.00  0.00    +0.000 C 
ATOM     10  O   UNL     1      -0.029   8.960  20.232  0.00  0.00    +0.000 OA
ATOM     11  N   UNL     1       1.877   8.088  21.205  0.00  0.00    +0.000 N 
ATOM     12  H   UNL     1       2.253   7.955  22.133  0.00  0.00    +0.000 HD
BRANCH   9  13
ATOM     13  O   UNL     1       0.867   9.843  22.134  0.00  0.00    +0.000 OA
BRANCH  13  15
ATOM     14  C   UNL     1      -1.136  10.828  23.068  0.00  0.00    +0.000 C 
ATOM     15  C   UNL     1      -0.173   9.649  23.104  0.00  0.00    +0.000 C 
ENDBRANCH  13  15
ENDBRANCH   9  13
ENDBRANCH   1  11
BRANCH   4  16
ATOM     16  S   UNL     1       3.495   2.852  18.656  0.00  0.00    +0.000 S 
ATOM     17  O   UNL     1       3.984   2.669  20.009  0.00  0.00    +0.000 OA
ATOM     18  O   UNL     1       3.257   1.705  17.811  0.00  0.00    +0.000 OA
BRANCH  16  19
ATOM     19  C   UNL     1       4.597   3.941  17.792  0.00  0.00    +0.000 A 
ATOM     20  C   UNL     1       4.487   4.077  16.404  0.00  0.00    +0.000 A 
ATOM     21  C   UNL     1       5.351   4.939  15.727  0.00  0.00    +0.000 A 
ATOM     22  C   UNL     1       6.305   5.669  16.436  0.00  0.00    +0.000 A 
ATOM     23  C   UNL     1       6.392   5.551  17.826  0.00  0.00    +0.000 A 
ATOM     24  C   UNL     1       5.533   4.691  18.510  0.00  0.00    +0.000 A 
ENDBRANCH  16  19
ENDBRANCH   4  16
TORSDOF 5
ENDMDL
MODEL 5
REMARK VINA RESULT:      -6.8      1.519      2.107
REMARK  Name = 
REMARK  7 active torsions:
REMARK  status: ('A' for Active; 'I' for Inactive)
REMARK    1  A    between atoms: C_1  and  C_2
REMARK    2  A    between atoms: C_2  and  O_3
REMARK    3  A    between atoms: O_3  and  C_4
REMARK    4  A    between atoms: N_6  and  C_7
REMARK    5  A    between atoms: N_10  and  S_11
REMARK    6  A    between atoms: S_11  and  C_14
REMARK    7  A    between atoms: C_21  and  C_22
REMARK                            x       y       z     vdW  Elec       q    Type
REMARK                         _______ _______ _______ _____ _____    ______ ____
ROOT
ATOM      1  C   UNL     1       6.670   3.784  13.564  0.00  0.00    +0.000 A 
ATOM      2  S   UNL     1       5.876   3.514  15.043  0.00  0.00    +0.000 S 
ATOM      3  C   UNL     1       6.638   4.908  15.665  0.00  0.00    +0.000 A 
ATOM      4  N   UNL     1       6.605   5.264  17.027  0.00  0.00    +0.000 N 
ATOM      5  N   UNL     1       7.371   5.600  14.834  0.00  0.00    +0.000 NA
ATOM      6  C   UNL     1       7.425   4.945  13.607  0.00  0.00    +0.000 A 
ATOM      7  C   UNL     1       8.197   5.590  12.510  0.00  0.00    +0.000 C 
ATOM      8  H   UNL     1       6.473   4.493  17.672  0.00  0.00    +0.000 HD
ENDROOT
BRANCH   1  11
ATOM      9  C   UNL     1       5.293   2.827  11.881  0.00  0.00    +0.000 C 
ATOM     10  O   UNL     1       4.395   3.653  11.946  0.00  0.00    +0.000 OA
ATOM     11  N   UNL     1       6.456   2.835  12.597  0.00  0.00    +0.000 N 
ATOM     12  H   UNL     1       7.239   2.355  12.178  0.00  0.00    +0.000 HD
BRANCH   9  13
ATOM     13  O   UNL     1       5.282   1.758  11.040  0.00  0.00    +0.000 OA
BRANCH  13  15
ATOM     14  C   UNL     1       6.043  -0.520  11.334  0.00  0.00    +0.000 C 
ATOM     15  C   UNL     1       6.453   0.931  11.124  0.00  0.00    +0.000 C 
ENDBRANCH  13  15
ENDBRANCH   9  13
ENDBRANCH   1  11
BRANCH   4  16
ATOM     16  S   UNL     1       5.414   6.409  17.359  0.00  0.00    +0.000 S 
ATOM     17  O   UNL     1       6.001   7.555  18.025  0.00  0.00    +0.000 OA
ATOM     18  O   UNL     1       4.683   6.583  16.126  0.00  0.00    +0.000 OA
BRANCH  16  19
ATOM     19  C   UNL     1       4.352   5.565  18.503  0.00  0.00    +0.000 A 
ATOM     20  C   UNL     1       3.273   6.248  19.076  0.00  0.00    +0.000 A 
ATOM     21  C   UNL     1       2.435   5.582  19.971  0.00  0.00    +0.000 A 
ATOM     22  C   UNL     1       2.668   4.241  20.277  0.00  0.00    +0.000 A 
ATOM     23  C   UNL     1       3.730   3.556  19.682  0.00  0.00    +0.000 A 
ATOM     24  C   UNL     1       4.573   4.214  18.787  0.00  0.00    +0.000 A 
ENDBRANCH  16  19
ENDBRANCH   4  16
TORSDOF 5
ENDMDL
MODEL 6
REMARK VINA RESULT:      -6.6      4.735      8.127
REMARK  Name = 
REMARK  7 active torsions:
REMARK  status: ('A' for Active; 'I' for Inactive)
REMARK    1  A    between atoms: C_1  and  C_2
REMARK    2  A    between atoms: C_2  and  O_3
REMARK    3  A    between atoms: O_3  and  C_4
REMARK    4  A    between atoms: N_6  and  C_7
REMARK    5  A    between atoms: N_10  and  S_11
REMARK    6  A    between atoms: S_11  and  C_14
REMARK    7  A    between atoms: C_21  and  C_22
REMARK                            x       y       z     vdW  Elec       q    Type
REMARK                         _______ _______ _______ _____ _____    ______ ____
ROOT
ATOM      1  C   UNL     1       2.086   7.215  20.140  0.00  0.00    +0.000 A 
ATOM      2  S   UNL     1       1.900   5.616  20.683  0.00  0.00    +0.000 S 
ATOM      3  C   UNL     1       2.203   5.078  19.092  0.00  0.00    +0.000 A 
ATOM      4  N   UNL     1       2.023   3.744  18.680  0.00  0.00    +0.000 N 
ATOM      5  N   UNL     1       2.510   5.991  18.210  0.00  0.00    +0.000 NA
ATOM      6  C   UNL     1       2.421   7.250  18.796  0.00  0.00    +0.000 A 
ATOM      7  C   UNL     1       2.758   8.431  17.955  0.00  0.00    +0.000 C 
ATOM      8  H   UNL     1       1.346   3.213  19.217  0.00  0.00    +0.000 HD
ENDROOT
BRANCH   1  11
ATOM      9  C   UNL     1       0.854   9.088  20.927  0.00  0.00    +0.000 C 
ATOM     10  O   UNL     1       0.016   9.091  20.039  0.00  0.00    +0.000 OA
ATOM     11  N   UNL     1       1.870   8.189  21.082  0.00  0.00    +0.000 N 
ATOM     12  H   UNL     1       2.217   8.067  22.022  0.00  0.00    +0.000 HD
BRANCH   9  13
ATOM     13  O   UNL     1       0.886   9.992  21.944  0.00  0.00    +0.000 OA
BRANCH  13  15
ATOM     14  C   UNL     1      -1.098  10.809  23.062  0.00  0.00    +0.000 C 
ATOM     15  C   UNL     1      -0.152  10.982  21.882  0.00  0.00    +0.000 C 
ENDBRANCH  13  15
ENDBRANCH   9  13
ENDBRANCH   1  11
BRANCH   4  16
ATOM     16  S   UNL     1       3.466   2.874  18.687  0.00  0.00    +0.000 S 
ATOM     17  O   UNL     1       3.932   2.701  20.049  0.00  0.00    +0.000 OA
ATOM     18  O   UNL     1       3.233   1.721  17.850  0.00  0.00    +0.000 OA
BRANCH  16  19
ATOM     19  C   UNL     1       4.589   3.947  17.830  0.00  0.00    +0.000 A 
ATOM     20  C   UNL     1       5.559   4.652  18.553  0.00  0.00    +0.000 A 
ATOM     21  C   UNL     1       6.445   5.490  17.876  0.00  0.00    +0.000 A 
ATOM     22  C   UNL     1       6.370   5.610  16.488  0.00  0.00    +0.000 A 
ATOM     23  C   UNL     1       5.419   4.884  15.768  0.00  0.00    +0.000 A 
ATOM     24  C   UNL     1       4.528   4.044  16.436  0.00  0.00    +0.000 A 
ENDBRANCH  16  19
ENDBRANCH   4  16
TORSDOF 5
ENDMDL
MODEL 7
REMARK VINA RESULT:      -6.6      3.270      4.656
REMARK  Name = 
REMARK  7 active torsions:
REMARK  status: ('A' for Active; 'I' for Inactive)
REMARK    1  A    between atoms: C_1  and  C_2
REMARK    2  A    between atoms: C_2  and  O_3
REMARK    3  A    between atoms: O_3  and  C_4
REMARK    4  A    between atoms: N_6  and  C_7
REMARK    5  A    between atoms: N_10  and  S_11
REMARK    6  A    between atoms: S_11  and  C_14
REMARK    7  A    between atoms: C_21  and  C_22
REMARK                            x       y       z     vdW  Elec       q    Type
REMARK                         _______ _______ _______ _____ _____    ______ ____
ROOT
ATOM      1  C   UNL     1       5.483   3.902  17.448  0.00  0.00    +0.000 A 
ATOM      2  S   UNL     1       4.201   2.793  17.311  0.00  0.00    +0.000 S 
ATOM      3  C   UNL     1       3.860   3.040  18.965  0.00  0.00    +0.000 A 
ATOM      4  N   UNL     1       2.950   2.250  19.692  0.00  0.00    +0.000 N 
ATOM      5  N   UNL     1       4.573   3.941  19.586  0.00  0.00    +0.000 NA
ATOM      6  C   UNL     1       5.546   4.437  18.724  0.00  0.00    +0.000 A 
ATOM      7  C   UNL     1       6.453   5.499  19.239  0.00  0.00    +0.000 C 
ATOM      8  H   UNL     1       2.810   1.311  19.336  0.00  0.00    +0.000 HD
ENDROOT
BRANCH   1  11
ATOM      9  C   UNL     1       5.966   5.105  15.457  0.00  0.00    +0.000 C 
ATOM     10  O   UNL     1       5.135   5.986  15.618  0.00  0.00    +0.000 OA
ATOM     11  N   UNL     1       6.235   4.077  16.314  0.00  0.00    +0.000 N 
ATOM     12  H   UNL     1       7.163   3.682  16.258  0.00  0.00    +0.000 HD
BRANCH   9  13
ATOM     13  O   UNL     1       6.792   5.029  14.378  0.00  0.00    +0.000 OA
BRANCH  13  15
ATOM     14  C   UNL     1       7.140   4.240  12.117  0.00  0.00    +0.000 C 
ATOM     15  C   UNL     1       6.455   3.984  13.452  0.00  0.00    +0.000 C 
ENDBRANCH  13  15
ENDBRANCH   9  13
ENDBRANCH   1  11
BRANCH   4  16
ATOM     16  S   UNL     1       1.432   2.973  19.812  0.00  0.00    +0.000 S 
ATOM     17  O   UNL     1       0.554   2.452  18.783  0.00  0.00    +0.000 OA
ATOM     18  O   UNL     1       1.057   2.871  21.203  0.00  0.00    +0.000 OA
BRANCH  16  19
ATOM     19  C   UNL     1       1.769   4.680  19.465  0.00  0.00    +0.000 A 
ATOM     20  C   UNL     1       1.928   5.582  20.524  0.00  0.00    +0.000 A 
ATOM     21  C   UNL     1       2.200   6.923  20.249  0.00  0.00    +0.000 A 
ATOM     22  C   UNL     1       2.325   7.352  18.928  0.00  0.00    +0.000 A 
ATOM     23  C   UNL     1       2.192   6.443  17.876  0.00  0.00    +0.000 A 
ATOM     24  C   UNL     1       1.920   5.101  18.141  0.00  0.00    +0.000 A 
ENDBRANCH  16  19
ENDBRANCH   4  16
TORSDOF 5
ENDMDL
MODEL 8
REMARK VINA RESULT:      -6.6      3.033      7.333
REMARK  Name = 
REMARK  7 active torsions:
REMARK  status: ('A' for Active; 'I' for Inactive)
REMARK    1  A    between atoms: C_1  and  C_2
REMARK    2  A    between atoms: C_2  and  O_3
REMARK    3  A    between atoms: O_3  and  C_4
REMARK    4  A    between atoms: N_6  and  C_7
REMARK    5  A    between atoms: N_10  and  S_11
REMARK    6  A    between atoms: S_11  and  C_14
REMARK    7  A    between atoms: C_21  and  C_22
REMARK                            x       y       z     vdW  Elec       q    Type
REMARK                         _______ _______ _______ _____ _____    ______ ____
ROOT
ATOM      1  C   UNL     1       3.392   5.254  18.699  0.00  0.00    +0.000 A 
ATOM      2  S   UNL     1       5.038   5.580  18.432  0.00  0.00    +0.000 S 
ATOM      3  C   UNL     1       4.967   4.605  17.033  0.00  0.00    +0.000 A 
ATOM      4  N   UNL     1       6.106   4.213  16.305  0.00  0.00    +0.000 N 
ATOM      5  N   UNL     1       3.795   4.126  16.708  0.00  0.00    +0.000 NA
ATOM      6  C   UNL     1       2.866   4.471  17.685  0.00  0.00    +0.000 A 
ATOM      7  C   UNL     1       1.457   4.034  17.485  0.00  0.00    +0.000 C 
ATOM      8  H   UNL     1       6.969   4.180  16.837  0.00  0.00    +0.000 HD
ENDROOT
BRANCH   1  11
ATOM      9  C   UNL     1       2.265   7.018  19.824  0.00  0.00    +0.000 C 
ATOM     10  O   UNL     1       2.065   7.711  18.837  0.00  0.00    +0.000 OA
ATOM     11  N   UNL     1       2.862   5.791  19.846  0.00  0.00    +0.000 N 
ATOM     12  H   UNL     1       2.611   5.188  20.616  0.00  0.00    +0.000 HD
BRANCH   9  13
ATOM     13  O   UNL     1       1.886   7.365  21.084  0.00  0.00    +0.000 OA
BRANCH  13  15
ATOM     14  C   UNL     1      -0.130   8.535  21.735  0.00  0.00    +0.000 C 
ATOM     15  C   UNL     1       1.282   8.664  21.179  0.00  0.00    +0.000 C 
ENDBRANCH  13  15
ENDBRANCH   9  13
ENDBRANCH   1  11
BRANCH   4  16
ATOM     16  S   UNL     1       6.378   5.199  14.966  0.00  0.00    +0.000 S 
ATOM     17  O   UNL     1       5.436   6.301  14.963  0.00  0.00    +0.000 OA
ATOM     18  O   UNL     1       7.798   5.459  14.952  0.00  0.00    +0.000 OA
BRANCH  16  19
ATOM     19  C   UNL     1       6.011   4.130  13.597  0.00  0.00    +0.000 A 
ATOM     20  C   UNL     1       4.695   4.036  13.128  0.00  0.00    +0.000 A 
ATOM     21  C   UNL     1       4.409   3.201  12.048  0.00  0.00    +0.000 A 
ATOM     22  C   UNL     1       5.433   2.478  11.435  0.00  0.00    +0.000 A 
ATOM     23  C   UNL     1       6.748   2.597  11.889  0.00  0.00    +0.000 A 
ATOM     24  C   UNL     1       7.044   3.429  12.968  0.00  0.00    +0.000 A 
ENDBRANCH  16  19
ENDBRANCH   4  16
TORSDOF 5
ENDMDL
MODEL 9
REMARK VINA RESULT:      -6.6      3.261      4.537
REMARK  Name = 
REMARK  7 active torsions:
REMARK  status: ('A' for Active; 'I' for Inactive)
REMARK    1  A    between atoms: C_1  and  C_2
REMARK    2  A    between atoms: C_2  and  O_3
REMARK    3  A    between atoms: O_3  and  C_4
REMARK    4  A    between atoms: N_6  and  C_7
REMARK    5  A    between atoms: N_10  and  S_11
REMARK    6  A    between atoms: S_11  and  C_14
REMARK    7  A    between atoms: C_21  and  C_22
REMARK                            x       y       z     vdW  Elec       q    Type
REMARK                         _______ _______ _______ _____ _____    ______ ____
ROOT
ATOM      1  C   UNL     1       5.392   3.846  17.328  0.00  0.00    +0.000 A 
ATOM      2  S   UNL     1       4.080   2.769  17.251  0.00  0.00    +0.000 S 
ATOM      3  C   UNL     1       3.816   3.026  18.917  0.00  0.00    +0.000 A 
ATOM      4  N   UNL     1       2.920   2.260  19.685  0.00  0.00    +0.000 N 
ATOM      5  N   UNL     1       4.577   3.912  19.504  0.00  0.00    +0.000 NA
ATOM      6  C   UNL     1       5.523   4.383  18.599  0.00  0.00    +0.000 A 
ATOM      7  C   UNL     1       6.476   5.424  19.071  0.00  0.00    +0.000 C 
ATOM      8  H   UNL     1       2.743   1.324  19.338  0.00  0.00    +0.000 HD
ENDROOT
BRANCH   1  11
ATOM      9  C   UNL     1       5.871   5.078  15.354  0.00  0.00    +0.000 C 
ATOM     10  O   UNL     1       5.125   6.017  15.587  0.00  0.00    +0.000 OA
ATOM     11  N   UNL     1       6.099   4.001  16.162  0.00  0.00    +0.000 N 
ATOM     12  H   UNL     1       6.987   3.536  16.045  0.00  0.00    +0.000 HD
BRANCH   9  13
ATOM     13  O   UNL     1       6.633   4.975  14.231  0.00  0.00    +0.000 OA
BRANCH  13  15
ATOM     14  C   UNL     1       5.348   3.742  12.593  0.00  0.00    +0.000 C 
ATOM     15  C   UNL     1       6.523   3.711  13.560  0.00  0.00    +0.000 C 
ENDBRANCH  13  15
ENDBRANCH   9  13
ENDBRANCH   1  11
BRANCH   4  16
ATOM     16  S   UNL     1       1.426   3.019  19.869  0.00  0.00    +0.000 S 
ATOM     17  O   UNL     1       0.493   2.518  18.879  0.00  0.00    +0.000 OA
ATOM     18  O   UNL     1       1.110   2.927  21.274  0.00  0.00    +0.000 OA
BRANCH  16  19
ATOM     19  C   UNL     1       1.789   4.717  19.504  0.00  0.00    +0.000 A 
ATOM     20  C   UNL     1       1.893   5.131  18.171  0.00  0.00    +0.000 A 
ATOM     21  C   UNL     1       2.172   6.468  17.886  0.00  0.00    +0.000 A 
ATOM     22  C   UNL     1       2.329   7.384  18.927  0.00  0.00    +0.000 A 
ATOM     23  C   UNL     1       2.197   6.972  20.255  0.00  0.00    +0.000 A 
ATOM     24  C   UNL     1       1.919   5.637  20.549  0.00  0.00    +0.000 A 
ENDBRANCH  16  19
ENDBRANCH   4  16
TORSDOF 5
ENDMDL
