MODEL 1
REMARK VINA RESULT:      -8.5      0.000      0.000
REMARK  Name = 
REMARK  8 active torsions:
REMARK  status: ('A' for Active; 'I' for Inactive)
REMARK    1  A    between atoms: C_1  and  O_2
REMARK    2  A    between atoms: O_2  and  C_3
REMARK    3  A    between atoms: C_9  and  N_10
REMARK    4  A    between atoms: C_11  and  C_13
REMARK    5  A    between atoms: C_14  and  N_15
REMARK    6  A    between atoms: N_15  and  C_16
REMARK    7  A    between atoms: C_16  and  C_17
REMARK    8  A    between atoms: C_28  and  C_29
REMARK                            x       y       z     vdW  Elec       q    Type
REMARK                         _______ _______ _______ _____ _____    ______ ____
ROOT
ATOM      1  C   UNL     1       2.297   7.118  19.355  0.00  0.00    +0.000 A 
ATOM      2  C   UNL     1       1.842   6.635  20.582  0.00  0.00    +0.000 A 
ATOM      3  S   UNL     1       1.008   7.865  21.469  0.00  0.00    +0.000 S 
ATOM      4  C   UNL     1       1.095   8.972  20.198  0.00  0.00    +0.000 A 
ATOM      5  C   UNL     1       1.819   8.486  19.131  0.00  0.00    +0.000 A 
ATOM      6  C   UNL     1       2.007   9.308  17.876  0.00  0.00    +0.000 C 
ATOM      7  C   UNL     1       1.559  10.772  18.042  0.00  0.00    +0.000 C 
ATOM      8  C   UNL     1       0.263  10.929  18.863  0.00  0.00    +0.000 C 
ATOM      9  C   UNL     1      -0.950  10.324  18.146  0.00  0.00    +0.000 C 
ATOM     10  C   UNL     1       0.456  10.329  20.272  0.00  0.00    +0.000 C 
ENDROOT
BRANCH   1  12
ATOM     11  N   UNL     1       4.444   6.395  18.405  0.00  0.00    +0.000 N 
ATOM     12  C   UNL     1       3.053   6.381  18.321  0.00  0.00    +0.000 C 
ATOM     13  O   UNL     1       2.427   5.777  17.455  0.00  0.00    +0.000 OA
ATOM     14  H   UNL     1       4.860   6.863  19.203  0.00  0.00    +0.000 HD
BRANCH  11  21
ATOM     15  C   UNL     1       6.549   5.142  18.084  0.00  0.00    +0.000 A 
ATOM     16  C   UNL     1       7.379   4.356  17.262  0.00  0.00    +0.000 A 
ATOM     17  C   UNL     1       7.049   4.121  15.929  0.00  0.00    +0.000 A 
ATOM     18  C   UNL     1       5.880   4.660  15.413  0.00  0.00    +0.000 A 
ATOM     19 CL   UNL     1       5.489   4.408  13.756  0.00  0.00    +0.000 Cl
ATOM     20  C   UNL     1       5.027   5.406  16.221  0.00  0.00    +0.000 A 
ATOM     21  C   UNL     1       5.332   5.649  17.567  0.00  0.00    +0.000 A 
BRANCH  15  23
ATOM     22  C   UNL     1       8.214   5.779  19.657  0.00  0.00    +0.000 C 
ATOM     23  O   UNL     1       6.855   5.411  19.399  0.00  0.00    +0.000 OA
ENDBRANCH  15  23
ENDBRANCH  11  21
ENDBRANCH   1  12
BRANCH   2  24
ATOM     24  N   UNL     1       1.919   5.417  21.194  0.00  0.00    +0.000 N 
ATOM     25  H   UNL     1       1.986   5.455  22.211  0.00  0.00    +0.000 HD
BRANCH  24  26
ATOM     26  C   UNL     1       1.207   4.242  20.723  0.00  0.00    +0.000 C 
BRANCH  26  27
ATOM     27  C   UNL     1       2.026   3.377  19.821  0.00  0.00    +0.000 A 
ATOM     28  C   UNL     1       1.490   2.816  18.656  0.00  0.00    +0.000 A 
ATOM     29  C   UNL     1       2.323   2.137  17.775  0.00  0.00    +0.000 A 
ATOM     30  C   UNL     1       3.666   2.026  18.097  0.00  0.00    +0.000 A 
ATOM     31  N   UNL     1       4.217   2.528  19.223  0.00  0.00    +0.000 NA
ATOM     32  C   UNL     1       3.387   3.196  20.052  0.00  0.00    +0.000 A 
ENDBRANCH  26  27
ENDBRANCH  24  26
ENDBRANCH   2  24
TORSDOF 6
ENDMDL
MODEL 2
REMARK VINA RESULT:      -7.4      1.229      1.235
REMARK  Name = 
REMARK  8 active torsions:
REMARK  status: ('A' for Active; 'I' for Inactive)
REMARK    1  A    between atoms: C_1  and  O_2
REMARK    2  A    between atoms: O_2  and  C_3
REMARK    3  A    between atoms: C_9  and  N_10
REMARK    4  A    between atoms: C_11  and  C_13
REMARK    5  A    between atoms: C_14  and  N_15
REMARK    6  A    between atoms: N_15  and  C_16
REMARK    7  A    between atoms: C_16  and  C_17
REMARK    8  A    between atoms: C_28  and  C_29
REMARK                            x       y       z     vdW  Elec       q    Type
REMARK                         _______ _______ _______ _____ _____    ______ ____
ROOT
ATOM      1  C   UNL     1       2.790   6.656  19.542  0.00  0.00    +0.000 A 
ATOM      2  C   UNL     1       2.109   6.179  20.663  0.00  0.00    +0.000 A 
ATOM      3  S   UNL     1       0.991   7.355  21.265  0.00  0.00    +0.000 S 
ATOM      4  C   UNL     1       1.272   8.416  19.982  0.00  0.00    +0.000 A 
ATOM      5  C   UNL     1       2.260   7.962  19.136  0.00  0.00    +0.000 A 
ATOM      6  C   UNL     1       2.659   8.750  17.908  0.00  0.00    +0.000 C 
ATOM      7  C   UNL     1       2.062  10.168  17.883  0.00  0.00    +0.000 C 
ATOM      8  C   UNL     1       0.603  10.230  18.381  0.00  0.00    +0.000 C 
ATOM      9  C   UNL     1      -0.357   9.484  17.447  0.00  0.00    +0.000 C 
ATOM     10  C   UNL     1       0.519   9.707  19.831  0.00  0.00    +0.000 C 
ENDROOT
BRANCH   1  12
ATOM     11  N   UNL     1       4.005   6.360  17.428  0.00  0.00    +0.000 N 
ATOM     12  C   UNL     1       3.822   5.957  18.750  0.00  0.00    +0.000 C 
ATOM     13  O   UNL     1       4.481   5.076  19.292  0.00  0.00    +0.000 OA
ATOM     14  H   UNL     1       3.459   7.149  17.099  0.00  0.00    +0.000 HD
BRANCH  11  21
ATOM     15  C   UNL     1       6.383   6.231  16.770  0.00  0.00    +0.000 A 
ATOM     16  C   UNL     1       7.383   5.698  15.935  0.00  0.00    +0.000 A 
ATOM     17  C   UNL     1       7.051   4.880  14.856  0.00  0.00    +0.000 A 
ATOM     18  C   UNL     1       5.720   4.579  14.615  0.00  0.00    +0.000 A 
ATOM     19 CL   UNL     1       5.302   3.604  13.259  0.00  0.00    +0.000 Cl
ATOM     20  C   UNL     1       4.721   5.064  15.454  0.00  0.00    +0.000 A 
ATOM     21  C   UNL     1       5.028   5.881  16.551  0.00  0.00    +0.000 A 
BRANCH  15  23
ATOM     22  C   UNL     1       7.684   8.043  17.592  0.00  0.00    +0.000 C 
ATOM     23  O   UNL     1       6.673   7.058  17.832  0.00  0.00    +0.000 OA
ENDBRANCH  15  23
ENDBRANCH  11  21
ENDBRANCH   1  12
BRANCH   2  24
ATOM     24  N   UNL     1       2.148   4.998  21.347  0.00  0.00    +0.000 N 
ATOM     25  H   UNL     1       2.231   5.095  22.360  0.00  0.00    +0.000 HD
BRANCH  24  26
ATOM     26  C   UNL     1       1.384   3.826  20.958  0.00  0.00    +0.000 C 
BRANCH  26  27
ATOM     27  C   UNL     1       2.060   3.001  19.912  0.00  0.00    +0.000 A 
ATOM     28  C   UNL     1       1.612   2.986  18.586  0.00  0.00    +0.000 A 
ATOM     29  C   UNL     1       2.354   2.318  17.618  0.00  0.00    +0.000 A 
ATOM     30  C   UNL     1       3.513   1.672  18.012  0.00  0.00    +0.000 A 
ATOM     31  N   UNL     1       3.965   1.639  19.285  0.00  0.00    +0.000 NA
ATOM     32  C   UNL     1       3.234   2.310  20.199  0.00  0.00    +0.000 A 
ENDBRANCH  26  27
ENDBRANCH  24  26
ENDBRANCH   2  24
TORSDOF 6
ENDMDL
MODEL 3
REMARK VINA RESULT:      -7.4      1.002      1.006
REMARK  Name = 
REMARK  8 active torsions:
REMARK  status: ('A' for Active; 'I' for Inactive)
REMARK    1  A    between atoms: C_1  and  O_2
REMARK    2  A    between atoms: O_2  and  C_3
REMARK    3  A    between atoms: C_9  and  N_10
REMARK    4  A    between atoms: C_11  and  C_13
REMARK    5  A    between atoms: C_14  and  N_15
REMARK    6  A    between atoms: N_15  and  C_16
REMARK    7  A    between atoms: C_16  and  C_17
REMARK    8  A    between atoms: C_28  and  C_29
REMARK                            x       y       z     vdW  Elec       q    Type
REMARK                         _______ _______ _______ _____ _____    ______ ____
ROOT
ATOM      1  C   UNL     1       2.445   7.779  19.054  0.00  0.00    +0.000 A 
ATOM      2  C   UNL     1       2.119   7.001  20.165  0.00  0.00    +0.000 A 
ATOM      3  S   UNL     1       1.026   7.835  21.216  0.00  0.00    +0.000 S 
ATOM      4  C   UNL     1       0.851   9.136  20.154  0.00  0.00    +0.000 A 
ATOM      5  C   UNL     1       1.664   9.020  19.047  0.00  0.00    +0.000 A 
ATOM      6  C   UNL     1       1.652  10.068  17.958  0.00  0.00    +0.000 C 
ATOM      7  C   UNL     1       0.880  11.339  18.353  0.00  0.00    +0.000 C 
ATOM      8  C   UNL     1      -0.415  11.052  19.141  0.00  0.00    +0.000 C 
ATOM      9  C   UNL     1      -1.458  10.321  18.288  0.00  0.00    +0.000 C 
ATOM     10  C   UNL     1      -0.084  10.277  20.434  0.00  0.00    +0.000 C 
ENDROOT
BRANCH   1  12
ATOM     11  N   UNL     1       4.293   6.426  18.166  0.00  0.00    +0.000 N 
ATOM     12  C   UNL     1       3.347   7.424  17.939  0.00  0.00    +0.000 C 
ATOM     13  O   UNL     1       3.211   8.004  16.866  0.00  0.00    +0.000 OA
ATOM     14  H   UNL     1       4.274   5.958  19.066  0.00  0.00    +0.000 HD
BRANCH  11  21
ATOM     15  C   UNL     1       6.569   6.050  17.280  0.00  0.00    +0.000 A 
ATOM     16  C   UNL     1       7.417   5.444  16.333  0.00  0.00    +0.000 A 
ATOM     17  C   UNL     1       6.892   4.725  15.261  0.00  0.00    +0.000 A 
ATOM     18  C   UNL     1       5.518   4.595  15.137  0.00  0.00    +0.000 A 
ATOM     19 CL   UNL     1       4.864   3.744  13.791  0.00  0.00    +0.000 Cl
ATOM     20  C   UNL     1       4.665   5.152  16.085  0.00  0.00    +0.000 A 
ATOM     21  C   UNL     1       5.167   5.873  17.178  0.00  0.00    +0.000 A 
BRANCH  15  23
ATOM     22  C   UNL     1       7.910   7.878  17.996  0.00  0.00    +0.000 C 
ATOM     23  O   UNL     1       7.052   6.784  18.340  0.00  0.00    +0.000 OA
ENDBRANCH  15  23
ENDBRANCH  11  21
ENDBRANCH   1  12
BRANCH   2  24
ATOM     24  N   UNL     1       2.477   5.745  20.564  0.00  0.00    +0.000 N 
ATOM     25  H   UNL     1       3.034   5.712  21.418  0.00  0.00    +0.000 HD
BRANCH  24  26
ATOM     26  C   UNL     1       1.617   4.585  20.412  0.00  0.00    +0.000 C 
BRANCH  26  27
ATOM     27  C   UNL     1       2.230   3.498  19.589  0.00  0.00    +0.000 A 
ATOM     28  C   UNL     1       1.821   3.255  18.272  0.00  0.00    +0.000 A 
ATOM     29  C   UNL     1       2.513   2.332  17.498  0.00  0.00    +0.000 A 
ATOM     30  C   UNL     1       3.585   1.669  18.072  0.00  0.00    +0.000 A 
ATOM     31  N   UNL     1       3.995   1.854  19.346  0.00  0.00    +0.000 NA
ATOM     32  C   UNL     1       3.314   2.768  20.068  0.00  0.00    +0.000 A 
ENDBRANCH  26  27
ENDBRANCH  24  26
ENDBRANCH   2  24
TORSDOF 6
ENDMDL
MODEL 4
REMARK VINA RESULT:      -7.2      2.833      6.757
REMARK  Name = 
REMARK  8 active torsions:
REMARK  status: ('A' for Active; 'I' for Inactive)
REMARK    1  A    between atoms: C_1  and  O_2
REMARK    2  A    between atoms: O_2  and  C_3
REMARK    3  A    between atoms: C_9  and  N_10
REMARK    4  A    between atoms: C_11  and  C_13
REMARK    5  A    between atoms: C_14  and  N_15
REMARK    6  A    between atoms: N_15  and  C_16
REMARK    7  A    between atoms: C_16  and  C_17
REMARK    8  A    between atoms: C_28  and  C_29
REMARK                            x       y       z     vdW  Elec       q    Type
REMARK                         _______ _______ _______ _____ _____    ______ ____
ROOT
ATOM      1  C   UNL     1       3.530   5.768  17.935  0.00  0.00    +0.000 A 
ATOM      2  C   UNL     1       4.233   5.142  16.905  0.00  0.00    +0.000 A 
ATOM      3  S   UNL     1       4.270   3.425  17.125  0.00  0.00    +0.000 S 
ATOM      4  C   UNL     1       3.242   3.481  18.463  0.00  0.00    +0.000 A 
ATOM      5  C   UNL     1       2.926   4.773  18.825  0.00  0.00    +0.000 A 
ATOM      6  C   UNL     1       2.001   5.052  19.988  0.00  0.00    +0.000 C 
ATOM      7  C   UNL     1       1.706   3.802  20.838  0.00  0.00    +0.000 C 
ATOM      8  C   UNL     1       1.503   2.523  20.000  0.00  0.00    +0.000 C 
ATOM      9  C   UNL     1       0.242   2.598  19.130  0.00  0.00    +0.000 C 
ATOM     10  C   UNL     1       2.766   2.238  19.159  0.00  0.00    +0.000 C 
ENDROOT
BRANCH   1  12
ATOM     11  N   UNL     1       2.078   7.599  18.693  0.00  0.00    +0.000 N 
ATOM     12  C   UNL     1       3.284   7.215  18.107  0.00  0.00    +0.000 C 
ATOM     13  O   UNL     1       4.151   8.005  17.750  0.00  0.00    +0.000 OA
ATOM     14  H   UNL     1       1.461   6.863  19.020  0.00  0.00    +0.000 HD
BRANCH  11  21
ATOM     15  C   UNL     1       1.019   9.202  20.246  0.00  0.00    +0.000 A 
ATOM     16  C   UNL     1       0.730  10.532  20.605  0.00  0.00    +0.000 A 
ATOM     17  C   UNL     1       1.067  11.589  19.761  0.00  0.00    +0.000 A 
ATOM     18  C   UNL     1       1.708  11.324  18.561  0.00  0.00    +0.000 A 
ATOM     19 CL   UNL     1       2.089  12.621  17.497  0.00  0.00    +0.000 Cl
ATOM     20  C   UNL     1       2.038  10.018  18.208  0.00  0.00    +0.000 A 
ATOM     21  C   UNL     1       1.718   8.938  19.043  0.00  0.00    +0.000 A 
BRANCH  15  23
ATOM     22  C   UNL     1      -0.436   8.338  21.916  0.00  0.00    +0.000 C 
ATOM     23  O   UNL     1       0.682   8.133  21.046  0.00  0.00    +0.000 OA
ENDBRANCH  15  23
ENDBRANCH  11  21
ENDBRANCH   1  12
BRANCH   2  24
ATOM     24  N   UNL     1       4.868   5.607  15.789  0.00  0.00    +0.000 N 
ATOM     25  H   UNL     1       4.472   6.462  15.399  0.00  0.00    +0.000 HD
BRANCH  24  26
ATOM     26  C   UNL     1       6.304   5.515  15.593  0.00  0.00    +0.000 C 
BRANCH  26  27
ATOM     27  C   UNL     1       7.087   5.729  16.848  0.00  0.00    +0.000 A 
ATOM     28  C   UNL     1       7.390   7.014  17.314  0.00  0.00    +0.000 A 
ATOM     29  C   UNL     1       7.995   7.168  18.555  0.00  0.00    +0.000 A 
ATOM     30  C   UNL     1       8.293   6.030  19.285  0.00  0.00    +0.000 A 
ATOM     31  N   UNL     1       8.041   4.772  18.861  0.00  0.00    +0.000 NA
ATOM     32  C   UNL     1       7.439   4.654  17.659  0.00  0.00    +0.000 A 
ENDBRANCH  26  27
ENDBRANCH  24  26
ENDBRANCH   2  24
TORSDOF 6
ENDMDL
MODEL 5
REMARK VINA RESULT:      -7.2      3.080      6.982
REMARK  Name = 
REMARK  8 active torsions:
REMARK  status: ('A' for Active; 'I' for Inactive)
REMARK    1  A    between atoms: C_1  and  O_2
REMARK    2  A    between atoms: O_2  and  C_3
REMARK    3  A    between atoms: C_9  and  N_10
REMARK    4  A    between atoms: C_11  and  C_13
REMARK    5  A    between atoms: C_14  and  N_15
REMARK    6  A    between atoms: N_15  and  C_16
REMARK    7  A    between atoms: C_16  and  C_17
REMARK    8  A    between atoms: C_28  and  C_29
REMARK                            x       y       z     vdW  Elec       q    Type
REMARK                         _______ _______ _______ _____ _____    ______ ____
ROOT
ATOM      1  C   UNL     1       3.284   6.159  18.196  0.00  0.00    +0.000 A 
ATOM      2  C   UNL     1       4.335   5.653  17.430  0.00  0.00    +0.000 A 
ATOM      3  S   UNL     1       4.727   4.033  17.895  0.00  0.00    +0.000 S 
ATOM      4  C   UNL     1       3.434   3.931  18.975  0.00  0.00    +0.000 A 
ATOM      5  C   UNL     1       2.744   5.120  19.078  0.00  0.00    +0.000 A 
ATOM      6  C   UNL     1       1.535   5.245  19.978  0.00  0.00    +0.000 C 
ATOM      7  C   UNL     1       1.358   4.040  20.919  0.00  0.00    +0.000 C 
ATOM      8  C   UNL     1       1.665   2.685  20.248  0.00  0.00    +0.000 C 
ATOM      9  C   UNL     1       0.660   2.350  19.140  0.00  0.00    +0.000 C 
ATOM     10  C   UNL     1       3.119   2.671  19.730  0.00  0.00    +0.000 C 
ENDROOT
BRANCH   1  12
ATOM     11  N   UNL     1       2.059   8.007  19.254  0.00  0.00    +0.000 N 
ATOM     12  C   UNL     1       2.668   7.499  18.107  0.00  0.00    +0.000 C 
ATOM     13  O   UNL     1       2.736   8.107  17.044  0.00  0.00    +0.000 OA
ATOM     14  H   UNL     1       2.122   7.454  20.102  0.00  0.00    +0.000 HD
BRANCH  11  21
ATOM     15  C   UNL     1       0.459   9.574  20.298  0.00  0.00    +0.000 A 
ATOM     16  C   UNL     1      -0.018  10.888  20.463  0.00  0.00    +0.000 A 
ATOM     17  C   UNL     1       0.492  11.935  19.699  0.00  0.00    +0.000 A 
ATOM     18  C   UNL     1       1.493  11.678  18.774  0.00  0.00    +0.000 A 
ATOM     19 CL   UNL     1       2.097  12.960  17.798  0.00  0.00    +0.000 Cl
ATOM     20  C   UNL     1       2.006  10.393  18.626  0.00  0.00    +0.000 A 
ATOM     21  C   UNL     1       1.516   9.324  19.389  0.00  0.00    +0.000 A 
BRANCH  15  23
ATOM     22  C   UNL     1      -0.380   8.798  22.382  0.00  0.00    +0.000 C 
ATOM     23  O   UNL     1      -0.036   8.513  21.022  0.00  0.00    +0.000 OA
ENDBRANCH  15  23
ENDBRANCH  11  21
ENDBRANCH   1  12
BRANCH   2  24
ATOM     24  N   UNL     1       5.082   6.172  16.411  0.00  0.00    +0.000 N 
ATOM     25  H   UNL     1       4.956   7.172  16.257  0.00  0.00    +0.000 HD
BRANCH  24  26
ATOM     26  C   UNL     1       6.428   5.723  16.103  0.00  0.00    +0.000 C 
BRANCH  26  27
ATOM     27  C   UNL     1       6.529   5.014  14.791  0.00  0.00    +0.000 A 
ATOM     28  C   UNL     1       5.531   4.134  14.354  0.00  0.00    +0.000 A 
ATOM     29  C   UNL     1       5.595   3.608  13.070  0.00  0.00    +0.000 A 
ATOM     30  C   UNL     1       6.666   3.966  12.268  0.00  0.00    +0.000 A 
ATOM     31  N   UNL     1       7.662   4.790  12.660  0.00  0.00    +0.000 NA
ATOM     32  C   UNL     1       7.565   5.298  13.906  0.00  0.00    +0.000 A 
ENDBRANCH  26  27
ENDBRANCH  24  26
ENDBRANCH   2  24
TORSDOF 6
ENDMDL
MODEL 6
REMARK VINA RESULT:      -7.0      1.319      1.531
REMARK  Name = 
REMARK  8 active torsions:
REMARK  status: ('A' for Active; 'I' for Inactive)
REMARK    1  A    between atoms: C_1  and  O_2
REMARK    2  A    between atoms: O_2  and  C_3
REMARK    3  A    between atoms: C_9  and  N_10
REMARK    4  A    between atoms: C_11  and  C_13
REMARK    5  A    between atoms: C_14  and  N_15
REMARK    6  A    between atoms: N_15  and  C_16
REMARK    7  A    between atoms: C_16  and  C_17
REMARK    8  A    between atoms: C_28  and  C_29
REMARK                            x       y       z     vdW  Elec       q    Type
REMARK                         _______ _______ _______ _____ _____    ______ ____
ROOT
ATOM      1  C   UNL     1       2.179   7.978  19.242  0.00  0.00    +0.000 A 
ATOM      2  C   UNL     1       1.841   7.201  20.351  0.00  0.00    +0.000 A 
ATOM      3  S   UNL     1       0.782   8.057  21.418  0.00  0.00    +0.000 S 
ATOM      4  C   UNL     1       0.633   9.370  20.367  0.00  0.00    +0.000 A 
ATOM      5  C   UNL     1       1.433   9.240  19.251  0.00  0.00    +0.000 A 
ATOM      6  C   UNL     1       1.439  10.295  18.169  0.00  0.00    +0.000 C 
ATOM      7  C   UNL     1       0.706  11.585  18.580  0.00  0.00    +0.000 C 
ATOM      8  C   UNL     1      -0.589  11.328  19.378  0.00  0.00    +0.000 C 
ATOM      9  C   UNL     1      -1.660  10.631  18.531  0.00  0.00    +0.000 C 
ATOM     10  C   UNL     1      -0.267  10.535  20.664  0.00  0.00    +0.000 C 
ENDROOT
BRANCH   1  12
ATOM     11  N   UNL     1       4.151   6.784  18.394  0.00  0.00    +0.000 N 
ATOM     12  C   UNL     1       3.060   7.606  18.116  0.00  0.00    +0.000 C 
ATOM     13  O   UNL     1       2.784   8.017  16.993  0.00  0.00    +0.000 OA
ATOM     14  H   UNL     1       4.248   6.439  19.343  0.00  0.00    +0.000 HD
BRANCH  11  21
ATOM     15  C   UNL     1       6.351   6.746  17.268  0.00  0.00    +0.000 A 
ATOM     16  C   UNL     1       7.232   6.147  16.349  0.00  0.00    +0.000 A 
ATOM     17  C   UNL     1       6.812   5.093  15.540  0.00  0.00    +0.000 A 
ATOM     18  C   UNL     1       5.514   4.622  15.656  0.00  0.00    +0.000 A 
ATOM     19 CL   UNL     1       4.978   3.348  14.630  0.00  0.00    +0.000 Cl
ATOM     20  C   UNL     1       4.640   5.175  16.588  0.00  0.00    +0.000 A 
ATOM     21  C   UNL     1       5.040   6.230  17.419  0.00  0.00    +0.000 A 
BRANCH  15  23
ATOM     22  C   UNL     1       7.937   8.465  17.692  0.00  0.00    +0.000 C 
ATOM     23  O   UNL     1       6.725   7.802  18.069  0.00  0.00    +0.000 OA
ENDBRANCH  15  23
ENDBRANCH  11  21
ENDBRANCH   1  12
BRANCH   2  24
ATOM     24  N   UNL     1       2.169   5.933  20.738  0.00  0.00    +0.000 N 
ATOM     25  H   UNL     1       2.546   5.860  21.683  0.00  0.00    +0.000 HD
BRANCH  24  26
ATOM     26  C   UNL     1       1.408   4.759  20.346  0.00  0.00    +0.000 C 
BRANCH  26  27
ATOM     27  C   UNL     1       2.173   3.827  19.464  0.00  0.00    +0.000 A 
ATOM     28  C   UNL     1       3.435   3.341  19.829  0.00  0.00    +0.000 A 
ATOM     29  C   UNL     1       4.047   2.368  19.048  0.00  0.00    +0.000 A 
ATOM     30  C   UNL     1       3.384   1.922  17.917  0.00  0.00    +0.000 A 
ATOM     31  N   UNL     1       2.179   2.384  17.516  0.00  0.00    +0.000 NA
ATOM     32  C   UNL     1       1.602   3.317  18.302  0.00  0.00    +0.000 A 
ENDBRANCH  26  27
ENDBRANCH  24  26
ENDBRANCH   2  24
TORSDOF 6
ENDMDL
MODEL 7
REMARK VINA RESULT:      -7.0      1.905      5.596
REMARK  Name = 
REMARK  8 active torsions:
REMARK  status: ('A' for Active; 'I' for Inactive)
REMARK    1  A    between atoms: C_1  and  O_2
REMARK    2  A    between atoms: O_2  and  C_3
REMARK    3  A    between atoms: C_9  and  N_10
REMARK    4  A    between atoms: C_11  and  C_13
REMARK    5  A    between atoms: C_14  and  N_15
REMARK    6  A    between atoms: N_15  and  C_16
REMARK    7  A    between atoms: C_16  and  C_17
REMARK    8  A    between atoms: C_28  and  C_29
REMARK                            x       y       z     vdW  Elec       q    Type
REMARK                         _______ _______ _______ _____ _____    ______ ____
ROOT
ATOM      1  C   UNL     1       2.845   5.937  18.490  0.00  0.00    +0.000 A 
ATOM      2  C   UNL     1       2.272   6.974  19.227  0.00  0.00    +0.000 A 
ATOM      3  S   UNL     1       1.153   6.368  20.399  0.00  0.00    +0.000 S 
ATOM      4  C   UNL     1       1.530   4.757  20.062  0.00  0.00    +0.000 A 
ATOM      5  C   UNL     1       2.421   4.637  19.017  0.00  0.00    +0.000 A 
ATOM      6  C   UNL     1       2.910   3.280  18.561  0.00  0.00    +0.000 C 
ATOM      7  C   UNL     1       2.118   2.115  19.181  0.00  0.00    +0.000 C 
ATOM      8  C   UNL     1       1.767   2.332  20.668  0.00  0.00    +0.000 C 
ATOM      9  C   UNL     1       3.015   2.353  21.558  0.00  0.00    +0.000 C 
ATOM     10  C   UNL     1       0.924   3.616  20.828  0.00  0.00    +0.000 C 
ENDROOT
BRANCH   1  12
ATOM     11  N   UNL     1       4.583   4.911  17.089  0.00  0.00    +0.000 N 
ATOM     12  C   UNL     1       3.837   6.047  17.400  0.00  0.00    +0.000 C 
ATOM     13  O   UNL     1       3.944   7.116  16.809  0.00  0.00    +0.000 OA
ATOM     14  H   UNL     1       4.365   4.056  17.589  0.00  0.00    +0.000 HD
BRANCH  11  21
ATOM     15  C   UNL     1       6.831   5.261  16.126  0.00  0.00    +0.000 A 
ATOM     16  C   UNL     1       7.736   5.081  15.063  0.00  0.00    +0.000 A 
ATOM     17  C   UNL     1       7.323   4.507  13.863  0.00  0.00    +0.000 A 
ATOM     18  C   UNL     1       6.007   4.097  13.722  0.00  0.00    +0.000 A 
ATOM     19 CL   UNL     1       5.481   3.427  12.226  0.00  0.00    +0.000 Cl
ATOM     20  C   UNL     1       5.107   4.230  14.776  0.00  0.00    +0.000 A 
ATOM     21  C   UNL     1       5.499   4.796  15.997  0.00  0.00    +0.000 A 
BRANCH  15  23
ATOM     22  C   UNL     1       7.443   7.252  17.272  0.00  0.00    +0.000 C 
ATOM     23  O   UNL     1       7.200   5.842  17.319  0.00  0.00    +0.000 OA
ENDBRANCH  15  23
ENDBRANCH  11  21
ENDBRANCH   1  12
BRANCH   2  24
ATOM     24  N   UNL     1       2.427   8.331  19.207  0.00  0.00    +0.000 N 
ATOM     25  H   UNL     1       3.341   8.660  19.522  0.00  0.00    +0.000 HD
BRANCH  24  26
ATOM     26  C   UNL     1       1.847   9.185  18.186  0.00  0.00    +0.000 C 
BRANCH  26  27
ATOM     27  C   UNL     1       0.729  10.036  18.694  0.00  0.00    +0.000 A 
ATOM     28  C   UNL     1      -0.528  10.041  18.077  0.00  0.00    +0.000 A 
ATOM     29  C   UNL     1      -1.578  10.738  18.665  0.00  0.00    +0.000 A 
ATOM     30  C   UNL     1      -1.332  11.421  19.844  0.00  0.00    +0.000 A 
ATOM     31  N   UNL     1      -0.128  11.463  20.456  0.00  0.00    +0.000 NA
ATOM     32  C   UNL     1       0.868  10.765  19.871  0.00  0.00    +0.000 A 
ENDBRANCH  26  27
ENDBRANCH  24  26
ENDBRANCH   2  24
TORSDOF 6
ENDMDL
MODEL 8
REMARK VINA RESULT:      -6.9      1.996      5.674
REMARK  Name = 
REMARK  8 active torsions:
REMARK  status: ('A' for Active; 'I' for Inactive)
REMARK    1  A    between atoms: C_1  and  O_2
REMARK    2  A    between atoms: O_2  and  C_3
REMARK    3  A    between atoms: C_9  and  N_10
REMARK    4  A    between atoms: C_11  and  C_13
REMARK    5  A    between atoms: C_14  and  N_15
REMARK    6  A    between atoms: N_15  and  C_16
REMARK    7  A    between atoms: C_16  and  C_17
REMARK    8  A    between atoms: C_28  and  C_29
REMARK                            x       y       z     vdW  Elec       q    Type
REMARK                         _______ _______ _______ _____ _____    ______ ____
ROOT
ATOM      1  C   UNL     1       2.988   5.897  18.283  0.00  0.00    +0.000 A 
ATOM      2  C   UNL     1       2.457   6.957  19.017  0.00  0.00    +0.000 A 
ATOM      3  S   UNL     1       1.359   6.393  20.230  0.00  0.00    +0.000 S 
ATOM      4  C   UNL     1       1.693   4.770  19.909  0.00  0.00    +0.000 A 
ATOM      5  C   UNL     1       2.552   4.614  18.843  0.00  0.00    +0.000 A 
ATOM      6  C   UNL     1       3.000   3.241  18.396  0.00  0.00    +0.000 C 
ATOM      7  C   UNL     1       2.202   2.102  19.057  0.00  0.00    +0.000 C 
ATOM      8  C   UNL     1       1.896   2.350  20.549  0.00  0.00    +0.000 C 
ATOM      9  C   UNL     1       3.169   2.360  21.404  0.00  0.00    +0.000 C 
ATOM     10  C   UNL     1       1.085   3.654  20.710  0.00  0.00    +0.000 C 
ENDROOT
BRANCH   1  12
ATOM     11  N   UNL     1       4.531   4.775  16.735  0.00  0.00    +0.000 N 
ATOM     12  C   UNL     1       3.951   5.968  17.164  0.00  0.00    +0.000 C 
ATOM     13  O   UNL     1       4.179   7.060  16.654  0.00  0.00    +0.000 OA
ATOM     14  H   UNL     1       4.219   3.917  17.176  0.00  0.00    +0.000 HD
BRANCH  11  21
ATOM     15  C   UNL     1       6.743   5.049  15.669  0.00  0.00    +0.000 A 
ATOM     16  C   UNL     1       7.590   4.844  14.563  0.00  0.00    +0.000 A 
ATOM     17  C   UNL     1       7.100   4.294  13.380  0.00  0.00    +0.000 A 
ATOM     18  C   UNL     1       5.764   3.934  13.300  0.00  0.00    +0.000 A 
ATOM     19 CL   UNL     1       5.144   3.293  11.827  0.00  0.00    +0.000 Cl
ATOM     20  C   UNL     1       4.920   4.092  14.396  0.00  0.00    +0.000 A 
ATOM     21  C   UNL     1       5.391   4.634  15.600  0.00  0.00    +0.000 A 
BRANCH  15  23
ATOM     22  C   UNL     1       7.693   4.686  17.817  0.00  0.00    +0.000 C 
ATOM     23  O   UNL     1       7.189   5.608  16.845  0.00  0.00    +0.000 OA
ENDBRANCH  15  23
ENDBRANCH  11  21
ENDBRANCH   1  12
BRANCH   2  24
ATOM     24  N   UNL     1       2.640   8.310  18.971  0.00  0.00    +0.000 N 
ATOM     25  H   UNL     1       3.605   8.615  19.102  0.00  0.00    +0.000 HD
BRANCH  24  26
ATOM     26  C   UNL     1       1.893   9.185  18.085  0.00  0.00    +0.000 C 
BRANCH  26  27
ATOM     27  C   UNL     1       0.744   9.865  18.756  0.00  0.00    +0.000 A 
ATOM     28  C   UNL     1       0.857  10.392  20.049  0.00  0.00    +0.000 A 
ATOM     29  C   UNL     1      -0.187  11.140  20.579  0.00  0.00    +0.000 A 
ATOM     30  C   UNL     1      -1.320  11.323  19.804  0.00  0.00    +0.000 A 
ATOM     31  N   UNL     1      -1.480  10.810  18.565  0.00  0.00    +0.000 NA
ATOM     32  C   UNL     1      -0.443  10.102  18.070  0.00  0.00    +0.000 A 
ENDBRANCH  26  27
ENDBRANCH  24  26
ENDBRANCH   2  24
TORSDOF 6
ENDMDL
MODEL 9
REMARK VINA RESULT:      -6.9      3.040      6.268
REMARK  Name = 
REMARK  8 active torsions:
REMARK  status: ('A' for Active; 'I' for Inactive)
REMARK    1  A    between atoms: C_1  and  O_2
REMARK    2  A    between atoms: O_2  and  C_3
REMARK    3  A    between atoms: C_9  and  N_10
REMARK    4  A    between atoms: C_11  and  C_13
REMARK    5  A    between atoms: C_14  and  N_15
REMARK    6  A    between atoms: N_15  and  C_16
REMARK    7  A    between atoms: C_16  and  C_17
REMARK    8  A    between atoms: C_28  and  C_29
REMARK                            x       y       z     vdW  Elec       q    Type
REMARK                         _______ _______ _______ _____ _____    ______ ____
ROOT
ATOM      1  C   UNL     1       3.566   5.512  17.476  0.00  0.00    +0.000 A 
ATOM      2  C   UNL     1       3.559   4.201  16.998  0.00  0.00    +0.000 A 
ATOM      3  S   UNL     1       5.107   3.755  16.365  0.00  0.00    +0.000 S 
ATOM      4  C   UNL     1       5.828   5.201  16.857  0.00  0.00    +0.000 A 
ATOM      5  C   UNL     1       4.919   6.074  17.415  0.00  0.00    +0.000 A 
ATOM      6  C   UNL     1       5.355   7.423  17.941  0.00  0.00    +0.000 C 
ATOM      7  C   UNL     1       6.796   7.789  17.539  0.00  0.00    +0.000 C 
ATOM      8  C   UNL     1       7.774   6.598  17.606  0.00  0.00    +0.000 C 
ATOM      9  C   UNL     1       7.981   6.101  19.042  0.00  0.00    +0.000 C 
ATOM     10  C   UNL     1       7.294   5.468  16.670  0.00  0.00    +0.000 C 
ENDROOT
BRANCH   1  12
ATOM     11  N   UNL     1       2.755   7.344  18.896  0.00  0.00    +0.000 N 
ATOM     12  C   UNL     1       2.443   6.256  18.083  0.00  0.00    +0.000 C 
ATOM     13  O   UNL     1       1.297   5.899  17.829  0.00  0.00    +0.000 OA
ATOM     14  H   UNL     1       3.733   7.601  18.982  0.00  0.00    +0.000 HD
BRANCH  11  21
ATOM     15  C   UNL     1       1.474   9.456  18.812  0.00  0.00    +0.000 A 
ATOM     16  C   UNL     1       0.490  10.299  19.361  0.00  0.00    +0.000 A 
ATOM     17  C   UNL     1      -0.118   9.991  20.576  0.00  0.00    +0.000 A 
ATOM     18  C   UNL     1       0.243   8.832  21.243  0.00  0.00    +0.000 A 
ATOM     19 CL   UNL     1      -0.474   8.468  22.765  0.00  0.00    +0.000 Cl
ATOM     20  C   UNL     1       1.185   7.964  20.696  0.00  0.00    +0.000 A 
ATOM     21  C   UNL     1       1.805   8.246  19.471  0.00  0.00    +0.000 A 
BRANCH  15  23
ATOM     22  C   UNL     1       2.662  11.055  17.516  0.00  0.00    +0.000 C 
ATOM     23  O   UNL     1       2.109   9.739  17.624  0.00  0.00    +0.000 OA
ENDBRANCH  15  23
ENDBRANCH  11  21
ENDBRANCH   1  12
BRANCH   2  24
ATOM     24  N   UNL     1       2.599   3.232  16.943  0.00  0.00    +0.000 N 
ATOM     25  H   UNL     1       2.283   2.998  16.002  0.00  0.00    +0.000 HD
BRANCH  24  26
ATOM     26  C   UNL     1       2.563   2.093  17.844  0.00  0.00    +0.000 C 
BRANCH  26  27
ATOM     27  C   UNL     1       2.398   2.480  19.278  0.00  0.00    +0.000 A 
ATOM     28  C   UNL     1       1.170   2.924  19.782  0.00  0.00    +0.000 A 
ATOM     29  C   UNL     1       1.025   3.137  21.148  0.00  0.00    +0.000 A 
ATOM     30  C   UNL     1       2.120   2.913  21.965  0.00  0.00    +0.000 A 
ATOM     31  N   UNL     1       3.329   2.511  21.516  0.00  0.00    +0.000 NA
ATOM     32  C   UNL     1       3.435   2.298  20.188  0.00  0.00    +0.000 A 
ENDBRANCH  26  27
ENDBRANCH  24  26
ENDBRANCH   2  24
TORSDOF 6
ENDMDL
