MODEL 1
REMARK VINA RESULT:      -6.9      0.000      0.000
REMARK  Name = 
REMARK  3 active torsions:
REMARK  status: ('A' for Active; 'I' for Inactive)
REMARK    1  A    between atoms: C_1  and  N_2
REMARK    2  A    between atoms: C_6  and  C_7
REMARK    3  A    between atoms: C_7  and  C_8
REMARK                            x       y       z     vdW  Elec       q    Type
REMARK                         _______ _______ _______ _____ _____    ______ ____
ROOT
ATOM      1  C   UNL     1       3.694   3.305  17.492  0.00  0.00    +0.000 C 
ATOM      2  C   UNL     1       4.324   2.846  18.876  0.00  0.00    +0.000 C 
ATOM      3  O   UNL     1       5.254   3.681  19.478  0.00  0.00    +0.000 OA
ATOM      4  C   UNL     1       5.896   4.655  18.822  0.00  0.00    +0.000 A 
ATOM      5  C   UNL     1       7.170   5.496  19.503  0.00  0.00    +0.000 A 
ATOM      6  C   UNL     1       7.941   6.692  18.620  0.00  0.00    +0.000 A 
ATOM      7  C   UNL     1       7.433   7.038  17.065  0.00  0.00    +0.000 A 
ATOM      8  C   UNL     1       6.156   6.185  16.399  0.00  0.00    +0.000 A 
ATOM      9  C   UNL     1       5.399   4.995  17.289  0.00  0.00    +0.000 A 
ATOM     10  O   UNL     1       4.374   4.295  16.798  0.00  0.00    +0.000 OA
ENDROOT
BRANCH   1  11
ATOM     11  C   UNL     1       2.213   3.724  17.627  0.00  0.00    +0.000 C 
BRANCH  11  17
ATOM     12  C   UNL     1       1.052   3.150  20.538  0.00  0.00    +0.000 C 
ATOM     13  N   UNL     1       1.602   4.408  20.007  0.00  0.00    +0.000 N 
ATOM     14  C   UNL     1       1.712   5.550  20.705  0.00  0.00    +0.000 A 
ATOM     15  C   UNL     1       2.205   6.526  19.866  0.00  0.00    +0.000 A 
ATOM     16  N   UNL     1       2.410   5.999  18.642  0.00  0.00    +0.000 NA
ATOM     17  C   UNL     1       2.047   4.706  18.760  0.00  0.00    +0.000 A 
ENDBRANCH  11  17
ENDBRANCH   1  11
TORSDOF 2
ENDMDL
MODEL 2
REMARK VINA RESULT:      -6.8      0.608      1.555
REMARK  Name = 
REMARK  3 active torsions:
REMARK  status: ('A' for Active; 'I' for Inactive)
REMARK    1  A    between atoms: C_1  and  N_2
REMARK    2  A    between atoms: C_6  and  C_7
REMARK    3  A    between atoms: C_7  and  C_8
REMARK                            x       y       z     vdW  Elec       q    Type
REMARK                         _______ _______ _______ _____ _____    ______ ____
ROOT
ATOM      1  C   UNL     1       3.766   3.251  17.315  0.00  0.00    +0.000 C 
ATOM      2  C   UNL     1       4.404   2.771  18.688  0.00  0.00    +0.000 C 
ATOM      3  O   UNL     1       5.298   3.620  19.324  0.00  0.00    +0.000 OA
ATOM      4  C   UNL     1       5.908   4.639  18.705  0.00  0.00    +0.000 A 
ATOM      5  C   UNL     1       7.145   5.504  19.422  0.00  0.00    +0.000 A 
ATOM      6  C   UNL     1       7.876   6.756  18.584  0.00  0.00    +0.000 A 
ATOM      7  C   UNL     1       7.365   7.133  17.038  0.00  0.00    +0.000 A 
ATOM      8  C   UNL     1       6.125   6.256  16.335  0.00  0.00    +0.000 A 
ATOM      9  C   UNL     1       5.408   5.009  17.180  0.00  0.00    +0.000 A 
ATOM     10  O   UNL     1       4.413   4.289  16.658  0.00  0.00    +0.000 OA
ENDROOT
BRANCH   1  11
ATOM     11  C   UNL     1       2.270   3.610  17.453  0.00  0.00    +0.000 C 
BRANCH  11  17
ATOM     12  C   UNL     1       2.578   6.219  19.254  0.00  0.00    +0.000 C 
ATOM     13  N   UNL     1       1.994   4.919  19.624  0.00  0.00    +0.000 N 
ATOM     14  C   UNL     1       1.469   4.630  20.826  0.00  0.00    +0.000 A 
ATOM     15  C   UNL     1       1.083   3.307  20.823  0.00  0.00    +0.000 A 
ATOM     16  N   UNL     1       1.360   2.764  19.621  0.00  0.00    +0.000 NA
ATOM     17  C   UNL     1       1.900   3.771  18.907  0.00  0.00    +0.000 A 
ENDBRANCH  11  17
ENDBRANCH   1  11
TORSDOF 2
ENDMDL
MODEL 3
REMARK VINA RESULT:      -6.8      2.455      5.560
REMARK  Name = 
REMARK  3 active torsions:
REMARK  status: ('A' for Active; 'I' for Inactive)
REMARK    1  A    between atoms: C_1  and  N_2
REMARK    2  A    between atoms: C_6  and  C_7
REMARK    3  A    between atoms: C_7  and  C_8
REMARK                            x       y       z     vdW  Elec       q    Type
REMARK                         _______ _______ _______ _____ _____    ______ ____
ROOT
ATOM      1  C   UNL     1       3.713   6.573  17.349  0.00  0.00    +0.000 C 
ATOM      2  C   UNL     1       2.950   7.376  18.486  0.00  0.00    +0.000 C 
ATOM      3  O   UNL     1       2.420   6.659  19.549  0.00  0.00    +0.000 OA
ATOM      4  C   UNL     1       2.214   5.337  19.509  0.00  0.00    +0.000 A 
ATOM      5  C   UNL     1       1.370   4.532  20.707  0.00  0.00    +0.000 A 
ATOM      6  C   UNL     1       1.133   2.879  20.586  0.00  0.00    +0.000 A 
ATOM      7  C   UNL     1       1.740   2.044  19.271  0.00  0.00    +0.000 A 
ATOM      8  C   UNL     1       2.582   2.866  18.080  0.00  0.00    +0.000 A 
ATOM      9  C   UNL     1       2.808   4.514  18.212  0.00  0.00    +0.000 A 
ATOM     10  O   UNL     1       3.478   5.206  17.289  0.00  0.00    +0.000 OA
ENDROOT
BRANCH   1  11
ATOM     11  C   UNL     1       5.239   6.811  17.380  0.00  0.00    +0.000 C 
BRANCH  11  17
ATOM     12  C   UNL     1       7.561   4.695  17.910  0.00  0.00    +0.000 C 
ATOM     13  N   UNL     1       6.875   4.998  16.643  0.00  0.00    +0.000 N 
ATOM     14  C   UNL     1       7.128   4.392  15.472  0.00  0.00    +0.000 A 
ATOM     15  C   UNL     1       6.344   4.979  14.501  0.00  0.00    +0.000 A 
ATOM     16  N   UNL     1       5.596   5.950  15.061  0.00  0.00    +0.000 NA
ATOM     17  C   UNL     1       5.928   5.931  16.366  0.00  0.00    +0.000 A 
ENDBRANCH  11  17
ENDBRANCH   1  11
TORSDOF 2
ENDMDL
MODEL 4
REMARK VINA RESULT:      -6.8      1.254      1.596
REMARK  Name = 
REMARK  3 active torsions:
REMARK  status: ('A' for Active; 'I' for Inactive)
REMARK    1  A    between atoms: C_1  and  N_2
REMARK    2  A    between atoms: C_6  and  C_7
REMARK    3  A    between atoms: C_7  and  C_8
REMARK                            x       y       z     vdW  Elec       q    Type
REMARK                         _______ _______ _______ _____ _____    ______ ____
ROOT
ATOM      1  C   UNL     1       3.534   4.391  17.692  0.00  0.00    +0.000 C 
ATOM      2  C   UNL     1       4.373   3.486  18.691  0.00  0.00    +0.000 C 
ATOM      3  O   UNL     1       5.505   4.036  19.276  0.00  0.00    +0.000 OA
ATOM      4  C   UNL     1       6.115   5.130  18.805  0.00  0.00    +0.000 A 
ATOM      5  C   UNL     1       7.597   5.642  19.384  0.00  0.00    +0.000 A 
ATOM      6  C   UNL     1       8.312   7.011  18.737  0.00  0.00    +0.000 A 
ATOM      7  C   UNL     1       7.541   7.857  17.518  0.00  0.00    +0.000 A 
ATOM      8  C   UNL     1       6.058   7.329  16.950  0.00  0.00    +0.000 A 
ATOM      9  C   UNL     1       5.358   5.962  17.601  0.00  0.00    +0.000 A 
ATOM     10  O   UNL     1       4.175   5.511  17.181  0.00  0.00    +0.000 OA
ENDROOT
BRANCH   1  11
ATOM     11  C   UNL     1       2.177   4.827  18.289  0.00  0.00    +0.000 C 
BRANCH  11  17
ATOM     12  C   UNL     1       0.623   2.093  18.800  0.00  0.00    +0.000 C 
ATOM     13  N   UNL     1       1.322   2.942  19.780  0.00  0.00    +0.000 N 
ATOM     14  C   UNL     1       1.424   2.673  21.091  0.00  0.00    +0.000 A 
ATOM     15  C   UNL     1       2.086   3.718  21.698  0.00  0.00    +0.000 A 
ATOM     16  N   UNL     1       2.405   4.643  20.771  0.00  0.00    +0.000 NA
ATOM     17  C   UNL     1       1.940   4.139  19.610  0.00  0.00    +0.000 A 
ENDBRANCH  11  17
ENDBRANCH   1  11
TORSDOF 2
ENDMDL
MODEL 5
REMARK VINA RESULT:      -6.6      0.927      1.049
REMARK  Name = 
REMARK  3 active torsions:
REMARK  status: ('A' for Active; 'I' for Inactive)
REMARK    1  A    between atoms: C_1  and  N_2
REMARK    2  A    between atoms: C_6  and  C_7
REMARK    3  A    between atoms: C_7  and  C_8
REMARK                            x       y       z     vdW  Elec       q    Type
REMARK                         _______ _______ _______ _____ _____    ______ ____
ROOT
ATOM      1  C   UNL     1       3.555   2.380  18.146  0.00  0.00    +0.000 C 
ATOM      2  C   UNL     1       4.434   2.466  19.466  0.00  0.00    +0.000 C 
ATOM      3  O   UNL     1       5.308   3.536  19.600  0.00  0.00    +0.000 OA
ATOM      4  C   UNL     1       5.703   4.292  18.568  0.00  0.00    +0.000 A 
ATOM      5  C   UNL     1       6.923   5.425  18.711  0.00  0.00    +0.000 A 
ATOM      6  C   UNL     1       7.380   6.325  17.375  0.00  0.00    +0.000 A 
ATOM      7  C   UNL     1       6.613   6.087  15.908  0.00  0.00    +0.000 A 
ATOM      8  C   UNL     1       5.393   4.948  15.784  0.00  0.00    +0.000 A 
ATOM      9  C   UNL     1       4.950   4.056  17.122  0.00  0.00    +0.000 A 
ATOM     10  O   UNL     1       3.979   3.142  17.067  0.00  0.00    +0.000 OA
ENDROOT
BRANCH   1  11
ATOM     11  C   UNL     1       2.063   2.682  18.409  0.00  0.00    +0.000 C 
BRANCH  11  17
ATOM     12  C   UNL     1       1.340   2.784  21.510  0.00  0.00    +0.000 C 
ATOM     13  N   UNL     1       1.669   3.904  20.613  0.00  0.00    +0.000 N 
ATOM     14  C   UNL     1       1.727   5.192  20.986  0.00  0.00    +0.000 A 
ATOM     15  C   UNL     1       1.996   5.956  19.871  0.00  0.00    +0.000 A 
ATOM     16  N   UNL     1       2.111   5.150  18.797  0.00  0.00    +0.000 NA
ATOM     17  C   UNL     1       1.921   3.906  19.279  0.00  0.00    +0.000 A 
ENDBRANCH  11  17
ENDBRANCH   1  11
TORSDOF 2
ENDMDL
MODEL 6
REMARK VINA RESULT:      -6.5      2.404      5.437
REMARK  Name = 
REMARK  3 active torsions:
REMARK  status: ('A' for Active; 'I' for Inactive)
REMARK    1  A    between atoms: C_1  and  N_2
REMARK    2  A    between atoms: C_6  and  C_7
REMARK    3  A    between atoms: C_7  and  C_8
REMARK                            x       y       z     vdW  Elec       q    Type
REMARK                         _______ _______ _______ _____ _____    ______ ____
ROOT
ATOM      1  C   UNL     1       4.735   5.454  16.834  0.00  0.00    +0.000 C 
ATOM      2  C   UNL     1       4.258   6.598  17.826  0.00  0.00    +0.000 C 
ATOM      3  O   UNL     1       3.452   6.239  18.897  0.00  0.00    +0.000 OA
ATOM      4  C   UNL     1       2.784   5.080  18.954  0.00  0.00    +0.000 A 
ATOM      5  C   UNL     1       1.648   4.766  20.139  0.00  0.00    +0.000 A 
ATOM      6  C   UNL     1       0.836   3.302  20.142  0.00  0.00    +0.000 A 
ATOM      7  C   UNL     1       1.166   2.164  18.962  0.00  0.00    +0.000 A 
ATOM      8  C   UNL     1       2.307   2.496  17.783  0.00  0.00    +0.000 A 
ATOM      9  C   UNL     1       3.106   3.960  17.791  0.00  0.00    +0.000 A 
ATOM     10  O   UNL     1       4.026   4.262  16.872  0.00  0.00    +0.000 OA
ENDROOT
BRANCH   1  11
ATOM     11  C   UNL     1       6.241   5.139  16.977  0.00  0.00    +0.000 C 
BRANCH  11  17
ATOM     12  C   UNL     1       7.854   5.402  19.712  0.00  0.00    +0.000 C 
ATOM     13  N   UNL     1       7.709   6.400  18.639  0.00  0.00    +0.000 N 
ATOM     14  C   UNL     1       8.269   7.620  18.648  0.00  0.00    +0.000 A 
ATOM     15  C   UNL     1       7.860   8.293  17.516  0.00  0.00    +0.000 A 
ATOM     16  N   UNL     1       7.047   7.498  16.794  0.00  0.00    +0.000 NA
ATOM     17  C   UNL     1       6.983   6.347  17.492  0.00  0.00    +0.000 A 
ENDBRANCH  11  17
ENDBRANCH   1  11
TORSDOF 2
ENDMDL
MODEL 7
REMARK VINA RESULT:      -6.4      2.363      4.158
REMARK  Name = 
REMARK  3 active torsions:
REMARK  status: ('A' for Active; 'I' for Inactive)
REMARK    1  A    between atoms: C_1  and  N_2
REMARK    2  A    between atoms: C_6  and  C_7
REMARK    3  A    between atoms: C_7  and  C_8
REMARK                            x       y       z     vdW  Elec       q    Type
REMARK                         _______ _______ _______ _____ _____    ______ ____
ROOT
ATOM      1  C   UNL     1       4.160   5.340  17.945  0.00  0.00    +0.000 C 
ATOM      2  C   UNL     1       4.028   5.009  19.493  0.00  0.00    +0.000 C 
ATOM      3  O   UNL     1       3.063   5.685  20.225  0.00  0.00    +0.000 OA
ATOM      4  C   UNL     1       2.484   6.816  19.804  0.00  0.00    +0.000 A 
ATOM      5  C   UNL     1       1.497   7.732  20.794  0.00  0.00    +0.000 A 
ATOM      6  C   UNL     1       0.817   9.146  20.209  0.00  0.00    +0.000 A 
ATOM      7  C   UNL     1       1.128   9.632  18.640  0.00  0.00    +0.000 A 
ATOM      8  C   UNL     1       2.120   8.703  17.663  0.00  0.00    +0.000 A 
ATOM      9  C   UNL     1       2.792   7.298  18.260  0.00  0.00    +0.000 A 
ATOM     10  O   UNL     1       3.583   6.526  17.513  0.00  0.00    +0.000 OA
ENDROOT
BRANCH   1  11
ATOM     11  C   UNL     1       3.653   4.187  17.050  0.00  0.00    +0.000 C 
BRANCH  11  17
ATOM     12  C   UNL     1       3.822   1.354  18.497  0.00  0.00    +0.000 C 
ATOM     13  N   UNL     1       2.665   2.259  18.395  0.00  0.00    +0.000 N 
ATOM     14  C   UNL     1       1.457   2.020  18.931  0.00  0.00    +0.000 A 
ATOM     15  C   UNL     1       0.613   3.050  18.575  0.00  0.00    +0.000 A 
ATOM     16  N   UNL     1       1.289   3.939  17.820  0.00  0.00    +0.000 NA
ATOM     17  C   UNL     1       2.538   3.440  17.738  0.00  0.00    +0.000 A 
ENDBRANCH  11  17
ENDBRANCH   1  11
TORSDOF 2
ENDMDL
MODEL 8
REMARK VINA RESULT:      -6.4      1.777      3.221
REMARK  Name = 
REMARK  3 active torsions:
REMARK  status: ('A' for Active; 'I' for Inactive)
REMARK    1  A    between atoms: C_1  and  N_2
REMARK    2  A    between atoms: C_6  and  C_7
REMARK    3  A    between atoms: C_7  and  C_8
REMARK                            x       y       z     vdW  Elec       q    Type
REMARK                         _______ _______ _______ _____ _____    ______ ____
ROOT
ATOM      1  C   UNL     1       2.847   6.342  19.779  0.00  0.00    +0.000 C 
ATOM      2  C   UNL     1       2.549   7.294  18.544  0.00  0.00    +0.000 C 
ATOM      3  O   UNL     1       3.262   7.085  17.372  0.00  0.00    +0.000 OA
ATOM      4  C   UNL     1       4.398   6.378  17.322  0.00  0.00    +0.000 A 
ATOM      5  C   UNL     1       5.356   6.329  15.954  0.00  0.00    +0.000 A 
ATOM      6  C   UNL     1       6.774   5.439  15.965  0.00  0.00    +0.000 A 
ATOM      7  C   UNL     1       7.223   4.605  17.343  0.00  0.00    +0.000 A 
ATOM      8  C   UNL     1       6.252   4.666  18.705  0.00  0.00    +0.000 A 
ATOM      9  C   UNL     1       4.843   5.559  18.680  0.00  0.00    +0.000 A 
ATOM     10  O   UNL     1       4.038   5.630  19.742  0.00  0.00    +0.000 OA
ENDROOT
BRANCH   1  11
ATOM     11  C   UNL     1       1.690   5.356  20.059  0.00  0.00    +0.000 C 
BRANCH  11  17
ATOM     12  C   UNL     1       2.594   2.655  21.486  0.00  0.00    +0.000 C 
ATOM     13  N   UNL     1       2.296   2.879  20.062  0.00  0.00    +0.000 N 
ATOM     14  C   UNL     1       2.351   1.933  19.111  0.00  0.00    +0.000 A 
ATOM     15  C   UNL     1       2.073   2.522  17.896  0.00  0.00    +0.000 A 
ATOM     16  N   UNL     1       1.840   3.836  18.081  0.00  0.00    +0.000 NA
ATOM     17  C   UNL     1       1.968   4.024  19.409  0.00  0.00    +0.000 A 
ENDBRANCH  11  17
ENDBRANCH   1  11
TORSDOF 2
ENDMDL
MODEL 9
REMARK VINA RESULT:      -6.3      1.735      3.217
REMARK  Name = 
REMARK  3 active torsions:
REMARK  status: ('A' for Active; 'I' for Inactive)
REMARK    1  A    between atoms: C_1  and  N_2
REMARK    2  A    between atoms: C_6  and  C_7
REMARK    3  A    between atoms: C_7  and  C_8
REMARK                            x       y       z     vdW  Elec       q    Type
REMARK                         _______ _______ _______ _____ _____    ______ ____
ROOT
ATOM      1  C   UNL     1       3.030   5.925  19.683  0.00  0.00    +0.000 C 
ATOM      2  C   UNL     1       2.375   5.912  18.237  0.00  0.00    +0.000 C 
ATOM      3  O   UNL     1       3.101   5.352  17.196  0.00  0.00    +0.000 OA
ATOM      4  C   UNL     1       4.421   5.138  17.256  0.00  0.00    +0.000 A 
ATOM      5  C   UNL     1       5.309   4.676  15.918  0.00  0.00    +0.000 A 
ATOM      6  C   UNL     1       6.961   4.442  16.059  0.00  0.00    +0.000 A 
ATOM      7  C   UNL     1       7.712   4.671  17.536  0.00  0.00    +0.000 A 
ATOM      8  C   UNL     1       6.806   5.135  18.865  0.00  0.00    +0.000 A 
ATOM      9  C   UNL     1       5.162   5.367  18.709  0.00  0.00    +0.000 A 
ATOM     10  O   UNL     1       4.403   5.731  19.745  0.00  0.00    +0.000 OA
ENDROOT
BRANCH   1  11
ATOM     11  C   UNL     1       2.347   4.933  20.650  0.00  0.00    +0.000 C 
BRANCH  11  17
ATOM     12  C   UNL     1       4.140   2.358  20.099  0.00  0.00    +0.000 C 
ATOM     13  N   UNL     1       2.726   2.575  19.754  0.00  0.00    +0.000 N 
ATOM     14  C   UNL     1       1.941   1.676  19.138  0.00  0.00    +0.000 A 
ATOM     15  C   UNL     1       0.708   2.252  18.922  0.00  0.00    +0.000 A 
ATOM     16  N   UNL     1       0.713   3.510  19.404  0.00  0.00    +0.000 NA
ATOM     17  C   UNL     1       1.948   3.676  19.917  0.00  0.00    +0.000 A 
ENDBRANCH  11  17
ENDBRANCH   1  11
TORSDOF 2
ENDMDL
