MODEL 1
REMARK VINA RESULT:      -8.5      0.000      0.000
REMARK  Name = 
REMARK  5 active torsions:
REMARK  status: ('A' for Active; 'I' for Inactive)
REMARK    1  A    between atoms: C_1  and  C_2
REMARK    2  A    between atoms: C_5  and  C_6
REMARK    3  A    between atoms: C_9  and  C_10
REMARK    4  A    between atoms: C_12  and  C_13
REMARK    5  A    between atoms: N_17  and  C_18
REMARK                            x       y       z     vdW  Elec       q    Type
REMARK                         _______ _______ _______ _____ _____    ______ ____
ROOT
ATOM      1  C   UNL     1       3.126   4.142  18.077  0.00  0.00    +0.000 C 
ATOM      2  C   UNL     1       3.971   3.170  18.872  0.00  0.00    +0.000 C 
ATOM      3  C   UNL     1       4.594   3.927  17.729  0.00  0.00    +0.000 C 
ENDROOT
BRANCH   3   4
ATOM      4  C   UNL     1       5.601   4.995  17.936  0.00  0.00    +0.000 A 
ATOM      5  C   UNL     1       5.736   6.059  17.137  0.00  0.00    +0.000 A 
ATOM      6  C   UNL     1       6.794   7.023  17.425  0.00  0.00    +0.000 A 
ATOM      7  O   UNL     1       6.904   8.015  16.687  0.00  0.00    +0.000 OA
ATOM      8  N   UNL     1       7.593   6.749  18.506  0.00  0.00    +0.000 N 
ATOM      9  C   UNL     1       8.667   7.676  18.820  0.00  0.00    +0.000 C 
ATOM     10  C   UNL     1       7.360   5.633  19.285  0.00  0.00    +0.000 A 
ATOM     11  N   UNL     1       8.143   5.360  20.362  0.00  0.00    +0.000 N 
ATOM     12  N   UNL     1       6.402   4.782  19.029  0.00  0.00    +0.000 NA
ATOM     13  H   UNL     1       9.069   5.757  20.431  0.00  0.00    +0.000 HD
ATOM     14  H   UNL     1       8.079   4.393  20.660  0.00  0.00    +0.000 HD
ENDBRANCH   3   4
BRANCH   1  18
ATOM     15  C   UNL     1       1.455   7.606  20.143  0.00  0.00    +0.000 A 
ATOM     16  C   UNL     1       1.542   6.360  20.765  0.00  0.00    +0.000 A 
ATOM     17  C   UNL     1       2.104   5.272  20.114  0.00  0.00    +0.000 A 
ATOM     18  C   UNL     1       2.584   5.359  18.802  0.00  0.00    +0.000 A 
ATOM     19  C   UNL     1       2.546   6.627  18.195  0.00  0.00    +0.000 A 
ATOM     20  C   UNL     1       1.986   7.732  18.850  0.00  0.00    +0.000 A 
BRANCH  15  25
ATOM     21  C   UNL     1      -1.275  11.842  22.953  0.00  0.00    +0.000 C 
ATOM     22  C   UNL     1      -0.523  10.780  22.209  0.00  0.00    +0.000 A 
ATOM     23  C   UNL     1      -0.436  10.799  20.820  0.00  0.00    +0.000 A 
ATOM     24  C   UNL     1       0.244   9.787  20.152  0.00  0.00    +0.000 A 
ATOM     25  C   UNL     1       0.836   8.727  20.856  0.00  0.00    +0.000 A 
ATOM     26  C   UNL     1       0.772   8.739  22.256  0.00  0.00    +0.000 A 
ATOM     27  C   UNL     1       0.087   9.743  22.928  0.00  0.00    +0.000 A 
ENDBRANCH  15  25
ENDBRANCH   1  18
TORSDOF 3
ENDMDL
MODEL 2
REMARK VINA RESULT:      -8.5      2.952      7.092
REMARK  Name = 
REMARK  5 active torsions:
REMARK  status: ('A' for Active; 'I' for Inactive)
REMARK    1  A    between atoms: C_1  and  C_2
REMARK    2  A    between atoms: C_5  and  C_6
REMARK    3  A    between atoms: C_9  and  C_10
REMARK    4  A    between atoms: C_12  and  C_13
REMARK    5  A    between atoms: N_17  and  C_18
REMARK                            x       y       z     vdW  Elec       q    Type
REMARK                         _______ _______ _______ _____ _____    ______ ____
ROOT
ATOM      1  C   UNL     1       6.582   4.887  17.257  0.00  0.00    +0.000 C 
ATOM      2  C   UNL     1       5.732   4.911  16.005  0.00  0.00    +0.000 C 
ATOM      3  C   UNL     1       5.094   4.567  17.325  0.00  0.00    +0.000 C 
ENDROOT
BRANCH   3   4
ATOM      4  C   UNL     1       4.140   5.471  18.007  0.00  0.00    +0.000 A 
ATOM      5  C   UNL     1       3.742   6.648  17.512  0.00  0.00    +0.000 A 
ATOM      6  C   UNL     1       2.826   7.468  18.300  0.00  0.00    +0.000 A 
ATOM      7  O   UNL     1       2.451   8.553  17.826  0.00  0.00    +0.000 OA
ATOM      8  N   UNL     1       2.448   6.964  19.519  0.00  0.00    +0.000 N 
ATOM      9  C   UNL     1       1.549   7.755  20.341  0.00  0.00    +0.000 C 
ATOM     10  C   UNL     1       2.897   5.726  19.934  0.00  0.00    +0.000 A 
ATOM     11  N   UNL     1       2.521   5.218  21.137  0.00  0.00    +0.000 N 
ATOM     12  N   UNL     1       3.705   4.992  19.217  0.00  0.00    +0.000 NA
ATOM     13  H   UNL     1       2.189   5.831  21.868  0.00  0.00    +0.000 HD
ATOM     14  H   UNL     1       3.132   4.476  21.460  0.00  0.00    +0.000 HD
ENDBRANCH   3   4
BRANCH   1  18
ATOM     15  C   UNL     1       8.450   8.637  18.485  0.00  0.00    +0.000 A 
ATOM     16  C   UNL     1       7.673   8.556  17.330  0.00  0.00    +0.000 A 
ATOM     17  C   UNL     1       7.055   7.370  16.963  0.00  0.00    +0.000 A 
ATOM     18  C   UNL     1       7.201   6.196  17.712  0.00  0.00    +0.000 A 
ATOM     19  C   UNL     1       7.939   6.291  18.904  0.00  0.00    +0.000 A 
ATOM     20  C   UNL     1       8.559   7.489  19.284  0.00  0.00    +0.000 A 
BRANCH  15  25
ATOM     21  C   UNL     1      11.320  13.459  19.830  0.00  0.00    +0.000 C 
ATOM     22  C   UNL     1      10.524  12.232  19.499  0.00  0.00    +0.000 A 
ATOM     23  C   UNL     1       9.994  11.426  20.502  0.00  0.00    +0.000 A 
ATOM     24  C   UNL     1       9.284  10.279  20.169  0.00  0.00    +0.000 A 
ATOM     25  C   UNL     1       9.103   9.904  18.828  0.00  0.00    +0.000 A 
ATOM     26  C   UNL     1       9.611  10.744  17.828  0.00  0.00    +0.000 A 
ATOM     27  C   UNL     1      10.328  11.887  18.156  0.00  0.00    +0.000 A 
ENDBRANCH  15  25
ENDBRANCH   1  18
TORSDOF 3
ENDMDL
MODEL 3
REMARK VINA RESULT:      -8.4      3.029      6.992
REMARK  Name = 
REMARK  5 active torsions:
REMARK  status: ('A' for Active; 'I' for Inactive)
REMARK    1  A    between atoms: C_1  and  C_2
REMARK    2  A    between atoms: C_5  and  C_6
REMARK    3  A    between atoms: C_9  and  C_10
REMARK    4  A    between atoms: C_12  and  C_13
REMARK    5  A    between atoms: N_17  and  C_18
REMARK                            x       y       z     vdW  Elec       q    Type
REMARK                         _______ _______ _______ _____ _____    ______ ____
ROOT
ATOM      1  C   UNL     1       6.565   5.043  17.204  0.00  0.00    +0.000 C 
ATOM      2  C   UNL     1       5.783   5.099  15.909  0.00  0.00    +0.000 C 
ATOM      3  C   UNL     1       5.065   4.778  17.193  0.00  0.00    +0.000 C 
ENDROOT
BRANCH   3   4
ATOM      4  C   UNL     1       4.111   5.717  17.827  0.00  0.00    +0.000 A 
ATOM      5  C   UNL     1       3.712   6.866  17.272  0.00  0.00    +0.000 A 
ATOM      6  C   UNL     1       2.796   7.726  18.015  0.00  0.00    +0.000 A 
ATOM      7  O   UNL     1       2.421   8.784  17.485  0.00  0.00    +0.000 OA
ATOM      8  N   UNL     1       2.419   7.287  19.259  0.00  0.00    +0.000 N 
ATOM      9  C   UNL     1       1.520   8.119  20.039  0.00  0.00    +0.000 C 
ATOM     10  C   UNL     1       2.868   6.072  19.739  0.00  0.00    +0.000 A 
ATOM     11  N   UNL     1       2.493   5.628  20.967  0.00  0.00    +0.000 N 
ATOM     12  N   UNL     1       3.677   5.302  19.061  0.00  0.00    +0.000 NA
ATOM     13  H   UNL     1       2.161   6.279  21.665  0.00  0.00    +0.000 HD
ATOM     14  H   UNL     1       3.105   4.904  21.329  0.00  0.00    +0.000 HD
ENDBRANCH   3   4
BRANCH   1  18
ATOM     15  C   UNL     1       8.501   8.724  18.532  0.00  0.00    +0.000 A 
ATOM     16  C   UNL     1       7.711   8.692  17.382  0.00  0.00    +0.000 A 
ATOM     17  C   UNL     1       7.073   7.526  16.985  0.00  0.00    +0.000 A 
ATOM     18  C   UNL     1       7.208   6.327  17.694  0.00  0.00    +0.000 A 
ATOM     19  C   UNL     1       7.958   6.373  18.882  0.00  0.00    +0.000 A 
ATOM     20  C   UNL     1       8.600   7.549  19.293  0.00  0.00    +0.000 A 
BRANCH  15  25
ATOM     21  C   UNL     1      10.848  13.779  20.027  0.00  0.00    +0.000 C 
ATOM     22  C   UNL     1      10.292  12.447  19.621  0.00  0.00    +0.000 A 
ATOM     23  C   UNL     1      10.178  12.093  18.280  0.00  0.00    +0.000 A 
ATOM     24  C   UNL     1       9.634  10.864  17.929  0.00  0.00    +0.000 A 
ATOM     25  C   UNL     1       9.175   9.970  18.909  0.00  0.00    +0.000 A 
ATOM     26  C   UNL     1       9.328  10.324  20.257  0.00  0.00    +0.000 A 
ATOM     27  C   UNL     1       9.864  11.555  20.612  0.00  0.00    +0.000 A 
ENDBRANCH  15  25
ENDBRANCH   1  18
TORSDOF 3
ENDMDL
MODEL 4
REMARK VINA RESULT:      -8.4      0.645      1.149
REMARK  Name = 
REMARK  5 active torsions:
REMARK  status: ('A' for Active; 'I' for Inactive)
REMARK    1  A    between atoms: C_1  and  C_2
REMARK    2  A    between atoms: C_5  and  C_6
REMARK    3  A    between atoms: C_9  and  C_10
REMARK    4  A    between atoms: C_12  and  C_13
REMARK    5  A    between atoms: N_17  and  C_18
REMARK                            x       y       z     vdW  Elec       q    Type
REMARK                         _______ _______ _______ _____ _____    ______ ____
ROOT
ATOM      1  C   UNL     1       3.058   3.609  18.740  0.00  0.00    +0.000 C 
ATOM      2  C   UNL     1       4.030   2.864  19.629  0.00  0.00    +0.000 C 
ATOM      3  C   UNL     1       4.507   3.418  18.312  0.00  0.00    +0.000 C 
ENDROOT
BRANCH   3   4
ATOM      4  C   UNL     1       5.444   4.563  18.223  0.00  0.00    +0.000 A 
ATOM      5  C   UNL     1       5.449   5.447  17.221  0.00  0.00    +0.000 A 
ATOM      6  C   UNL     1       6.449   6.511  17.227  0.00  0.00    +0.000 A 
ATOM      7  O   UNL     1       6.438   7.336  16.300  0.00  0.00    +0.000 OA
ATOM      8  N   UNL     1       7.333   6.512  18.276  0.00  0.00    +0.000 N 
ATOM      9  C   UNL     1       8.354   7.545  18.315  0.00  0.00    +0.000 C 
ATOM     10  C   UNL     1       7.233   5.567  19.278  0.00  0.00    +0.000 A 
ATOM     11  N   UNL     1       8.102   5.567  20.323  0.00  0.00    +0.000 N 
ATOM     12  N   UNL     1       6.327   4.627  19.271  0.00  0.00    +0.000 NA
ATOM     13  H   UNL     1       8.998   6.024  20.241  0.00  0.00    +0.000 HD
ATOM     14  H   UNL     1       8.129   4.678  20.813  0.00  0.00    +0.000 HD
ENDBRANCH   3   4
BRANCH   1  18
ATOM     15  C   UNL     1       1.509   7.396  20.263  0.00  0.00    +0.000 A 
ATOM     16  C   UNL     1       1.959   7.271  18.949  0.00  0.00    +0.000 A 
ATOM     17  C   UNL     1       2.419   6.056  18.462  0.00  0.00    +0.000 A 
ATOM     18  C   UNL     1       2.481   4.911  19.264  0.00  0.00    +0.000 A 
ATOM     19  C   UNL     1       1.976   5.024  20.571  0.00  0.00    +0.000 A 
ATOM     20  C   UNL     1       1.503   6.246  21.067  0.00  0.00    +0.000 A 
BRANCH  15  25
ATOM     21  C   UNL     1      -0.624  12.432  22.104  0.00  0.00    +0.000 C 
ATOM     22  C   UNL     1      -0.016  11.149  21.621  0.00  0.00    +0.000 A 
ATOM     23  C   UNL     1       0.393  10.999  20.300  0.00  0.00    +0.000 A 
ATOM     24  C   UNL     1       0.928   9.790  19.870  0.00  0.00    +0.000 A 
ATOM     25  C   UNL     1       1.049   8.701  20.747  0.00  0.00    +0.000 A 
ATOM     26  C   UNL     1       0.666   8.877  22.084  0.00  0.00    +0.000 A 
ATOM     27  C   UNL     1       0.124  10.080  22.515  0.00  0.00    +0.000 A 
ENDBRANCH  15  25
ENDBRANCH   1  18
TORSDOF 3
ENDMDL
MODEL 5
REMARK VINA RESULT:      -8.3      1.274      1.715
REMARK  Name = 
REMARK  5 active torsions:
REMARK  status: ('A' for Active; 'I' for Inactive)
REMARK    1  A    between atoms: C_1  and  C_2
REMARK    2  A    between atoms: C_5  and  C_6
REMARK    3  A    between atoms: C_9  and  C_10
REMARK    4  A    between atoms: C_12  and  C_13
REMARK    5  A    between atoms: N_17  and  C_18
REMARK                            x       y       z     vdW  Elec       q    Type
REMARK                         _______ _______ _______ _____ _____    ______ ____
ROOT
ATOM      1  C   UNL     1       2.662   3.844  18.304  0.00  0.00    +0.000 C 
ATOM      2  C   UNL     1       3.372   2.813  19.155  0.00  0.00    +0.000 C 
ATOM      3  C   UNL     1       4.099   3.442  17.996  0.00  0.00    +0.000 C 
ENDROOT
BRANCH   3   4
ATOM      4  C   UNL     1       5.223   4.390  18.183  0.00  0.00    +0.000 A 
ATOM      5  C   UNL     1       5.988   4.435  19.278  0.00  0.00    +0.000 A 
ATOM      6  C   UNL     1       7.042   5.443  19.358  0.00  0.00    +0.000 A 
ATOM      7  O   UNL     1       7.756   5.468  20.373  0.00  0.00    +0.000 OA
ATOM      8  N   UNL     1       7.157   6.293  18.288  0.00  0.00    +0.000 N 
ATOM      9  C   UNL     1       8.183   7.320  18.332  0.00  0.00    +0.000 C 
ATOM     10  C   UNL     1       6.331   6.153  17.190  0.00  0.00    +0.000 A 
ATOM     11  N   UNL     1       6.445   6.987  16.123  0.00  0.00    +0.000 N 
ATOM     12  N   UNL     1       5.400   5.240  17.120  0.00  0.00    +0.000 NA
ATOM     13  H   UNL     1       6.886   7.890  16.227  0.00  0.00    +0.000 HD
ATOM     14  H   UNL     1       5.618   6.991  15.535  0.00  0.00    +0.000 HD
ENDBRANCH   3   4
BRANCH   1  18
ATOM     15  C   UNL     1       1.382   7.564  20.198  0.00  0.00    +0.000 A 
ATOM     16  C   UNL     1       1.336   6.347  20.880  0.00  0.00    +0.000 A 
ATOM     17  C   UNL     1       1.775   5.175  20.283  0.00  0.00    +0.000 A 
ATOM     18  C   UNL     1       2.257   5.146  18.969  0.00  0.00    +0.000 A 
ATOM     19  C   UNL     1       2.355   6.380  18.302  0.00  0.00    +0.000 A 
ATOM     20  C   UNL     1       1.920   7.569  18.902  0.00  0.00    +0.000 A 
BRANCH  15  25
ATOM     21  C   UNL     1      -0.872  12.244  22.710  0.00  0.00    +0.000 C 
ATOM     22  C   UNL     1      -0.233  11.055  22.056  0.00  0.00    +0.000 A 
ATOM     23  C   UNL     1       0.171  11.097  20.725  0.00  0.00    +0.000 A 
ATOM     24  C   UNL     1       0.735   9.972  20.135  0.00  0.00    +0.000 A 
ATOM     25  C   UNL     1       0.891   8.778  20.856  0.00  0.00    +0.000 A 
ATOM     26  C   UNL     1       0.512   8.761  22.205  0.00  0.00    +0.000 A 
ATOM     27  C   UNL     1      -0.059   9.880  22.797  0.00  0.00    +0.000 A 
ENDBRANCH  15  25
ENDBRANCH   1  18
TORSDOF 3
ENDMDL
MODEL 6
REMARK VINA RESULT:      -8.2      2.850      6.839
REMARK  Name = 
REMARK  5 active torsions:
REMARK  status: ('A' for Active; 'I' for Inactive)
REMARK    1  A    between atoms: C_1  and  C_2
REMARK    2  A    between atoms: C_5  and  C_6
REMARK    3  A    between atoms: C_9  and  C_10
REMARK    4  A    between atoms: C_12  and  C_13
REMARK    5  A    between atoms: N_17  and  C_18
REMARK                            x       y       z     vdW  Elec       q    Type
REMARK                         _______ _______ _______ _____ _____    ______ ____
ROOT
ATOM      1  C   UNL     1       6.504   4.468  17.387  0.00  0.00    +0.000 C 
ATOM      2  C   UNL     1       5.588   4.333  16.191  0.00  0.00    +0.000 C 
ATOM      3  C   UNL     1       5.027   4.147  17.576  0.00  0.00    +0.000 C 
ENDROOT
BRANCH   3   4
ATOM      4  C   UNL     1       4.098   5.121  18.195  0.00  0.00    +0.000 A 
ATOM      5  C   UNL     1       3.748   6.282  17.632  0.00  0.00    +0.000 A 
ATOM      6  C   UNL     1       2.853   7.176  18.361  0.00  0.00    +0.000 A 
ATOM      7  O   UNL     1       2.523   8.245  17.825  0.00  0.00    +0.000 OA
ATOM      8  N   UNL     1       2.444   6.753  19.601  0.00  0.00    +0.000 N 
ATOM      9  C   UNL     1       1.564   7.619  20.367  0.00  0.00    +0.000 C 
ATOM     10  C   UNL     1       2.843   5.525  20.089  0.00  0.00    +0.000 A 
ATOM     11  N   UNL     1       2.435   5.097  21.313  0.00  0.00    +0.000 N 
ATOM     12  N   UNL     1       3.633   4.725  19.424  0.00  0.00    +0.000 NA
ATOM     13  H   UNL     1       2.118   5.761  22.004  0.00  0.00    +0.000 HD
ATOM     14  H   UNL     1       3.017   4.353  21.684  0.00  0.00    +0.000 HD
ENDBRANCH   3   4
BRANCH   1  18
ATOM     15  C   UNL     1       8.209   8.404  18.203  0.00  0.00    +0.000 A 
ATOM     16  C   UNL     1       8.357   7.347  19.101  0.00  0.00    +0.000 A 
ATOM     17  C   UNL     1       7.841   6.091  18.821  0.00  0.00    +0.000 A 
ATOM     18  C   UNL     1       7.128   5.827  17.645  0.00  0.00    +0.000 A 
ATOM     19  C   UNL     1       7.026   6.877  16.716  0.00  0.00    +0.000 A 
ATOM     20  C   UNL     1       7.552   8.147  16.990  0.00  0.00    +0.000 A 
BRANCH  15  25
ATOM     21  C   UNL     1      10.634  13.503  19.389  0.00  0.00    +0.000 C 
ATOM     22  C   UNL     1       9.963  12.190  19.122  0.00  0.00    +0.000 A 
ATOM     23  C   UNL     1      10.027  11.149  20.044  0.00  0.00    +0.000 A 
ATOM     24  C   UNL     1       9.420   9.931  19.761  0.00  0.00    +0.000 A 
ATOM     25  C   UNL     1       8.751   9.723  18.545  0.00  0.00    +0.000 A 
ATOM     26  C   UNL     1       8.663  10.790  17.641  0.00  0.00    +0.000 A 
ATOM     27  C   UNL     1       9.275  12.006  17.916  0.00  0.00    +0.000 A 
ENDBRANCH  15  25
ENDBRANCH   1  18
TORSDOF 3
ENDMDL
MODEL 7
REMARK VINA RESULT:      -8.1      3.124      7.153
REMARK  Name = 
REMARK  5 active torsions:
REMARK  status: ('A' for Active; 'I' for Inactive)
REMARK    1  A    between atoms: C_1  and  C_2
REMARK    2  A    between atoms: C_5  and  C_6
REMARK    3  A    between atoms: C_9  and  C_10
REMARK    4  A    between atoms: C_12  and  C_13
REMARK    5  A    between atoms: N_17  and  C_18
REMARK                            x       y       z     vdW  Elec       q    Type
REMARK                         _______ _______ _______ _____ _____    ______ ____
ROOT
ATOM      1  C   UNL     1       6.489   4.795  16.969  0.00  0.00    +0.000 C 
ATOM      2  C   UNL     1       5.446   4.898  15.878  0.00  0.00    +0.000 C 
ATOM      3  C   UNL     1       5.056   4.346  17.223  0.00  0.00    +0.000 C 
ENDROOT
BRANCH   3   4
ATOM      4  C   UNL     1       4.171   5.079  18.158  0.00  0.00    +0.000 A 
ATOM      5  C   UNL     1       3.759   4.593  19.334  0.00  0.00    +0.000 A 
ATOM      6  C   UNL     1       2.855   5.398  20.150  0.00  0.00    +0.000 A 
ATOM      7  O   UNL     1       2.489   4.945  21.246  0.00  0.00    +0.000 OA
ATOM      8  N   UNL     1       2.478   6.610  19.629  0.00  0.00    +0.000 N 
ATOM      9  C   UNL     1       1.567   7.438  20.402  0.00  0.00    +0.000 C 
ATOM     10  C   UNL     1       2.975   7.035  18.413  0.00  0.00    +0.000 A 
ATOM     11  N   UNL     1       2.611   8.238  17.895  0.00  0.00    +0.000 N 
ATOM     12  N   UNL     1       3.795   6.315  17.696  0.00  0.00    +0.000 NA
ATOM     13  H   UNL     1       1.761   8.689  18.203  0.00  0.00    +0.000 HD
ATOM     14  H   UNL     1       2.783   8.306  16.898  0.00  0.00    +0.000 HD
ENDBRANCH   3   4
BRANCH   1  18
ATOM     15  C   UNL     1       8.306   8.503  18.390  0.00  0.00    +0.000 A 
ATOM     16  C   UNL     1       7.509   8.475  17.245  0.00  0.00    +0.000 A 
ATOM     17  C   UNL     1       6.908   7.300  16.818  0.00  0.00    +0.000 A 
ATOM     18  C   UNL     1       7.091   6.087  17.492  0.00  0.00    +0.000 A 
ATOM     19  C   UNL     1       7.848   6.125  18.675  0.00  0.00    +0.000 A 
ATOM     20  C   UNL     1       8.451   7.311  19.116  0.00  0.00    +0.000 A 
BRANCH  15  25
ATOM     21  C   UNL     1      11.102  13.289  19.991  0.00  0.00    +0.000 C 
ATOM     22  C   UNL     1      10.325  12.070  19.593  0.00  0.00    +0.000 A 
ATOM     23  C   UNL     1       9.779  11.221  20.551  0.00  0.00    +0.000 A 
ATOM     24  C   UNL     1       9.086  10.082  20.156  0.00  0.00    +0.000 A 
ATOM     25  C   UNL     1       8.939   9.760  18.798  0.00  0.00    +0.000 A 
ATOM     26  C   UNL     1       9.463  10.642  17.844  0.00  0.00    +0.000 A 
ATOM     27  C   UNL     1      10.163  11.777  18.233  0.00  0.00    +0.000 A 
ENDBRANCH  15  25
ENDBRANCH   1  18
TORSDOF 3
ENDMDL
MODEL 8
REMARK VINA RESULT:      -8.0      3.101      6.901
REMARK  Name = 
REMARK  5 active torsions:
REMARK  status: ('A' for Active; 'I' for Inactive)
REMARK    1  A    between atoms: C_1  and  C_2
REMARK    2  A    between atoms: C_5  and  C_6
REMARK    3  A    between atoms: C_9  and  C_10
REMARK    4  A    between atoms: C_12  and  C_13
REMARK    5  A    between atoms: N_17  and  C_18
REMARK                            x       y       z     vdW  Elec       q    Type
REMARK                         _______ _______ _______ _____ _____    ______ ____
ROOT
ATOM      1  C   UNL     1       6.420   4.525  17.094  0.00  0.00    +0.000 C 
ATOM      2  C   UNL     1       5.347   4.515  16.026  0.00  0.00    +0.000 C 
ATOM      3  C   UNL     1       5.013   4.037  17.415  0.00  0.00    +0.000 C 
ENDROOT
BRANCH   3   4
ATOM      4  C   UNL     1       4.121   4.795  18.323  0.00  0.00    +0.000 A 
ATOM      5  C   UNL     1       3.695   4.338  19.505  0.00  0.00    +0.000 A 
ATOM      6  C   UNL     1       2.785   5.165  20.293  0.00  0.00    +0.000 A 
ATOM      7  O   UNL     1       2.406   4.738  21.394  0.00  0.00    +0.000 OA
ATOM      8  N   UNL     1       2.419   6.366  19.740  0.00  0.00    +0.000 N 
ATOM      9  C   UNL     1       1.503   7.215  20.484  0.00  0.00    +0.000 C 
ATOM     10  C   UNL     1       2.930   6.761  18.520  0.00  0.00    +0.000 A 
ATOM     11  N   UNL     1       2.577   7.954  17.971  0.00  0.00    +0.000 N 
ATOM     12  N   UNL     1       3.755   6.022  17.828  0.00  0.00    +0.000 NA
ATOM     13  H   UNL     1       1.726   8.415  18.259  0.00  0.00    +0.000 HD
ATOM     14  H   UNL     1       2.759   7.998  16.974  0.00  0.00    +0.000 HD
ENDBRANCH   3   4
BRANCH   1  18
ATOM     15  C   UNL     1       8.111   8.391  18.217  0.00  0.00    +0.000 A 
ATOM     16  C   UNL     1       7.237   8.265  17.137  0.00  0.00    +0.000 A 
ATOM     17  C   UNL     1       6.678   7.040  16.806  0.00  0.00    +0.000 A 
ATOM     18  C   UNL     1       6.980   5.871  17.515  0.00  0.00    +0.000 A 
ATOM     19  C   UNL     1       7.817   6.007  18.636  0.00  0.00    +0.000 A 
ATOM     20  C   UNL     1       8.379   7.244  18.980  0.00  0.00    +0.000 A 
BRANCH  15  25
ATOM     21  C   UNL     1      10.128  13.619  19.589  0.00  0.00    +0.000 C 
ATOM     22  C   UNL     1       9.647  12.256  19.191  0.00  0.00    +0.000 A 
ATOM     23  C   UNL     1       9.004  12.048  17.975  0.00  0.00    +0.000 A 
ATOM     24  C   UNL     1       8.542  10.780  17.642  0.00  0.00    +0.000 A 
ATOM     25  C   UNL     1       8.697   9.699  18.523  0.00  0.00    +0.000 A 
ATOM     26  C   UNL     1       9.378   9.916  19.729  0.00  0.00    +0.000 A 
ATOM     27  C   UNL     1       9.834  11.182  20.070  0.00  0.00    +0.000 A 
ENDBRANCH  15  25
ENDBRANCH   1  18
TORSDOF 3
ENDMDL
MODEL 9
REMARK VINA RESULT:      -7.9      1.396      2.087
REMARK  Name = 
REMARK  5 active torsions:
REMARK  status: ('A' for Active; 'I' for Inactive)
REMARK    1  A    between atoms: C_1  and  C_2
REMARK    2  A    between atoms: C_5  and  C_6
REMARK    3  A    between atoms: C_9  and  C_10
REMARK    4  A    between atoms: C_12  and  C_13
REMARK    5  A    between atoms: N_17  and  C_18
REMARK                            x       y       z     vdW  Elec       q    Type
REMARK                         _______ _______ _______ _____ _____    ______ ____
ROOT
ATOM      1  C   UNL     1       2.704   3.378  18.445  0.00  0.00    +0.000 C 
ATOM      2  C   UNL     1       3.614   2.530  19.308  0.00  0.00    +0.000 C 
ATOM      3  C   UNL     1       4.140   3.101  18.017  0.00  0.00    +0.000 C 
ENDROOT
BRANCH   3   4
ATOM      4  C   UNL     1       5.156   4.178  17.980  0.00  0.00    +0.000 A 
ATOM      5  C   UNL     1       6.070   4.376  18.936  0.00  0.00    +0.000 A 
ATOM      6  C   UNL     1       6.995   5.499  18.803  0.00  0.00    +0.000 A 
ATOM      7  O   UNL     1       7.848   5.667  19.688  0.00  0.00    +0.000 OA
ATOM      8  N   UNL     1       6.840   6.289  17.692  0.00  0.00    +0.000 N 
ATOM      9  C   UNL     1       7.730   7.425  17.527  0.00  0.00    +0.000 C 
ATOM     10  C   UNL     1       5.879   5.989  16.748  0.00  0.00    +0.000 A 
ATOM     11  N   UNL     1       5.726   6.764  15.641  0.00  0.00    +0.000 N 
ATOM     12  N   UNL     1       5.065   4.975  16.867  0.00  0.00    +0.000 NA
ATOM     13  H   UNL     1       6.066   7.715  15.634  0.00  0.00    +0.000 HD
ATOM     14  H   UNL     1       4.824   6.639  15.194  0.00  0.00    +0.000 HD
ENDBRANCH   3   4
BRANCH   1  18
ATOM     15  C   UNL     1       1.418   7.205  20.106  0.00  0.00    +0.000 A 
ATOM     16  C   UNL     1       1.778   7.079  18.764  0.00  0.00    +0.000 A 
ATOM     17  C   UNL     1       2.154   5.853  18.236  0.00  0.00    +0.000 A 
ATOM     18  C   UNL     1       2.218   4.695  19.020  0.00  0.00    +0.000 A 
ATOM     19  C   UNL     1       1.803   4.811  20.358  0.00  0.00    +0.000 A 
ATOM     20  C   UNL     1       1.414   6.045  20.897  0.00  0.00    +0.000 A 
BRANCH  15  25
ATOM     21  C   UNL     1      -0.376  12.308  22.114  0.00  0.00    +0.000 C 
ATOM     22  C   UNL     1       0.145  11.004  21.589  0.00  0.00    +0.000 A 
ATOM     23  C   UNL     1       0.537  10.870  20.260  0.00  0.00    +0.000 A 
ATOM     24  C   UNL     1       0.991   9.643  19.790  0.00  0.00    +0.000 A 
ATOM     25  C   UNL     1       1.045   8.522  20.633  0.00  0.00    +0.000 A 
ATOM     26  C   UNL     1       0.681   8.680  21.977  0.00  0.00    +0.000 A 
ATOM     27  C   UNL     1       0.220   9.902  22.449  0.00  0.00    +0.000 A 
ENDBRANCH  15  25
ENDBRANCH   1  18
TORSDOF 3
ENDMDL
