MODEL 1
REMARK VINA RESULT:      -7.5      0.000      0.000
REMARK  Name = 
REMARK  6 active torsions:
REMARK  status: ('A' for Active; 'I' for Inactive)
REMARK    1  A    between atoms: C_1  and  C_2
REMARK    2  A    between atoms: C_5  and  N_6
REMARK    3  A    between atoms: N_6  and  C_7
REMARK    4  A    between atoms: C_7  and  N_9
REMARK    5  A    between atoms: N_9  and  N_10
REMARK    6  A    between atoms: C_11  and  C_12
REMARK                            x       y       z     vdW  Elec       q    Type
REMARK                         _______ _______ _______ _____ _____    ______ ____
ROOT
ATOM      1  N   UNL     1       2.927   4.219  18.385  0.00  0.00    +0.000 N 
ATOM      2  H   UNL     1       2.290   4.639  17.713  0.00  0.00    +0.000 HD
ENDROOT
BRANCH   1   3
ATOM      3  C   UNL     1       2.881   4.652  19.695  0.00  0.00    +0.000 C 
ATOM      4  S   UNL     1       2.432   3.556  20.873  0.00  0.00    +0.000 S 
BRANCH   3   5
ATOM      5  N   UNL     1       3.217   5.981  19.833  0.00  0.00    +0.000 N 
ATOM      6  H   UNL     1       4.146   6.098  20.224  0.00  0.00    +0.000 HD
BRANCH   5  11
ATOM      7  C   UNL     1       0.460  10.810  18.472  0.00  0.00    +0.000 C 
ATOM      8  C   UNL     1       1.165   9.537  18.831  0.00  0.00    +0.000 A 
ATOM      9  C   UNL     1       1.038   8.959  20.098  0.00  0.00    +0.000 A 
ATOM     10  C   UNL     1       1.724   7.778  20.411  0.00  0.00    +0.000 A 
ATOM     11  C   UNL     1       2.517   7.141  19.453  0.00  0.00    +0.000 A 
ATOM     12  C   UNL     1       2.657   7.732  18.197  0.00  0.00    +0.000 A 
ATOM     13  C   UNL     1       1.990   8.919  17.888  0.00  0.00    +0.000 A 
ENDBRANCH   5  11
ENDBRANCH   3   5
ENDBRANCH   1   3
BRANCH   1  14
ATOM     14  N   UNL     1       3.673   3.144  18.006  0.00  0.00    +0.000 NA
ATOM     15  C   UNL     1       4.654   3.339  17.169  0.00  0.00    +0.000 C 
BRANCH  15  16
ATOM     16  C   UNL     1       5.279   4.603  16.820  0.00  0.00    +0.000 A 
ATOM     17  C   UNL     1       4.910   5.457  15.794  0.00  0.00    +0.000 A 
ATOM     18  N   UNL     1       5.648   6.605  15.891  0.00  0.00    +0.000 N 
ATOM     19  C   UNL     1       6.493   6.534  16.974  0.00  0.00    +0.000 A 
ATOM     20  C   UNL     1       7.389   7.485  17.477  0.00  0.00    +0.000 A 
ATOM     21  C   UNL     1       8.132   7.139  18.608  0.00  0.00    +0.000 A 
ATOM     22  C   UNL     1       7.985   5.892  19.209  0.00  0.00    +0.000 A 
ATOM     23  C   UNL     1       7.073   4.959  18.702  0.00  0.00    +0.000 A 
ATOM     24  C   UNL     1       6.303   5.282  17.563  0.00  0.00    +0.000 A 
ATOM     25  H   UNL     1       5.560   7.407  15.284  0.00  0.00    +0.000 HD
ENDBRANCH  15  16
ENDBRANCH   1  14
TORSDOF 5
ENDMDL
MODEL 2
REMARK VINA RESULT:      -7.4      2.675      6.834
REMARK  Name = 
REMARK  6 active torsions:
REMARK  status: ('A' for Active; 'I' for Inactive)
REMARK    1  A    between atoms: C_1  and  C_2
REMARK    2  A    between atoms: C_5  and  N_6
REMARK    3  A    between atoms: N_6  and  C_7
REMARK    4  A    between atoms: C_7  and  N_9
REMARK    5  A    between atoms: N_9  and  N_10
REMARK    6  A    between atoms: C_11  and  C_12
REMARK                            x       y       z     vdW  Elec       q    Type
REMARK                         _______ _______ _______ _____ _____    ______ ____
ROOT
ATOM      1  N   UNL     1       5.382   5.977  17.658  0.00  0.00    +0.000 N 
ATOM      2  H   UNL     1       4.895   5.178  18.057  0.00  0.00    +0.000 HD
ENDROOT
BRANCH   1   3
ATOM      3  C   UNL     1       6.739   5.870  17.429  0.00  0.00    +0.000 C 
ATOM      4  S   UNL     1       7.748   5.670  18.745  0.00  0.00    +0.000 S 
BRANCH   3   5
ATOM      5  N   UNL     1       7.067   5.960  16.094  0.00  0.00    +0.000 N 
ATOM      6  H   UNL     1       7.754   6.687  15.921  0.00  0.00    +0.000 HD
BRANCH   5  11
ATOM      7  C   UNL     1       5.623   2.646  11.654  0.00  0.00    +0.000 C 
ATOM      8  C   UNL     1       6.000   3.529  12.806  0.00  0.00    +0.000 A 
ATOM      9  C   UNL     1       7.143   4.333  12.772  0.00  0.00    +0.000 A 
ATOM     10  C   UNL     1       7.480   5.135  13.871  0.00  0.00    +0.000 A 
ATOM     11  C   UNL     1       6.661   5.171  15.002  0.00  0.00    +0.000 A 
ATOM     12  C   UNL     1       5.532   4.351  15.040  0.00  0.00    +0.000 A 
ATOM     13  C   UNL     1       5.203   3.537  13.954  0.00  0.00    +0.000 A 
ENDBRANCH   5  11
ENDBRANCH   3   5
ENDBRANCH   1   3
BRANCH   1  14
ATOM     14  N   UNL     1       4.658   7.043  17.219  0.00  0.00    +0.000 NA
ATOM     15  C   UNL     1       3.424   7.160  17.626  0.00  0.00    +0.000 C 
BRANCH  15  16
ATOM     16  C   UNL     1       2.798   6.484  18.750  0.00  0.00    +0.000 A 
ATOM     17  C   UNL     1       2.462   7.043  19.971  0.00  0.00    +0.000 A 
ATOM     18  N   UNL     1       1.760   6.121  20.698  0.00  0.00    +0.000 N 
ATOM     19  C   UNL     1       1.611   4.961  19.973  0.00  0.00    +0.000 A 
ATOM     20  C   UNL     1       0.933   3.780  20.298  0.00  0.00    +0.000 A 
ATOM     21  C   UNL     1       0.945   2.747  19.358  0.00  0.00    +0.000 A 
ATOM     22  C   UNL     1       1.611   2.891  18.144  0.00  0.00    +0.000 A 
ATOM     23  C   UNL     1       2.271   4.084  17.828  0.00  0.00    +0.000 A 
ATOM     24  C   UNL     1       2.272   5.149  18.757  0.00  0.00    +0.000 A 
ATOM     25  H   UNL     1       1.369   6.277  21.616  0.00  0.00    +0.000 HD
ENDBRANCH  15  16
ENDBRANCH   1  14
TORSDOF 5
ENDMDL
MODEL 3
REMARK VINA RESULT:      -7.4      2.673      6.775
REMARK  Name = 
REMARK  6 active torsions:
REMARK  status: ('A' for Active; 'I' for Inactive)
REMARK    1  A    between atoms: C_1  and  C_2
REMARK    2  A    between atoms: C_5  and  N_6
REMARK    3  A    between atoms: N_6  and  C_7
REMARK    4  A    between atoms: C_7  and  N_9
REMARK    5  A    between atoms: N_9  and  N_10
REMARK    6  A    between atoms: C_11  and  C_12
REMARK                            x       y       z     vdW  Elec       q    Type
REMARK                         _______ _______ _______ _____ _____    ______ ____
ROOT
ATOM      1  N   UNL     1       5.373   6.043  17.656  0.00  0.00    +0.000 N 
ATOM      2  H   UNL     1       4.891   5.246  18.065  0.00  0.00    +0.000 HD
ENDROOT
BRANCH   1   3
ATOM      3  C   UNL     1       6.726   5.934  17.407  0.00  0.00    +0.000 C 
ATOM      4  S   UNL     1       7.750   5.694  18.705  0.00  0.00    +0.000 S 
BRANCH   3   5
ATOM      5  N   UNL     1       7.038   6.056  16.071  0.00  0.00    +0.000 N 
ATOM      6  H   UNL     1       7.609   6.875  15.889  0.00  0.00    +0.000 HD
BRANCH   5  11
ATOM      7  C   UNL     1       5.671   2.678  11.656  0.00  0.00    +0.000 C 
ATOM      8  C   UNL     1       6.030   3.547  12.823  0.00  0.00    +0.000 A 
ATOM      9  C   UNL     1       5.244   3.588  13.978  0.00  0.00    +0.000 A 
ATOM     10  C   UNL     1       5.596   4.424  15.047  0.00  0.00    +0.000 A 
ATOM     11  C   UNL     1       6.754   5.203  14.989  0.00  0.00    +0.000 A 
ATOM     12  C   UNL     1       7.524   5.174  13.826  0.00  0.00    +0.000 A 
ATOM     13  C   UNL     1       7.167   4.357  12.752  0.00  0.00    +0.000 A 
ENDBRANCH   5  11
ENDBRANCH   3   5
ENDBRANCH   1   3
BRANCH   1  14
ATOM     14  N   UNL     1       4.643   7.108  17.224  0.00  0.00    +0.000 NA
ATOM     15  C   UNL     1       3.409   7.215  17.632  0.00  0.00    +0.000 C 
BRANCH  15  16
ATOM     16  C   UNL     1       2.785   6.529  18.750  0.00  0.00    +0.000 A 
ATOM     17  C   UNL     1       2.427   7.082  19.968  0.00  0.00    +0.000 A 
ATOM     18  N   UNL     1       1.736   6.146  20.689  0.00  0.00    +0.000 N 
ATOM     19  C   UNL     1       1.619   4.983  19.964  0.00  0.00    +0.000 A 
ATOM     20  C   UNL     1       0.961   3.788  20.283  0.00  0.00    +0.000 A 
ATOM     21  C   UNL     1       1.004   2.755  19.345  0.00  0.00    +0.000 A 
ATOM     22  C   UNL     1       1.678   2.911  18.137  0.00  0.00    +0.000 A 
ATOM     23  C   UNL     1       2.317   4.117  17.827  0.00  0.00    +0.000 A 
ATOM     24  C   UNL     1       2.287   5.183  18.754  0.00  0.00    +0.000 A 
ATOM     25  H   UNL     1       1.334   6.295  21.603  0.00  0.00    +0.000 HD
ENDBRANCH  15  16
ENDBRANCH   1  14
TORSDOF 5
ENDMDL
MODEL 4
REMARK VINA RESULT:      -7.3      1.634      2.567
REMARK  Name = 
REMARK  6 active torsions:
REMARK  status: ('A' for Active; 'I' for Inactive)
REMARK    1  A    between atoms: C_1  and  C_2
REMARK    2  A    between atoms: C_5  and  N_6
REMARK    3  A    between atoms: N_6  and  C_7
REMARK    4  A    between atoms: C_7  and  N_9
REMARK    5  A    between atoms: N_9  and  N_10
REMARK    6  A    between atoms: C_11  and  C_12
REMARK                            x       y       z     vdW  Elec       q    Type
REMARK                         _______ _______ _______ _____ _____    ______ ____
ROOT
ATOM      1  N   UNL     1       1.498   4.063  18.936  0.00  0.00    +0.000 N 
ATOM      2  H   UNL     1       1.000   4.808  18.456  0.00  0.00    +0.000 HD
ENDROOT
BRANCH   1   3
ATOM      3  C   UNL     1       1.828   4.244  20.265  0.00  0.00    +0.000 C 
ATOM      4  S   UNL     1       1.431   3.035  21.347  0.00  0.00    +0.000 S 
BRANCH   3   5
ATOM      5  N   UNL     1       2.450   5.449  20.505  0.00  0.00    +0.000 N 
ATOM      6  H   UNL     1       3.279   5.338  21.080  0.00  0.00    +0.000 HD
BRANCH   5  11
ATOM      7  C   UNL     1       1.149  10.594  18.359  0.00  0.00    +0.000 C 
ATOM      8  C   UNL     1       1.508   9.251  18.919  0.00  0.00    +0.000 A 
ATOM      9  C   UNL     1       2.214   8.307  18.167  0.00  0.00    +0.000 A 
ATOM     10  C   UNL     1       2.521   7.052  18.711  0.00  0.00    +0.000 A 
ATOM     11  C   UNL     1       2.156   6.737  20.023  0.00  0.00    +0.000 A 
ATOM     12  C   UNL     1       1.433   7.675  20.761  0.00  0.00    +0.000 A 
ATOM     13  C   UNL     1       1.110   8.919  20.217  0.00  0.00    +0.000 A 
ENDBRANCH   5  11
ENDBRANCH   3   5
ENDBRANCH   1   3
BRANCH   1  14
ATOM     14  N   UNL     1       1.671   2.869  18.306  0.00  0.00    +0.000 NA
ATOM     15  C   UNL     1       2.830   2.622  17.759  0.00  0.00    +0.000 C 
BRANCH  15  16
ATOM     16  C   UNL     1       4.085   3.312  18.001  0.00  0.00    +0.000 A 
ATOM     17  C   UNL     1       4.843   3.272  19.159  0.00  0.00    +0.000 A 
ATOM     18  N   UNL     1       6.022   3.932  18.935  0.00  0.00    +0.000 N 
ATOM     19  C   UNL     1       6.064   4.398  17.642  0.00  0.00    +0.000 A 
ATOM     20  C   UNL     1       7.082   5.083  16.967  0.00  0.00    +0.000 A 
ATOM     21  C   UNL     1       6.850   5.441  15.637  0.00  0.00    +0.000 A 
ATOM     22  C   UNL     1       5.649   5.125  15.008  0.00  0.00    +0.000 A 
ATOM     23  C   UNL     1       4.647   4.426  15.693  0.00  0.00    +0.000 A 
ATOM     24  C   UNL     1       4.854   4.047  17.038  0.00  0.00    +0.000 A 
ATOM     25  H   UNL     1       6.771   4.030  19.604  0.00  0.00    +0.000 HD
ENDBRANCH  15  16
ENDBRANCH   1  14
TORSDOF 5
ENDMDL
MODEL 5
REMARK VINA RESULT:      -7.3      3.113      6.730
REMARK  Name = 
REMARK  6 active torsions:
REMARK  status: ('A' for Active; 'I' for Inactive)
REMARK    1  A    between atoms: C_1  and  C_2
REMARK    2  A    between atoms: C_5  and  N_6
REMARK    3  A    between atoms: N_6  and  C_7
REMARK    4  A    between atoms: C_7  and  N_9
REMARK    5  A    between atoms: N_9  and  N_10
REMARK    6  A    between atoms: C_11  and  C_12
REMARK                            x       y       z     vdW  Elec       q    Type
REMARK                         _______ _______ _______ _____ _____    ______ ____
ROOT
ATOM      1  N   UNL     1       6.704   4.866  17.440  0.00  0.00    +0.000 N 
ATOM      2  H   UNL     1       6.119   4.172  16.981  0.00  0.00    +0.000 HD
ENDROOT
BRANCH   1   3
ATOM      3  C   UNL     1       7.222   5.895  16.681  0.00  0.00    +0.000 C 
ATOM      4  S   UNL     1       7.298   7.418  17.363  0.00  0.00    +0.000 S 
BRANCH   3   5
ATOM      5  N   UNL     1       7.603   5.493  15.419  0.00  0.00    +0.000 N 
ATOM      6  H   UNL     1       8.594   5.641  15.259  0.00  0.00    +0.000 HD
BRANCH   5  11
ATOM      7  C   UNL     1       4.766   2.793  11.244  0.00  0.00    +0.000 C 
ATOM      8  C   UNL     1       5.509   3.516  12.327  0.00  0.00    +0.000 A 
ATOM      9  C   UNL     1       6.784   4.048  12.114  0.00  0.00    +0.000 A 
ATOM     10  C   UNL     1       7.462   4.703  13.150  0.00  0.00    +0.000 A 
ATOM     11  C   UNL     1       6.862   4.865  14.402  0.00  0.00    +0.000 A 
ATOM     12  C   UNL     1       5.598   4.315  14.616  0.00  0.00    +0.000 A 
ATOM     13  C   UNL     1       4.927   3.645  13.590  0.00  0.00    +0.000 A 
ENDBRANCH   5  11
ENDBRANCH   3   5
ENDBRANCH   1   3
BRANCH   1  14
ATOM     14  N   UNL     1       6.813   4.845  18.797  0.00  0.00    +0.000 NA
ATOM     15  C   UNL     1       5.763   5.158  19.505  0.00  0.00    +0.000 C 
BRANCH  15  16
ATOM     16  C   UNL     1       4.382   5.217  19.058  0.00  0.00    +0.000 A 
ATOM     17  C   UNL     1       3.745   6.298  18.471  0.00  0.00    +0.000 A 
ATOM     18  N   UNL     1       2.500   5.905  18.061  0.00  0.00    +0.000 N 
ATOM     19  C   UNL     1       2.304   4.575  18.354  0.00  0.00    +0.000 A 
ATOM     20  C   UNL     1       1.208   3.747  18.080  0.00  0.00    +0.000 A 
ATOM     21  C   UNL     1       1.281   2.417  18.498  0.00  0.00    +0.000 A 
ATOM     22  C   UNL     1       2.405   1.935  19.164  0.00  0.00    +0.000 A 
ATOM     23  C   UNL     1       3.498   2.772  19.416  0.00  0.00    +0.000 A 
ATOM     24  C   UNL     1       3.456   4.121  19.001  0.00  0.00    +0.000 A 
ATOM     25  H   UNL     1       1.835   6.489  17.577  0.00  0.00    +0.000 HD
ENDBRANCH  15  16
ENDBRANCH   1  14
TORSDOF 5
ENDMDL
MODEL 6
REMARK VINA RESULT:      -7.2      0.574      1.162
REMARK  Name = 
REMARK  6 active torsions:
REMARK  status: ('A' for Active; 'I' for Inactive)
REMARK    1  A    between atoms: C_1  and  C_2
REMARK    2  A    between atoms: C_5  and  N_6
REMARK    3  A    between atoms: N_6  and  C_7
REMARK    4  A    between atoms: C_7  and  N_9
REMARK    5  A    between atoms: N_9  and  N_10
REMARK    6  A    between atoms: C_11  and  C_12
REMARK                            x       y       z     vdW  Elec       q    Type
REMARK                         _______ _______ _______ _____ _____    ______ ____
ROOT
ATOM      1  N   UNL     1       2.687   4.126  17.570  0.00  0.00    +0.000 N 
ATOM      2  H   UNL     1       2.150   4.380  16.745  0.00  0.00    +0.000 HD
ENDROOT
BRANCH   1   3
ATOM      3  C   UNL     1       2.362   4.718  18.774  0.00  0.00    +0.000 C 
ATOM      4  S   UNL     1       1.332   3.898  19.802  0.00  0.00    +0.000 S 
BRANCH   3   5
ATOM      5  N   UNL     1       2.954   5.950  18.945  0.00  0.00    +0.000 N 
ATOM      6  H   UNL     1       3.967   5.888  18.931  0.00  0.00    +0.000 HD
BRANCH   5  11
ATOM      7  C   UNL     1       0.469  11.100  19.208  0.00  0.00    +0.000 C 
ATOM      8  C   UNL     1       1.136   9.760  19.134  0.00  0.00    +0.000 A 
ATOM      9  C   UNL     1       1.690   9.280  17.943  0.00  0.00    +0.000 A 
ATOM     10  C   UNL     1       2.292   8.015  17.900  0.00  0.00    +0.000 A 
ATOM     11  C   UNL     1       2.378   7.229  19.052  0.00  0.00    +0.000 A 
ATOM     12  C   UNL     1       1.805   7.703  20.233  0.00  0.00    +0.000 A 
ATOM     13  C   UNL     1       1.188   8.956  20.275  0.00  0.00    +0.000 A 
ENDBRANCH   5  11
ENDBRANCH   3   5
ENDBRANCH   1   3
BRANCH   1  14
ATOM     14  N   UNL     1       3.584   3.104  17.488  0.00  0.00    +0.000 NA
ATOM     15  C   UNL     1       4.734   3.338  16.919  0.00  0.00    +0.000 C 
BRANCH  15  16
ATOM     16  C   UNL     1       5.335   4.631  16.640  0.00  0.00    +0.000 A 
ATOM     17  C   UNL     1       4.963   5.522  15.648  0.00  0.00    +0.000 A 
ATOM     18  N   UNL     1       5.672   6.682  15.811  0.00  0.00    +0.000 N 
ATOM     19  C   UNL     1       6.499   6.580  16.905  0.00  0.00    +0.000 A 
ATOM     20  C   UNL     1       7.363   7.527  17.469  0.00  0.00    +0.000 A 
ATOM     21  C   UNL     1       8.094   7.147  18.596  0.00  0.00    +0.000 A 
ATOM     22  C   UNL     1       7.966   5.871  19.137  0.00  0.00    +0.000 A 
ATOM     23  C   UNL     1       7.086   4.941  18.571  0.00  0.00    +0.000 A 
ATOM     24  C   UNL     1       6.329   5.298  17.433  0.00  0.00    +0.000 A 
ATOM     25  H   UNL     1       5.575   7.509  15.240  0.00  0.00    +0.000 HD
ENDBRANCH  15  16
ENDBRANCH   1  14
TORSDOF 5
ENDMDL
MODEL 7
REMARK VINA RESULT:      -7.1      2.334      5.216
REMARK  Name = 
REMARK  6 active torsions:
REMARK  status: ('A' for Active; 'I' for Inactive)
REMARK    1  A    between atoms: C_1  and  C_2
REMARK    2  A    between atoms: C_5  and  N_6
REMARK    3  A    between atoms: N_6  and  C_7
REMARK    4  A    between atoms: C_7  and  N_9
REMARK    5  A    between atoms: N_9  and  N_10
REMARK    6  A    between atoms: C_11  and  C_12
REMARK                            x       y       z     vdW  Elec       q    Type
REMARK                         _______ _______ _______ _____ _____    ______ ____
ROOT
ATOM      1  N   UNL     1       6.855   4.040  16.642  0.00  0.00    +0.000 N 
ATOM      2  H   UNL     1       7.187   3.402  17.361  0.00  0.00    +0.000 HD
ENDROOT
BRANCH   1   3
ATOM      3  C   UNL     1       5.826   3.625  15.820  0.00  0.00    +0.000 C 
ATOM      4  S   UNL     1       5.709   4.305  14.299  0.00  0.00    +0.000 S 
BRANCH   3   5
ATOM      5  N   UNL     1       5.015   2.680  16.410  0.00  0.00    +0.000 N 
ATOM      6  H   UNL     1       5.344   1.736  16.234  0.00  0.00    +0.000 HD
BRANCH   5  11
ATOM      7  C   UNL     1       0.597   3.385  19.982  0.00  0.00    +0.000 C 
ATOM      8  C   UNL     1       1.750   3.182  19.046  0.00  0.00    +0.000 A 
ATOM      9  C   UNL     1       2.827   2.353  19.375  0.00  0.00    +0.000 A 
ATOM     10  C   UNL     1       3.899   2.196  18.487  0.00  0.00    +0.000 A 
ATOM     11  C   UNL     1       3.894   2.838  17.246  0.00  0.00    +0.000 A 
ATOM     12  C   UNL     1       2.828   3.680  16.930  0.00  0.00    +0.000 A 
ATOM     13  C   UNL     1       1.766   3.853  17.820  0.00  0.00    +0.000 A 
ENDBRANCH   5  11
ENDBRANCH   3   5
ENDBRANCH   1   3
BRANCH   1  14
ATOM     14  N   UNL     1       7.317   5.320  16.628  0.00  0.00    +0.000 NA
ATOM     15  C   UNL     1       6.591   6.245  17.193  0.00  0.00    +0.000 C 
BRANCH  15  16
ATOM     16  C   UNL     1       5.497   6.057  18.130  0.00  0.00    +0.000 A 
ATOM     17  C   UNL     1       5.499   5.254  19.258  0.00  0.00    +0.000 A 
ATOM     18  N   UNL     1       4.338   5.466  19.951  0.00  0.00    +0.000 N 
ATOM     19  C   UNL     1       3.570   6.409  19.308  0.00  0.00    +0.000 A 
ATOM     20  C   UNL     1       2.337   6.964  19.673  0.00  0.00    +0.000 A 
ATOM     21  C   UNL     1       1.777   7.915  18.818  0.00  0.00    +0.000 A 
ATOM     22  C   UNL     1       2.424   8.296  17.646  0.00  0.00    +0.000 A 
ATOM     23  C   UNL     1       3.663   7.742  17.303  0.00  0.00    +0.000 A 
ATOM     24  C   UNL     1       4.257   6.781  18.150  0.00  0.00    +0.000 A 
ATOM     25  H   UNL     1       4.094   5.030  20.828  0.00  0.00    +0.000 HD
ENDBRANCH  15  16
ENDBRANCH   1  14
TORSDOF 5
ENDMDL
MODEL 8
REMARK VINA RESULT:      -7.0      2.496      5.863
REMARK  Name = 
REMARK  6 active torsions:
REMARK  status: ('A' for Active; 'I' for Inactive)
REMARK    1  A    between atoms: C_1  and  C_2
REMARK    2  A    between atoms: C_5  and  N_6
REMARK    3  A    between atoms: N_6  and  C_7
REMARK    4  A    between atoms: C_7  and  N_9
REMARK    5  A    between atoms: N_9  and  N_10
REMARK    6  A    between atoms: C_11  and  C_12
REMARK                            x       y       z     vdW  Elec       q    Type
REMARK                         _______ _______ _______ _____ _____    ______ ____
ROOT
ATOM      1  N   UNL     1       4.329   4.981  16.609  0.00  0.00    +0.000 N 
ATOM      2  H   UNL     1       3.347   4.882  16.856  0.00  0.00    +0.000 HD
ENDROOT
BRANCH   1   3
ATOM      3  C   UNL     1       5.053   3.840  16.327  0.00  0.00    +0.000 C 
ATOM      4  S   UNL     1       6.233   3.927  15.148  0.00  0.00    +0.000 S 
BRANCH   3   5
ATOM      5  N   UNL     1       4.667   2.757  17.086  0.00  0.00    +0.000 N 
ATOM      6  H   UNL     1       5.145   1.908  16.804  0.00  0.00    +0.000 HD
BRANCH   5  11
ATOM      7  C   UNL     1       1.249   2.652  21.677  0.00  0.00    +0.000 C 
ATOM      8  C   UNL     1       2.152   2.663  20.481  0.00  0.00    +0.000 A 
ATOM      9  C   UNL     1       3.544   2.701  20.610  0.00  0.00    +0.000 A 
ATOM     10  C   UNL     1       4.362   2.729  19.473  0.00  0.00    +0.000 A 
ATOM     11  C   UNL     1       3.803   2.684  18.193  0.00  0.00    +0.000 A 
ATOM     12  C   UNL     1       2.413   2.667  18.069  0.00  0.00    +0.000 A 
ATOM     13  C   UNL     1       1.594   2.658  19.200  0.00  0.00    +0.000 A 
ENDBRANCH   5  11
ENDBRANCH   3   5
ENDBRANCH   1   3
BRANCH   1  14
ATOM     14  N   UNL     1       4.839   6.227  16.407  0.00  0.00    +0.000 NA
ATOM     15  C   UNL     1       4.291   7.227  17.041  0.00  0.00    +0.000 C 
BRANCH  15  16
ATOM     16  C   UNL     1       3.408   7.165  18.193  0.00  0.00    +0.000 A 
ATOM     17  C   UNL     1       3.446   6.235  19.219  0.00  0.00    +0.000 A 
ATOM     18  N   UNL     1       2.549   6.608  20.183  0.00  0.00    +0.000 N 
ATOM     19  C   UNL     1       1.924   7.778  19.820  0.00  0.00    +0.000 A 
ATOM     20  C   UNL     1       0.976   8.542  20.512  0.00  0.00    +0.000 A 
ATOM     21  C   UNL     1       0.505   9.703  19.896  0.00  0.00    +0.000 A 
ATOM     22  C   UNL     1       0.965  10.085  18.638  0.00  0.00    +0.000 A 
ATOM     23  C   UNL     1       1.924   9.318  17.966  0.00  0.00    +0.000 A 
ATOM     24  C   UNL     1       2.423   8.140  18.566  0.00  0.00    +0.000 A 
ATOM     25  H   UNL     1       2.394   6.122  21.053  0.00  0.00    +0.000 HD
ENDBRANCH  15  16
ENDBRANCH   1  14
TORSDOF 5
ENDMDL
MODEL 9
REMARK VINA RESULT:      -7.0      2.840      6.691
REMARK  Name = 
REMARK  6 active torsions:
REMARK  status: ('A' for Active; 'I' for Inactive)
REMARK    1  A    between atoms: C_1  and  C_2
REMARK    2  A    between atoms: C_5  and  N_6
REMARK    3  A    between atoms: N_6  and  C_7
REMARK    4  A    between atoms: C_7  and  N_9
REMARK    5  A    between atoms: N_9  and  N_10
REMARK    6  A    between atoms: C_11  and  C_12
REMARK                            x       y       z     vdW  Elec       q    Type
REMARK                         _______ _______ _______ _____ _____    ______ ____
ROOT
ATOM      1  N   UNL     1       5.621   5.502  17.643  0.00  0.00    +0.000 N 
ATOM      2  H   UNL     1       5.308   4.536  17.580  0.00  0.00    +0.000 HD
ENDROOT
BRANCH   1   3
ATOM      3  C   UNL     1       6.969   5.765  17.507  0.00  0.00    +0.000 C 
ATOM      4  S   UNL     1       7.860   6.053  18.891  0.00  0.00    +0.000 S 
BRANCH   3   5
ATOM      5  N   UNL     1       7.388   5.760  16.195  0.00  0.00    +0.000 N 
ATOM      6  H   UNL     1       8.224   6.320  16.062  0.00  0.00    +0.000 HD
BRANCH   5  11
ATOM      7  C   UNL     1       5.564   2.818  11.635  0.00  0.00    +0.000 C 
ATOM      8  C   UNL     1       6.038   3.604  12.820  0.00  0.00    +0.000 A 
ATOM      9  C   UNL     1       7.124   4.481  12.733  0.00  0.00    +0.000 A 
ATOM     10  C   UNL     1       7.556   5.190  13.862  0.00  0.00    +0.000 A 
ATOM     11  C   UNL     1       6.888   5.059  15.083  0.00  0.00    +0.000 A 
ATOM     12  C   UNL     1       5.818   4.167  15.169  0.00  0.00    +0.000 A 
ATOM     13  C   UNL     1       5.397   3.445  14.051  0.00  0.00    +0.000 A 
ENDBRANCH   5  11
ENDBRANCH   3   5
ENDBRANCH   1   3
BRANCH   1  14
ATOM     14  N   UNL     1       4.693   6.497  17.691  0.00  0.00    +0.000 NA
ATOM     15  C   UNL     1       3.432   6.165  17.668  0.00  0.00    +0.000 C 
BRANCH  15  16
ATOM     16  C   UNL     1       2.859   4.855  17.925  0.00  0.00    +0.000 A 
ATOM     17  C   UNL     1       2.685   3.831  17.009  0.00  0.00    +0.000 A 
ATOM     18  N   UNL     1       2.254   2.716  17.675  0.00  0.00    +0.000 N 
ATOM     19  C   UNL     1       2.151   2.978  19.021  0.00  0.00    +0.000 A 
ATOM     20  C   UNL     1       1.795   2.130  20.077  0.00  0.00    +0.000 A 
ATOM     21  C   UNL     1       1.773   2.672  21.363  0.00  0.00    +0.000 A 
ATOM     22  C   UNL     1       2.095   4.008  21.584  0.00  0.00    +0.000 A 
ATOM     23  C   UNL     1       2.464   4.839  20.520  0.00  0.00    +0.000 A 
ATOM     24  C   UNL     1       2.500   4.318  19.207  0.00  0.00    +0.000 A 
ATOM     25  H   UNL     1       2.076   1.817  17.251  0.00  0.00    +0.000 HD
ENDBRANCH  15  16
ENDBRANCH   1  14
TORSDOF 5
ENDMDL
