MODEL 1
REMARK VINA RESULT:      -8.3      0.000      0.000
REMARK  Name = 
REMARK  4 active torsions:
REMARK  status: ('A' for Active; 'I' for Inactive)
REMARK    1  A    between atoms: C_6  and  C_7
REMARK    2  A    between atoms: C_6  and  C_14
REMARK    3  A    between atoms: C_10  and  N_11
REMARK    4  A    between atoms: C_17  and  N_18
REMARK                            x       y       z     vdW  Elec       q    Type
REMARK                         _______ _______ _______ _____ _____    ______ ____
ROOT
ATOM      1  N   UNL     1       2.524   1.897  22.281  0.00  0.00    +0.000 NA
ATOM      2  C   UNL     1       2.563   2.726  21.290  0.00  0.00    +0.000 C 
ATOM      3  C   UNL     1       1.652   3.891  21.175  0.00  0.00    +0.000 C 
ATOM      4  C   UNL     1       1.851   4.816  20.226  0.00  0.00    +0.000 C 
ATOM      5  C   UNL     1       2.983   4.736  19.292  0.00  0.00    +0.000 C 
ATOM      6  C   UNL     1       3.339   5.792  18.499  0.00  0.00    +0.000 C 
ATOM      7  C   UNL     1       3.707   3.457  19.247  0.00  0.00    +0.000 C 
ATOM      8  C   UNL     1       3.532   2.519  20.188  0.00  0.00    +0.000 C 
ATOM      9  H   UNL     1       1.813   2.178  22.962  0.00  0.00    +0.000 HD
ENDROOT
BRANCH   6  10
ATOM     10  C   UNL     1       2.647   7.100  18.640  0.00  0.00    +0.000 A 
ATOM     11  C   UNL     1       2.128   7.483  19.883  0.00  0.00    +0.000 A 
ATOM     12  C   UNL     1       1.451   8.696  20.023  0.00  0.00    +0.000 A 
ATOM     13  C   UNL     1       1.317   9.566  18.939  0.00  0.00    +0.000 A 
ATOM     14  C   UNL     1       1.792   9.159  17.689  0.00  0.00    +0.000 A 
ATOM     15  C   UNL     1       2.476   7.947  17.541  0.00  0.00    +0.000 A 
BRANCH  13  16
ATOM     16  N   UNL     1       0.516  10.709  19.051  0.00  0.00    +0.000 N 
ATOM     17  H   UNL     1       0.969  11.480  19.533  0.00  0.00    +0.000 HD
ATOM     18  H   UNL     1       0.095  11.001  18.175  0.00  0.00    +0.000 HD
ENDBRANCH  13  16
ENDBRANCH   6  10
BRANCH   6  19
ATOM     19  C   UNL     1       4.494   5.695  17.569  0.00  0.00    +0.000 A 
ATOM     20  C   UNL     1       5.699   6.345  17.856  0.00  0.00    +0.000 A 
ATOM     21  C   UNL     1       6.775   6.257  16.965  0.00  0.00    +0.000 A 
ATOM     22  C   UNL     1       6.683   5.482  15.805  0.00  0.00    +0.000 A 
ATOM     23  C   UNL     1       5.464   4.873  15.501  0.00  0.00    +0.000 A 
ATOM     24  C   UNL     1       4.383   4.959  16.383  0.00  0.00    +0.000 A 
BRANCH  22  25
ATOM     25  N   UNL     1       7.709   5.512  14.854  0.00  0.00    +0.000 N 
ATOM     26  H   UNL     1       7.878   6.432  14.459  0.00  0.00    +0.000 HD
ATOM     27  H   UNL     1       8.566   5.063  15.162  0.00  0.00    +0.000 HD
ENDBRANCH  22  25
ENDBRANCH   6  19
TORSDOF 4
ENDMDL
MODEL 2
REMARK VINA RESULT:      -8.3      0.102      1.032
REMARK  Name = 
REMARK  4 active torsions:
REMARK  status: ('A' for Active; 'I' for Inactive)
REMARK    1  A    between atoms: C_6  and  C_7
REMARK    2  A    between atoms: C_6  and  C_14
REMARK    3  A    between atoms: C_10  and  N_11
REMARK    4  A    between atoms: C_17  and  N_18
REMARK                            x       y       z     vdW  Elec       q    Type
REMARK                         _______ _______ _______ _____ _____    ______ ____
ROOT
ATOM      1  N   UNL     1       2.430   1.871  22.253  0.00  0.00    +0.000 NA
ATOM      2  C   UNL     1       2.481   2.710  21.271  0.00  0.00    +0.000 C 
ATOM      3  C   UNL     1       1.577   3.881  21.160  0.00  0.00    +0.000 C 
ATOM      4  C   UNL     1       1.788   4.814  20.222  0.00  0.00    +0.000 C 
ATOM      5  C   UNL     1       2.928   4.738  19.297  0.00  0.00    +0.000 C 
ATOM      6  C   UNL     1       3.296   5.801  18.518  0.00  0.00    +0.000 C 
ATOM      7  C   UNL     1       3.646   3.456  19.245  0.00  0.00    +0.000 C 
ATOM      8  C   UNL     1       3.458   2.509  20.175  0.00  0.00    +0.000 C 
ATOM      9  H   UNL     1       1.714   2.149  22.931  0.00  0.00    +0.000 HD
ENDROOT
BRANCH   6  10
ATOM     10  C   UNL     1       2.609   7.111  18.666  0.00  0.00    +0.000 A 
ATOM     11  C   UNL     1       2.499   7.968  17.565  0.00  0.00    +0.000 A 
ATOM     12  C   UNL     1       1.880   9.213  17.697  0.00  0.00    +0.000 A 
ATOM     13  C   UNL     1       1.325   9.606  18.917  0.00  0.00    +0.000 A 
ATOM     14  C   UNL     1       1.481   8.769  20.026  0.00  0.00    +0.000 A 
ATOM     15  C   UNL     1       2.094   7.518  19.901  0.00  0.00    +0.000 A 
BRANCH  13  16
ATOM     16  N   UNL     1       0.837  10.908  19.078  0.00  0.00    +0.000 N 
ATOM     17  H   UNL     1       0.181  11.006  19.847  0.00  0.00    +0.000 HD
ATOM     18  H   UNL     1       1.563  11.617  19.102  0.00  0.00    +0.000 HD
ENDBRANCH  13  16
ENDBRANCH   6  10
BRANCH   6  19
ATOM     19  C   UNL     1       4.458   5.707  17.596  0.00  0.00    +0.000 A 
ATOM     20  C   UNL     1       5.657   6.365  17.889  0.00  0.00    +0.000 A 
ATOM     21  C   UNL     1       6.739   6.281  17.007  0.00  0.00    +0.000 A 
ATOM     22  C   UNL     1       6.661   5.501  15.849  0.00  0.00    +0.000 A 
ATOM     23  C   UNL     1       5.448   4.883  15.539  0.00  0.00    +0.000 A 
ATOM     24  C   UNL     1       4.360   4.966  16.413  0.00  0.00    +0.000 A 
BRANCH  22  25
ATOM     25  N   UNL     1       7.694   5.533  14.905  0.00  0.00    +0.000 N 
ATOM     26  H   UNL     1       7.372   5.599  13.945  0.00  0.00    +0.000 HD
ATOM     27  H   UNL     1       8.419   6.213  15.115  0.00  0.00    +0.000 HD
ENDBRANCH  22  25
ENDBRANCH   6  19
TORSDOF 4
ENDMDL
MODEL 3
REMARK VINA RESULT:      -8.2      0.098      1.031
REMARK  Name = 
REMARK  4 active torsions:
REMARK  status: ('A' for Active; 'I' for Inactive)
REMARK    1  A    between atoms: C_6  and  C_7
REMARK    2  A    between atoms: C_6  and  C_14
REMARK    3  A    between atoms: C_10  and  N_11
REMARK    4  A    between atoms: C_17  and  N_18
REMARK                            x       y       z     vdW  Elec       q    Type
REMARK                         _______ _______ _______ _____ _____    ______ ____
ROOT
ATOM      1  N   UNL     1       2.528   1.924  22.277  0.00  0.00    +0.000 NA
ATOM      2  C   UNL     1       2.548   2.757  21.289  0.00  0.00    +0.000 C 
ATOM      3  C   UNL     1       1.632   3.921  21.196  0.00  0.00    +0.000 C 
ATOM      4  C   UNL     1       1.812   4.851  20.248  0.00  0.00    +0.000 C 
ATOM      5  C   UNL     1       2.928   4.777  19.293  0.00  0.00    +0.000 C 
ATOM      6  C   UNL     1       3.267   5.838  18.499  0.00  0.00    +0.000 C 
ATOM      7  C   UNL     1       3.653   3.500  19.230  0.00  0.00    +0.000 C 
ATOM      8  C   UNL     1       3.497   2.558  20.170  0.00  0.00    +0.000 C 
ATOM      9  H   UNL     1       1.828   2.201  22.972  0.00  0.00    +0.000 HD
ENDROOT
BRANCH   6  10
ATOM     10  C   UNL     1       2.575   7.144  18.658  0.00  0.00    +0.000 A 
ATOM     11  C   UNL     1       2.111   7.536  19.919  0.00  0.00    +0.000 A 
ATOM     12  C   UNL     1       1.434   8.747  20.078  0.00  0.00    +0.000 A 
ATOM     13  C   UNL     1       1.246   9.606  18.992  0.00  0.00    +0.000 A 
ATOM     14  C   UNL     1       1.667   9.188  17.726  0.00  0.00    +0.000 A 
ATOM     15  C   UNL     1       2.350   7.979  17.560  0.00  0.00    +0.000 A 
BRANCH  13  16
ATOM     16  N   UNL     1       0.445  10.746  19.130  0.00  0.00    +0.000 N 
ATOM     17  H   UNL     1      -0.549  10.545  19.169  0.00  0.00    +0.000 HD
ATOM     18  H   UNL     1       0.740  11.364  19.879  0.00  0.00    +0.000 HD
ENDBRANCH  13  16
ENDBRANCH   6  10
BRANCH   6  19
ATOM     19  C   UNL     1       4.405   5.747  17.548  0.00  0.00    +0.000 A 
ATOM     20  C   UNL     1       4.305   4.976  16.385  0.00  0.00    +0.000 A 
ATOM     21  C   UNL     1       5.389   4.887  15.504  0.00  0.00    +0.000 A 
ATOM     22  C   UNL     1       6.565   5.603  15.742  0.00  0.00    +0.000 A 
ATOM     23  C   UNL     1       6.677   6.334  16.926  0.00  0.00    +0.000 A 
ATOM     24  C   UNL     1       5.601   6.425  17.814  0.00  0.00    +0.000 A 
BRANCH  22  25
ATOM     25  N   UNL     1       7.690   5.400  14.934  0.00  0.00    +0.000 N 
ATOM     26  H   UNL     1       8.406   6.112  15.039  0.00  0.00    +0.000 HD
ATOM     27  H   UNL     1       8.071   4.460  14.991  0.00  0.00    +0.000 HD
ENDBRANCH  22  25
ENDBRANCH   6  19
TORSDOF 4
ENDMDL
MODEL 4
REMARK VINA RESULT:      -8.2      0.113      1.456
REMARK  Name = 
REMARK  4 active torsions:
REMARK  status: ('A' for Active; 'I' for Inactive)
REMARK    1  A    between atoms: C_6  and  C_7
REMARK    2  A    between atoms: C_6  and  C_14
REMARK    3  A    between atoms: C_10  and  N_11
REMARK    4  A    between atoms: C_17  and  N_18
REMARK                            x       y       z     vdW  Elec       q    Type
REMARK                         _______ _______ _______ _____ _____    ______ ____
ROOT
ATOM      1  N   UNL     1       2.532   1.889  22.288  0.00  0.00    +0.000 NA
ATOM      2  C   UNL     1       2.548   2.725  21.301  0.00  0.00    +0.000 C 
ATOM      3  C   UNL     1       1.627   3.884  21.210  0.00  0.00    +0.000 C 
ATOM      4  C   UNL     1       1.803   4.817  20.263  0.00  0.00    +0.000 C 
ATOM      5  C   UNL     1       2.919   4.750  19.309  0.00  0.00    +0.000 C 
ATOM      6  C   UNL     1       3.254   5.815  18.517  0.00  0.00    +0.000 C 
ATOM      7  C   UNL     1       3.651   3.477  19.244  0.00  0.00    +0.000 C 
ATOM      8  C   UNL     1       3.499   2.532  20.182  0.00  0.00    +0.000 C 
ATOM      9  H   UNL     1       1.830   2.161  22.983  0.00  0.00    +0.000 HD
ENDROOT
BRANCH   6  10
ATOM     10  C   UNL     1       2.555   7.117  18.679  0.00  0.00    +0.000 A 
ATOM     11  C   UNL     1       2.383   7.956  17.572  0.00  0.00    +0.000 A 
ATOM     12  C   UNL     1       1.753   9.194  17.715  0.00  0.00    +0.000 A 
ATOM     13  C   UNL     1       1.247   9.597  18.953  0.00  0.00    +0.000 A 
ATOM     14  C   UNL     1       1.464   8.778  20.065  0.00  0.00    +0.000 A 
ATOM     15  C   UNL     1       2.090   7.534  19.929  0.00  0.00    +0.000 A 
BRANCH  13  16
ATOM     16  N   UNL     1       0.747  10.894  19.118  0.00  0.00    +0.000 N 
ATOM     17  H   UNL     1       0.143  11.000  19.928  0.00  0.00    +0.000 HD
ATOM     18  H   UNL     1       1.460  11.615  19.075  0.00  0.00    +0.000 HD
ENDBRANCH  13  16
ENDBRANCH   6  10
BRANCH   6  19
ATOM     19  C   UNL     1       4.393   5.731  17.567  0.00  0.00    +0.000 A 
ATOM     20  C   UNL     1       4.302   4.952  16.409  0.00  0.00    +0.000 A 
ATOM     21  C   UNL     1       5.386   4.871  15.528  0.00  0.00    +0.000 A 
ATOM     22  C   UNL     1       6.555   5.601  15.762  0.00  0.00    +0.000 A 
ATOM     23  C   UNL     1       6.658   6.340  16.942  0.00  0.00    +0.000 A 
ATOM     24  C   UNL     1       5.581   6.424  17.829  0.00  0.00    +0.000 A 
BRANCH  22  25
ATOM     25  N   UNL     1       7.682   5.406  14.955  0.00  0.00    +0.000 N 
ATOM     26  H   UNL     1       7.511   4.821  14.143  0.00  0.00    +0.000 HD
ATOM     27  H   UNL     1       8.167   6.265  14.715  0.00  0.00    +0.000 HD
ENDBRANCH  22  25
ENDBRANCH   6  19
TORSDOF 4
ENDMDL
MODEL 5
REMARK VINA RESULT:      -8.1      1.114      6.014
REMARK  Name = 
REMARK  4 active torsions:
REMARK  status: ('A' for Active; 'I' for Inactive)
REMARK    1  A    between atoms: C_6  and  C_7
REMARK    2  A    between atoms: C_6  and  C_14
REMARK    3  A    between atoms: C_10  and  N_11
REMARK    4  A    between atoms: C_17  and  N_18
REMARK                            x       y       z     vdW  Elec       q    Type
REMARK                         _______ _______ _______ _____ _____    ______ ____
ROOT
ATOM      1  N   UNL     1       7.399   5.323  15.754  0.00  0.00    +0.000 NA
ATOM      2  C   UNL     1       6.219   5.418  16.275  0.00  0.00    +0.000 C 
ATOM      3  C   UNL     1       5.530   4.276  16.925  0.00  0.00    +0.000 C 
ATOM      4  C   UNL     1       4.391   4.470  17.605  0.00  0.00    +0.000 C 
ATOM      5  C   UNL     1       3.801   5.807  17.762  0.00  0.00    +0.000 C 
ATOM      6  C   UNL     1       2.796   6.050  18.657  0.00  0.00    +0.000 C 
ATOM      7  C   UNL     1       4.343   6.868  16.900  0.00  0.00    +0.000 C 
ATOM      8  C   UNL     1       5.484   6.703  16.217  0.00  0.00    +0.000 C 
ATOM      9  H   UNL     1       7.778   4.381  15.882  0.00  0.00    +0.000 HD
ENDROOT
BRANCH   6  10
ATOM     10  C   UNL     1       2.340   4.977  19.580  0.00  0.00    +0.000 A 
ATOM     11  C   UNL     1       1.270   4.152  19.213  0.00  0.00    +0.000 A 
ATOM     12  C   UNL     1       0.813   3.159  20.082  0.00  0.00    +0.000 A 
ATOM     13  C   UNL     1       1.442   2.943  21.311  0.00  0.00    +0.000 A 
ATOM     14  C   UNL     1       2.477   3.801  21.694  0.00  0.00    +0.000 A 
ATOM     15  C   UNL     1       2.943   4.796  20.828  0.00  0.00    +0.000 A 
BRANCH  13  16
ATOM     16  N   UNL     1       0.891   2.046  22.233  0.00  0.00    +0.000 N 
ATOM     17  H   UNL     1       1.105   2.270  23.199  0.00  0.00    +0.000 HD
ATOM     18  H   UNL     1      -0.099   1.871  22.091  0.00  0.00    +0.000 HD
ENDBRANCH  13  16
ENDBRANCH   6  10
BRANCH   6  19
ATOM     19  C   UNL     1       2.220   7.412  18.809  0.00  0.00    +0.000 A 
ATOM     20  C   UNL     1       2.128   8.275  17.712  0.00  0.00    +0.000 A 
ATOM     21  C   UNL     1       1.597   9.560  17.870  0.00  0.00    +0.000 A 
ATOM     22  C   UNL     1       1.106   9.984  19.108  0.00  0.00    +0.000 A 
ATOM     23  C   UNL     1       1.242   9.136  20.209  0.00  0.00    +0.000 A 
ATOM     24  C   UNL     1       1.775   7.852  20.060  0.00  0.00    +0.000 A 
BRANCH  22  25
ATOM     25  N   UNL     1       0.706  11.313  19.291  0.00  0.00    +0.000 N 
ATOM     26  H   UNL     1       1.161  11.970  18.664  0.00  0.00    +0.000 HD
ATOM     27  H   UNL     1      -0.301  11.439  19.314  0.00  0.00    +0.000 HD
ENDBRANCH  22  25
ENDBRANCH   6  19
TORSDOF 4
ENDMDL
MODEL 6
REMARK VINA RESULT:      -8.1      1.104      5.984
REMARK  Name = 
REMARK  4 active torsions:
REMARK  status: ('A' for Active; 'I' for Inactive)
REMARK    1  A    between atoms: C_6  and  C_7
REMARK    2  A    between atoms: C_6  and  C_14
REMARK    3  A    between atoms: C_10  and  N_11
REMARK    4  A    between atoms: C_17  and  N_18
REMARK                            x       y       z     vdW  Elec       q    Type
REMARK                         _______ _______ _______ _____ _____    ______ ____
ROOT
ATOM      1  N   UNL     1       7.415   5.348  15.803  0.00  0.00    +0.000 NA
ATOM      2  C   UNL     1       6.233   5.436  16.320  0.00  0.00    +0.000 C 
ATOM      3  C   UNL     1       5.549   4.291  16.969  0.00  0.00    +0.000 C 
ATOM      4  C   UNL     1       4.406   4.478  17.643  0.00  0.00    +0.000 C 
ATOM      5  C   UNL     1       3.807   5.812  17.796  0.00  0.00    +0.000 C 
ATOM      6  C   UNL     1       2.796   6.050  18.686  0.00  0.00    +0.000 C 
ATOM      7  C   UNL     1       4.345   6.875  16.934  0.00  0.00    +0.000 C 
ATOM      8  C   UNL     1       5.489   6.715  16.256  0.00  0.00    +0.000 C 
ATOM      9  H   UNL     1       7.800   4.408  15.935  0.00  0.00    +0.000 HD
ENDROOT
BRANCH   6  10
ATOM     10  C   UNL     1       2.343   4.976  19.609  0.00  0.00    +0.000 A 
ATOM     11  C   UNL     1       1.225   4.201  19.278  0.00  0.00    +0.000 A 
ATOM     12  C   UNL     1       0.772   3.207  20.149  0.00  0.00    +0.000 A 
ATOM     13  C   UNL     1       1.450   2.940  21.341  0.00  0.00    +0.000 A 
ATOM     14  C   UNL     1       2.536   3.749  21.690  0.00  0.00    +0.000 A 
ATOM     15  C   UNL     1       2.998   4.744  20.821  0.00  0.00    +0.000 A 
BRANCH  13  16
ATOM     16  N   UNL     1       0.909   2.045  22.271  0.00  0.00    +0.000 N 
ATOM     17  H   UNL     1       0.083   1.558  21.937  0.00  0.00    +0.000 HD
ATOM     18  H   UNL     1       1.592   1.410  22.671  0.00  0.00    +0.000 HD
ENDBRANCH  13  16
ENDBRANCH   6  10
BRANCH   6  19
ATOM     19  C   UNL     1       2.211   7.408  18.833  0.00  0.00    +0.000 A 
ATOM     20  C   UNL     1       1.806   7.879  20.087  0.00  0.00    +0.000 A 
ATOM     21  C   UNL     1       1.244   9.155  20.210  0.00  0.00    +0.000 A 
ATOM     22  C   UNL     1       1.123   9.995  19.100  0.00  0.00    +0.000 A 
ATOM     23  C   UNL     1       1.487   9.503  17.845  0.00  0.00    +0.000 A 
ATOM     24  C   UNL     1       2.045   8.228  17.712  0.00  0.00    +0.000 A 
BRANCH  22  25
ATOM     25  N   UNL     1       0.435  11.210  19.206  0.00  0.00    +0.000 N 
ATOM     26  H   UNL     1       0.901  11.897  19.789  0.00  0.00    +0.000 HD
ATOM     27  H   UNL     1       0.147  11.596  18.312  0.00  0.00    +0.000 HD
ENDBRANCH  22  25
ENDBRANCH   6  19
TORSDOF 4
ENDMDL
MODEL 7
REMARK VINA RESULT:      -8.0      1.113      5.973
REMARK  Name = 
REMARK  4 active torsions:
REMARK  status: ('A' for Active; 'I' for Inactive)
REMARK    1  A    between atoms: C_6  and  C_7
REMARK    2  A    between atoms: C_6  and  C_14
REMARK    3  A    between atoms: C_10  and  N_11
REMARK    4  A    between atoms: C_17  and  N_18
REMARK                            x       y       z     vdW  Elec       q    Type
REMARK                         _______ _______ _______ _____ _____    ______ ____
ROOT
ATOM      1  N   UNL     1       7.327   5.290  15.707  0.00  0.00    +0.000 NA
ATOM      2  C   UNL     1       6.153   5.400  16.236  0.00  0.00    +0.000 C 
ATOM      3  C   UNL     1       5.462   4.272  16.908  0.00  0.00    +0.000 C 
ATOM      4  C   UNL     1       4.330   4.483  17.594  0.00  0.00    +0.000 C 
ATOM      5  C   UNL     1       3.750   5.826  17.738  0.00  0.00    +0.000 C 
ATOM      6  C   UNL     1       2.754   6.088  18.638  0.00  0.00    +0.000 C 
ATOM      7  C   UNL     1       4.291   6.871  16.857  0.00  0.00    +0.000 C 
ATOM      8  C   UNL     1       5.425   6.688  16.166  0.00  0.00    +0.000 C 
ATOM      9  H   UNL     1       7.701   4.347  15.845  0.00  0.00    +0.000 HD
ENDROOT
BRANCH   6  10
ATOM     10  C   UNL     1       2.298   5.031  19.579  0.00  0.00    +0.000 A 
ATOM     11  C   UNL     1       2.898   4.917  20.839  0.00  0.00    +0.000 A 
ATOM     12  C   UNL     1       2.499   3.912  21.723  0.00  0.00    +0.000 A 
ATOM     13  C   UNL     1       1.469   3.031  21.382  0.00  0.00    +0.000 A 
ATOM     14  C   UNL     1       0.907   3.118  20.104  0.00  0.00    +0.000 A 
ATOM     15  C   UNL     1       1.298   4.126  19.216  0.00  0.00    +0.000 A 
BRANCH  13  16
ATOM     16  N   UNL     1       1.174   1.942  22.210  0.00  0.00    +0.000 N 
ATOM     17  H   UNL     1       1.927   1.697  22.846  0.00  0.00    +0.000 HD
ATOM     18  H   UNL     1       0.281   2.021  22.686  0.00  0.00    +0.000 HD
ENDBRANCH  13  16
ENDBRANCH   6  10
BRANCH   6  19
ATOM     19  C   UNL     1       2.188   7.456  18.775  0.00  0.00    +0.000 A 
ATOM     20  C   UNL     1       2.103   8.308  17.669  0.00  0.00    +0.000 A 
ATOM     21  C   UNL     1       1.582   9.598  17.814  0.00  0.00    +0.000 A 
ATOM     22  C   UNL     1       1.093  10.039  19.047  0.00  0.00    +0.000 A 
ATOM     23  C   UNL     1       1.223   9.202  20.157  0.00  0.00    +0.000 A 
ATOM     24  C   UNL     1       1.746   7.913  20.022  0.00  0.00    +0.000 A 
BRANCH  22  25
ATOM     25  N   UNL     1       0.704  11.373  19.216  0.00  0.00    +0.000 N 
ATOM     26  H   UNL     1       0.034  11.697  18.525  0.00  0.00    +0.000 HD
ATOM     27  H   UNL     1       0.419  11.600  20.164  0.00  0.00    +0.000 HD
ENDBRANCH  22  25
ENDBRANCH   6  19
TORSDOF 4
ENDMDL
MODEL 8
REMARK VINA RESULT:      -8.0      1.108      5.927
REMARK  Name = 
REMARK  4 active torsions:
REMARK  status: ('A' for Active; 'I' for Inactive)
REMARK    1  A    between atoms: C_6  and  C_7
REMARK    2  A    between atoms: C_6  and  C_14
REMARK    3  A    between atoms: C_10  and  N_11
REMARK    4  A    between atoms: C_17  and  N_18
REMARK                            x       y       z     vdW  Elec       q    Type
REMARK                         _______ _______ _______ _____ _____    ______ ____
ROOT
ATOM      1  N   UNL     1       7.427   5.322  15.788  0.00  0.00    +0.000 NA
ATOM      2  C   UNL     1       6.244   5.431  16.298  0.00  0.00    +0.000 C 
ATOM      3  C   UNL     1       5.542   4.302  16.957  0.00  0.00    +0.000 C 
ATOM      4  C   UNL     1       4.399   4.512  17.625  0.00  0.00    +0.000 C 
ATOM      5  C   UNL     1       3.817   5.855  17.760  0.00  0.00    +0.000 C 
ATOM      6  C   UNL     1       2.805   6.117  18.643  0.00  0.00    +0.000 C 
ATOM      7  C   UNL     1       4.372   6.901  16.888  0.00  0.00    +0.000 C 
ATOM      8  C   UNL     1       5.517   6.719  16.217  0.00  0.00    +0.000 C 
ATOM      9  H   UNL     1       7.799   4.378  15.932  0.00  0.00    +0.000 HD
ENDROOT
BRANCH   6  10
ATOM     10  C   UNL     1       2.335   5.059  19.576  0.00  0.00    +0.000 A 
ATOM     11  C   UNL     1       2.909   4.948  20.848  0.00  0.00    +0.000 A 
ATOM     12  C   UNL     1       2.496   3.941  21.725  0.00  0.00    +0.000 A 
ATOM     13  C   UNL     1       1.476   3.057  21.364  0.00  0.00    +0.000 A 
ATOM     14  C   UNL     1       0.941   3.141  20.075  0.00  0.00    +0.000 A 
ATOM     15  C   UNL     1       1.345   4.149  19.193  0.00  0.00    +0.000 A 
BRANCH  13  16
ATOM     16  N   UNL     1       1.169   1.968  22.187  0.00  0.00    +0.000 N 
ATOM     17  H   UNL     1       1.272   2.162  23.178  0.00  0.00    +0.000 HD
ATOM     18  H   UNL     1       0.277   1.533  21.973  0.00  0.00    +0.000 HD
ENDBRANCH  13  16
ENDBRANCH   6  10
BRANCH   6  19
ATOM     19  C   UNL     1       2.238   7.483  18.772  0.00  0.00    +0.000 A 
ATOM     20  C   UNL     1       1.788   7.956  20.010  0.00  0.00    +0.000 A 
ATOM     21  C   UNL     1       1.242   9.240  20.116  0.00  0.00    +0.000 A 
ATOM     22  C   UNL     1       1.183  10.088  19.006  0.00  0.00    +0.000 A 
ATOM     23  C   UNL     1       1.592   9.595  17.765  0.00  0.00    +0.000 A 
ATOM     24  C   UNL     1       2.134   8.312  17.649  0.00  0.00    +0.000 A 
BRANCH  22  25
ATOM     25  N   UNL     1       0.512  11.313  19.088  0.00  0.00    +0.000 N 
ATOM     26  H   UNL     1      -0.378  11.263  19.575  0.00  0.00    +0.000 HD
ATOM     27  H   UNL     1       1.091  12.076  19.424  0.00  0.00    +0.000 HD
ENDBRANCH  22  25
ENDBRANCH   6  19
TORSDOF 4
ENDMDL
MODEL 9
REMARK VINA RESULT:      -8.0      1.181      5.072
REMARK  Name = 
REMARK  4 active torsions:
REMARK  status: ('A' for Active; 'I' for Inactive)
REMARK    1  A    between atoms: C_6  and  C_7
REMARK    2  A    between atoms: C_6  and  C_14
REMARK    3  A    between atoms: C_10  and  N_11
REMARK    4  A    between atoms: C_17  and  N_18
REMARK                            x       y       z     vdW  Elec       q    Type
REMARK                         _______ _______ _______ _____ _____    ______ ____
ROOT
ATOM      1  N   UNL     1       6.099   4.808  14.500  0.00  0.00    +0.000 NA
ATOM      2  C   UNL     1       5.522   5.162  15.601  0.00  0.00    +0.000 C 
ATOM      3  C   UNL     1       5.163   6.568  15.908  0.00  0.00    +0.000 C 
ATOM      4  C   UNL     1       4.409   6.857  16.978  0.00  0.00    +0.000 C 
ATOM      5  C   UNL     1       3.885   5.806  17.863  0.00  0.00    +0.000 C 
ATOM      6  C   UNL     1       2.916   6.064  18.793  0.00  0.00    +0.000 C 
ATOM      7  C   UNL     1       4.464   4.464  17.700  0.00  0.00    +0.000 C 
ATOM      8  C   UNL     1       5.214   4.148  16.636  0.00  0.00    +0.000 C 
ATOM      9  H   UNL     1       6.236   5.616  13.885  0.00  0.00    +0.000 HD
ENDROOT
BRANCH   6  10
ATOM     10  C   UNL     1       2.286   7.409  18.864  0.00  0.00    +0.000 A 
ATOM     11  C   UNL     1       1.823   7.897  20.091  0.00  0.00    +0.000 A 
ATOM     12  C   UNL     1       1.204   9.146  20.167  0.00  0.00    +0.000 A 
ATOM     13  C   UNL     1       1.074   9.947  19.030  0.00  0.00    +0.000 A 
ATOM     14  C   UNL     1       1.492   9.435  17.797  0.00  0.00    +0.000 A 
ATOM     15  C   UNL     1       2.118   8.186  17.714  0.00  0.00    +0.000 A 
BRANCH  13  16
ATOM     16  N   UNL     1       0.328  11.129  19.086  0.00  0.00    +0.000 N 
ATOM     17  H   UNL     1      -0.602  11.046  18.686  0.00  0.00    +0.000 HD
ATOM     18  H   UNL     1       0.312  11.559  20.005  0.00  0.00    +0.000 HD
ENDBRANCH  13  16
ENDBRANCH   6  10
BRANCH   6  19
ATOM     19  C   UNL     1       2.392   4.985  19.670  0.00  0.00    +0.000 A 
ATOM     20  C   UNL     1       1.318   4.189  19.259  0.00  0.00    +0.000 A 
ATOM     21  C   UNL     1       0.824   3.185  20.099  0.00  0.00    +0.000 A 
ATOM     22  C   UNL     1       1.423   2.928  21.336  0.00  0.00    +0.000 A 
ATOM     23  C   UNL     1       2.465   3.754  21.761  0.00  0.00    +0.000 A 
ATOM     24  C   UNL     1       2.961   4.762  20.929  0.00  0.00    +0.000 A 
BRANCH  22  25
ATOM     25  N   UNL     1       0.839   2.020  22.227  0.00  0.00    +0.000 N 
ATOM     26  H   UNL     1       0.809   2.347  23.188  0.00  0.00    +0.000 HD
ATOM     27  H   UNL     1      -0.058   1.660  21.916  0.00  0.00    +0.000 HD
ENDBRANCH  22  25
ENDBRANCH   6  19
TORSDOF 4
ENDMDL
