MODEL 1
REMARK VINA RESULT:      -7.4      0.000      0.000
REMARK  Name = 
REMARK  4 active torsions:
REMARK  status: ('A' for Active; 'I' for Inactive)
REMARK    1  A    between atoms: C_2  and  C_3
REMARK    2  A    between atoms: C_3  and  N_4
REMARK    3  A    between atoms: C_5  and  C_6
REMARK    4  A    between atoms: N_18  and  C_19
REMARK                            x       y       z     vdW  Elec       q    Type
REMARK                         _______ _______ _______ _____ _____    ______ ____
ROOT
ATOM      1  N   UNL     1       3.293   4.736  18.495  0.00  0.00    +0.000 N 
ATOM      2  C   UNL     1       4.610   4.329  18.388  0.00  0.00    +0.000 A 
ATOM      3  N   UNL     1       4.892   3.443  19.326  0.00  0.00    +0.000 NA
ATOM      4  C   UNL     1       3.734   3.231  20.021  0.00  0.00    +0.000 A 
ATOM      5  C   UNL     1       3.486   2.364  21.097  0.00  0.00    +0.000 A 
ATOM      6  C   UNL     1       2.199   2.317  21.645  0.00  0.00    +0.000 A 
ATOM      7  C   UNL     1       1.179   3.121  21.132  0.00  0.00    +0.000 A 
ATOM      8  C   UNL     1       1.411   3.995  20.063  0.00  0.00    +0.000 A 
ATOM      9  C   UNL     1       2.705   4.023  19.524  0.00  0.00    +0.000 A 
ENDROOT
BRANCH   2  10
ATOM     10  C   UNL     1       5.584   4.771  17.427  0.00  0.00    +0.000 A 
ATOM     11  C   UNL     1       6.470   5.832  17.471  0.00  0.00    +0.000 A 
ATOM     12  N   UNL     1       7.275   6.012  16.361  0.00  0.00    +0.000 NA
ATOM     13  C   UNL     1       6.992   5.085  15.476  0.00  0.00    +0.000 A 
ATOM     14  S   UNL     1       5.761   3.975  15.907  0.00  0.00    +0.000 S 
ENDBRANCH   2  10
BRANCH   1  15
ATOM     15  C   UNL     1       2.620   5.756  17.711  0.00  0.00    +0.000 C 
BRANCH  15  17
ATOM     16  O   UNL     1       3.473   7.994  17.872  0.00  0.00    +0.000 OA
ATOM     17  C   UNL     1       2.721   7.137  18.325  0.00  0.00    +0.000 C 
ATOM     18  N   UNL     1       1.867   7.357  19.382  0.00  0.00    +0.000 N 
ATOM     19  H   UNL     1       1.175   6.651  19.603  0.00  0.00    +0.000 HD
BRANCH  18  20
ATOM     20  C   UNL     1       1.771   8.630  20.071  0.00  0.00    +0.000 C 
ATOM     21  C   UNL     1       0.812   9.566  19.343  0.00  0.00    +0.000 C 
ATOM     22  C   UNL     1       0.455  10.620  20.377  0.00  0.00    +0.000 C 
ATOM     23  C   UNL     1       0.548   9.921  21.730  0.00  0.00    +0.000 C 
ATOM     24  C   UNL     1       1.163   8.545  21.471  0.00  0.00    +0.000 C 
ENDBRANCH  18  20
ENDBRANCH  15  17
ENDBRANCH   1  15
TORSDOF 4
ENDMDL
MODEL 2
REMARK VINA RESULT:      -7.1      1.801      2.121
REMARK  Name = 
REMARK  4 active torsions:
REMARK  status: ('A' for Active; 'I' for Inactive)
REMARK    1  A    between atoms: C_2  and  C_3
REMARK    2  A    between atoms: C_3  and  N_4
REMARK    3  A    between atoms: C_5  and  C_6
REMARK    4  A    between atoms: N_18  and  C_19
REMARK                            x       y       z     vdW  Elec       q    Type
REMARK                         _______ _______ _______ _____ _____    ______ ____
ROOT
ATOM      1  N   UNL     1       3.383   5.382  19.053  0.00  0.00    +0.000 N 
ATOM      2  C   UNL     1       4.506   5.052  18.317  0.00  0.00    +0.000 A 
ATOM      3  N   UNL     1       4.424   3.804  17.893  0.00  0.00    +0.000 NA
ATOM      4  C   UNL     1       3.213   3.329  18.314  0.00  0.00    +0.000 A 
ATOM      5  C   UNL     1       2.626   2.072  18.104  0.00  0.00    +0.000 A 
ATOM      6  C   UNL     1       1.356   1.820  18.636  0.00  0.00    +0.000 A 
ATOM      7  C   UNL     1       0.685   2.803  19.366  0.00  0.00    +0.000 A 
ATOM      8  C   UNL     1       1.257   4.061  19.589  0.00  0.00    +0.000 A 
ATOM      9  C   UNL     1       2.528   4.295  19.043  0.00  0.00    +0.000 A 
ENDROOT
BRANCH   2  10
ATOM     10  C   UNL     1       5.635   5.893  18.024  0.00  0.00    +0.000 A 
ATOM     11  C   UNL     1       5.800   6.869  17.058  0.00  0.00    +0.000 A 
ATOM     12  N   UNL     1       7.032   7.494  17.015  0.00  0.00    +0.000 NA
ATOM     13  C   UNL     1       7.800   6.985  17.950  0.00  0.00    +0.000 A 
ATOM     14  S   UNL     1       7.110   5.743  18.906  0.00  0.00    +0.000 S 
ENDBRANCH   2  10
BRANCH   1  15
ATOM     15  C   UNL     1       3.127   6.624  19.761  0.00  0.00    +0.000 C 
BRANCH  15  17
ATOM     16  O   UNL     1       2.254   7.544  17.723  0.00  0.00    +0.000 OA
ATOM     17  C   UNL     1       2.318   7.613  18.947  0.00  0.00    +0.000 C 
ATOM     18  N   UNL     1       1.630   8.542  19.694  0.00  0.00    +0.000 N 
ATOM     19  H   UNL     1       1.618   8.442  20.702  0.00  0.00    +0.000 HD
BRANCH  18  20
ATOM     20  C   UNL     1       0.755   9.540  19.107  0.00  0.00    +0.000 C 
ATOM     21  C   UNL     1      -0.292   9.998  20.116  0.00  0.00    +0.000 C 
ATOM     22  C   UNL     1      -0.803  11.315  19.557  0.00  0.00    +0.000 C 
ATOM     23  C   UNL     1       0.366  11.918  18.783  0.00  0.00    +0.000 C 
ATOM     24  C   UNL     1       1.455  10.845  18.727  0.00  0.00    +0.000 C 
ENDBRANCH  18  20
ENDBRANCH  15  17
ENDBRANCH   1  15
TORSDOF 4
ENDMDL
MODEL 3
REMARK VINA RESULT:      -7.1      1.944      4.417
REMARK  Name = 
REMARK  4 active torsions:
REMARK  status: ('A' for Active; 'I' for Inactive)
REMARK    1  A    between atoms: C_2  and  C_3
REMARK    2  A    between atoms: C_3  and  N_4
REMARK    3  A    between atoms: C_5  and  C_6
REMARK    4  A    between atoms: N_18  and  C_19
REMARK                            x       y       z     vdW  Elec       q    Type
REMARK                         _______ _______ _______ _____ _____    ______ ____
ROOT
ATOM      1  N   UNL     1       3.981   5.687  18.417  0.00  0.00    +0.000 N 
ATOM      2  C   UNL     1       4.106   4.578  19.233  0.00  0.00    +0.000 A 
ATOM      3  N   UNL     1       5.382   4.322  19.462  0.00  0.00    +0.000 NA
ATOM      4  C   UNL     1       6.095   5.303  18.832  0.00  0.00    +0.000 A 
ATOM      5  C   UNL     1       7.482   5.508  18.787  0.00  0.00    +0.000 A 
ATOM      6  C   UNL     1       7.982   6.603  18.072  0.00  0.00    +0.000 A 
ATOM      7  C   UNL     1       7.115   7.475  17.411  0.00  0.00    +0.000 A 
ATOM      8  C   UNL     1       5.729   7.282  17.441  0.00  0.00    +0.000 A 
ATOM      9  C   UNL     1       5.247   6.183  18.167  0.00  0.00    +0.000 A 
ENDROOT
BRANCH   2  10
ATOM     10  C   UNL     1       3.048   3.772  19.778  0.00  0.00    +0.000 A 
ATOM     11  C   UNL     1       2.441   2.633  19.281  0.00  0.00    +0.000 A 
ATOM     12  N   UNL     1       1.419   2.095  20.042  0.00  0.00    +0.000 NA
ATOM     13  C   UNL     1       1.254   2.834  21.115  0.00  0.00    +0.000 A 
ATOM     14  S   UNL     1       2.281   4.196  21.264  0.00  0.00    +0.000 S 
ENDBRANCH   2  10
BRANCH   1  15
ATOM     15  C   UNL     1       2.757   6.242  17.866  0.00  0.00    +0.000 C 
BRANCH  15  17
ATOM     16  O   UNL     1       2.573   8.631  17.717  0.00  0.00    +0.000 OA
ATOM     17  C   UNL     1       2.439   7.622  18.403  0.00  0.00    +0.000 C 
ATOM     18  N   UNL     1       1.940   7.635  19.686  0.00  0.00    +0.000 N 
ATOM     19  H   UNL     1       1.721   6.753  20.132  0.00  0.00    +0.000 HD
BRANCH  18  20
ATOM     20  C   UNL     1       1.522   8.850  20.361  0.00  0.00    +0.000 C 
ATOM     21  C   UNL     1       0.184   9.337  19.816  0.00  0.00    +0.000 C 
ATOM     22  C   UNL     1      -0.336  10.285  20.883  0.00  0.00    +0.000 C 
ATOM     23  C   UNL     1       0.233   9.774  22.204  0.00  0.00    +0.000 C 
ATOM     24  C   UNL     1       1.238   8.676  21.853  0.00  0.00    +0.000 C 
ENDBRANCH  18  20
ENDBRANCH  15  17
ENDBRANCH   1  15
TORSDOF 4
ENDMDL
MODEL 4
REMARK VINA RESULT:      -7.1      2.276      4.631
REMARK  Name = 
REMARK  4 active torsions:
REMARK  status: ('A' for Active; 'I' for Inactive)
REMARK    1  A    between atoms: C_2  and  C_3
REMARK    2  A    between atoms: C_3  and  N_4
REMARK    3  A    between atoms: C_5  and  C_6
REMARK    4  A    between atoms: N_18  and  C_19
REMARK                            x       y       z     vdW  Elec       q    Type
REMARK                         _______ _______ _______ _____ _____    ______ ____
ROOT
ATOM      1  N   UNL     1       3.974   5.690  18.419  0.00  0.00    +0.000 N 
ATOM      2  C   UNL     1       4.099   4.547  19.187  0.00  0.00    +0.000 A 
ATOM      3  N   UNL     1       5.375   4.264  19.380  0.00  0.00    +0.000 NA
ATOM      4  C   UNL     1       6.090   5.260  18.775  0.00  0.00    +0.000 A 
ATOM      5  C   UNL     1       7.479   5.446  18.710  0.00  0.00    +0.000 A 
ATOM      6  C   UNL     1       7.981   6.562  18.029  0.00  0.00    +0.000 A 
ATOM      7  C   UNL     1       7.114   7.472  17.421  0.00  0.00    +0.000 A 
ATOM      8  C   UNL     1       5.725   7.298  17.472  0.00  0.00    +0.000 A 
ATOM      9  C   UNL     1       5.242   6.177  18.163  0.00  0.00    +0.000 A 
ENDROOT
BRANCH   2  10
ATOM     10  C   UNL     1       3.040   3.735  19.723  0.00  0.00    +0.000 A 
ATOM     11  C   UNL     1       2.373   2.654  19.173  0.00  0.00    +0.000 A 
ATOM     12  N   UNL     1       1.370   2.093  19.940  0.00  0.00    +0.000 NA
ATOM     13  C   UNL     1       1.277   2.755  21.070  0.00  0.00    +0.000 A 
ATOM     14  S   UNL     1       2.355   4.070  21.269  0.00  0.00    +0.000 S 
ENDBRANCH   2  10
BRANCH   1  15
ATOM     15  C   UNL     1       2.747   6.283  17.916  0.00  0.00    +0.000 C 
BRANCH  15  17
ATOM     16  O   UNL     1       2.213   7.335  20.007  0.00  0.00    +0.000 OA
ATOM     17  C   UNL     1       2.241   7.418  18.782  0.00  0.00    +0.000 C 
ATOM     18  N   UNL     1       1.876   8.549  18.088  0.00  0.00    +0.000 N 
ATOM     19  H   UNL     1       2.065   8.591  17.093  0.00  0.00    +0.000 HD
BRANCH  18  20
ATOM     20  C   UNL     1       1.417   9.763  18.736  0.00  0.00    +0.000 C 
ATOM     21  C   UNL     1       2.124  10.984  18.156  0.00  0.00    +0.000 C 
ATOM     22  C   UNL     1       1.248  12.156  18.563  0.00  0.00    +0.000 C 
ATOM     23  C   UNL     1      -0.172  11.602  18.648  0.00  0.00    +0.000 C 
ATOM     24  C   UNL     1      -0.059  10.084  18.503  0.00  0.00    +0.000 C 
ENDBRANCH  18  20
ENDBRANCH  15  17
ENDBRANCH   1  15
TORSDOF 4
ENDMDL
MODEL 5
REMARK VINA RESULT:      -7.0      1.234      1.420
REMARK  Name = 
REMARK  4 active torsions:
REMARK  status: ('A' for Active; 'I' for Inactive)
REMARK    1  A    between atoms: C_2  and  C_3
REMARK    2  A    between atoms: C_3  and  N_4
REMARK    3  A    between atoms: C_5  and  C_6
REMARK    4  A    between atoms: N_18  and  C_19
REMARK                            x       y       z     vdW  Elec       q    Type
REMARK                         _______ _______ _______ _____ _____    ______ ____
ROOT
ATOM      1  N   UNL     1       3.324   4.946  18.495  0.00  0.00    +0.000 N 
ATOM      2  C   UNL     1       4.609   4.457  18.353  0.00  0.00    +0.000 A 
ATOM      3  N   UNL     1       4.834   3.500  19.235  0.00  0.00    +0.000 NA
ATOM      4  C   UNL     1       3.667   3.328  19.927  0.00  0.00    +0.000 A 
ATOM      5  C   UNL     1       3.365   2.419  20.953  0.00  0.00    +0.000 A 
ATOM      6  C   UNL     1       2.080   2.428  21.509  0.00  0.00    +0.000 A 
ATOM      7  C   UNL     1       1.116   3.329  21.053  0.00  0.00    +0.000 A 
ATOM      8  C   UNL     1       1.402   4.246  20.034  0.00  0.00    +0.000 A 
ATOM      9  C   UNL     1       2.693   4.217  19.486  0.00  0.00    +0.000 A 
ENDROOT
BRANCH   2  10
ATOM     10  C   UNL     1       5.607   4.887  17.411  0.00  0.00    +0.000 A 
ATOM     11  C   UNL     1       6.493   5.948  17.464  0.00  0.00    +0.000 A 
ATOM     12  N   UNL     1       7.324   6.114  16.372  0.00  0.00    +0.000 NA
ATOM     13  C   UNL     1       7.061   5.177  15.491  0.00  0.00    +0.000 A 
ATOM     14  S   UNL     1       5.818   4.074  15.905  0.00  0.00    +0.000 S 
ENDBRANCH   2  10
BRANCH   1  15
ATOM     15  C   UNL     1       2.718   6.055  17.778  0.00  0.00    +0.000 C 
BRANCH  15  17
ATOM     16  O   UNL     1       2.724   7.255  19.857  0.00  0.00    +0.000 OA
ATOM     17  C   UNL     1       2.409   7.239  18.671  0.00  0.00    +0.000 C 
ATOM     18  N   UNL     1       1.807   8.298  18.029  0.00  0.00    +0.000 N 
ATOM     19  H   UNL     1       1.713   8.265  17.021  0.00  0.00    +0.000 HD
BRANCH  18  20
ATOM     20  C   UNL     1       1.480   9.545  18.694  0.00  0.00    +0.000 C 
ATOM     21  C   UNL     1       2.229  10.709  18.055  0.00  0.00    +0.000 C 
ATOM     22  C   UNL     1       1.467  11.943  18.507  0.00  0.00    +0.000 C 
ATOM     23  C   UNL     1       0.021  11.491  18.695  0.00  0.00    +0.000 C 
ATOM     24  C   UNL     1       0.017   9.967  18.558  0.00  0.00    +0.000 C 
ENDBRANCH  18  20
ENDBRANCH  15  17
ENDBRANCH   1  15
TORSDOF 4
ENDMDL
MODEL 6
REMARK VINA RESULT:      -7.0      2.004      2.212
REMARK  Name = 
REMARK  4 active torsions:
REMARK  status: ('A' for Active; 'I' for Inactive)
REMARK    1  A    between atoms: C_2  and  C_3
REMARK    2  A    between atoms: C_3  and  N_4
REMARK    3  A    between atoms: C_5  and  C_6
REMARK    4  A    between atoms: N_18  and  C_19
REMARK                            x       y       z     vdW  Elec       q    Type
REMARK                         _______ _______ _______ _____ _____    ______ ____
ROOT
ATOM      1  N   UNL     1       3.576   5.461  17.977  0.00  0.00    +0.000 N 
ATOM      2  C   UNL     1       4.877   5.187  18.356  0.00  0.00    +0.000 A 
ATOM      3  N   UNL     1       4.942   4.003  18.940  0.00  0.00    +0.000 NA
ATOM      4  C   UNL     1       3.681   3.478  18.896  0.00  0.00    +0.000 A 
ATOM      5  C   UNL     1       3.216   2.235  19.354  0.00  0.00    +0.000 A 
ATOM      6  C   UNL     1       1.863   1.916  19.188  0.00  0.00    +0.000 A 
ATOM      7  C   UNL     1       0.989   2.820  18.581  0.00  0.00    +0.000 A 
ATOM      8  C   UNL     1       1.435   4.066  18.123  0.00  0.00    +0.000 A 
ATOM      9  C   UNL     1       2.795   4.365  18.293  0.00  0.00    +0.000 A 
ENDROOT
BRANCH   2  10
ATOM     10  C   UNL     1       6.033   6.023  18.179  0.00  0.00    +0.000 A 
ATOM     11  C   UNL     1       6.295   7.001  17.236  0.00  0.00    +0.000 A 
ATOM     12  N   UNL     1       7.528   7.622  17.317  0.00  0.00    +0.000 NA
ATOM     13  C   UNL     1       8.198   7.108  18.322  0.00  0.00    +0.000 A 
ATOM     14  S   UNL     1       7.412   5.866  19.202  0.00  0.00    +0.000 S 
ENDBRANCH   2  10
BRANCH   1  15
ATOM     15  C   UNL     1       3.071   6.688  17.385  0.00  0.00    +0.000 C 
BRANCH  15  17
ATOM     16  O   UNL     1       2.437   7.364  19.599  0.00  0.00    +0.000 OA
ATOM     17  C   UNL     1       2.422   7.610  18.396  0.00  0.00    +0.000 C 
ATOM     18  N   UNL     1       1.876   8.754  17.860  0.00  0.00    +0.000 N 
ATOM     19  H   UNL     1       2.032   8.954  16.879  0.00  0.00    +0.000 HD
BRANCH  18  20
ATOM     20  C   UNL     1       1.257   9.789  18.666  0.00  0.00    +0.000 C 
ATOM     21  C   UNL     1       1.899  11.145  18.387  0.00  0.00    +0.000 C 
ATOM     22  C   UNL     1       0.890  12.154  18.907  0.00  0.00    +0.000 C 
ATOM     23  C   UNL     1      -0.476  11.493  18.750  0.00  0.00    +0.000 C 
ATOM     24  C   UNL     1      -0.217  10.040  18.347  0.00  0.00    +0.000 C 
ENDBRANCH  18  20
ENDBRANCH  15  17
ENDBRANCH   1  15
TORSDOF 4
ENDMDL
MODEL 7
REMARK VINA RESULT:      -7.0      2.931      5.973
REMARK  Name = 
REMARK  4 active torsions:
REMARK  status: ('A' for Active; 'I' for Inactive)
REMARK    1  A    between atoms: C_2  and  C_3
REMARK    2  A    between atoms: C_3  and  N_4
REMARK    3  A    between atoms: C_5  and  C_6
REMARK    4  A    between atoms: N_18  and  C_19
REMARK                            x       y       z     vdW  Elec       q    Type
REMARK                         _______ _______ _______ _____ _____    ______ ____
ROOT
ATOM      1  N   UNL     1       6.122   4.048  15.387  0.00  0.00    +0.000 N 
ATOM      2  C   UNL     1       7.127   4.923  15.759  0.00  0.00    +0.000 A 
ATOM      3  N   UNL     1       7.796   5.328  14.694  0.00  0.00    +0.000 NA
ATOM      4  C   UNL     1       7.191   4.752  13.611  0.00  0.00    +0.000 A 
ATOM      5  C   UNL     1       7.495   4.879  12.248  0.00  0.00    +0.000 A 
ATOM      6  C   UNL     1       6.716   4.186  11.313  0.00  0.00    +0.000 A 
ATOM      7  C   UNL     1       5.656   3.379  11.731  0.00  0.00    +0.000 A 
ATOM      8  C   UNL     1       5.343   3.237  13.088  0.00  0.00    +0.000 A 
ATOM      9  C   UNL     1       6.131   3.943  14.008  0.00  0.00    +0.000 A 
ENDROOT
BRANCH   2  10
ATOM     10  C   UNL     1       7.454   5.362  17.088  0.00  0.00    +0.000 A 
ATOM     11  C   UNL     1       7.785   4.635  18.217  0.00  0.00    +0.000 A 
ATOM     12  N   UNL     1       8.026   5.359  19.369  0.00  0.00    +0.000 NA
ATOM     13  C   UNL     1       7.872   6.636  19.109  0.00  0.00    +0.000 A 
ATOM     14  S   UNL     1       7.425   7.035  17.505  0.00  0.00    +0.000 S 
ENDBRANCH   2  10
BRANCH   1  15
ATOM     15  C   UNL     1       5.222   3.318  16.262  0.00  0.00    +0.000 C 
BRANCH  15  17
ATOM     16  O   UNL     1       4.124   5.406  16.707  0.00  0.00    +0.000 OA
ATOM     17  C   UNL     1       4.247   4.218  16.992  0.00  0.00    +0.000 C 
ATOM     18  N   UNL     1       3.484   3.582  17.945  0.00  0.00    +0.000 N 
ATOM     19  H   UNL     1       3.541   2.573  18.020  0.00  0.00    +0.000 HD
BRANCH  18  20
ATOM     20  C   UNL     1       2.455   4.255  18.715  0.00  0.00    +0.000 C 
ATOM     21  C   UNL     1       1.490   3.244  19.325  0.00  0.00    +0.000 C 
ATOM     22  C   UNL     1       0.792   4.010  20.435  0.00  0.00    +0.000 C 
ATOM     23  C   UNL     1       1.801   5.049  20.919  0.00  0.00    +0.000 C 
ATOM     24  C   UNL     1       2.975   5.008  19.940  0.00  0.00    +0.000 C 
ENDBRANCH  18  20
ENDBRANCH  15  17
ENDBRANCH   1  15
TORSDOF 4
ENDMDL
MODEL 8
REMARK VINA RESULT:      -7.0      0.996      1.119
REMARK  Name = 
REMARK  4 active torsions:
REMARK  status: ('A' for Active; 'I' for Inactive)
REMARK    1  A    between atoms: C_2  and  C_3
REMARK    2  A    between atoms: C_3  and  N_4
REMARK    3  A    between atoms: C_5  and  C_6
REMARK    4  A    between atoms: N_18  and  C_19
REMARK                            x       y       z     vdW  Elec       q    Type
REMARK                         _______ _______ _______ _____ _____    ______ ____
ROOT
ATOM      1  N   UNL     1       3.263   4.433  18.416  0.00  0.00    +0.000 N 
ATOM      2  C   UNL     1       4.549   3.933  18.332  0.00  0.00    +0.000 A 
ATOM      3  N   UNL     1       4.791   3.125  19.349  0.00  0.00    +0.000 NA
ATOM      4  C   UNL     1       3.635   3.056  20.076  0.00  0.00    +0.000 A 
ATOM      5  C   UNL     1       3.352   2.316  21.233  0.00  0.00    +0.000 A 
ATOM      6  C   UNL     1       2.075   2.406  21.799  0.00  0.00    +0.000 A 
ATOM      7  C   UNL     1       1.099   3.222  21.223  0.00  0.00    +0.000 A 
ATOM      8  C   UNL     1       1.366   3.971  20.071  0.00  0.00    +0.000 A 
ATOM      9  C   UNL     1       2.650   3.863  19.517  0.00  0.00    +0.000 A 
ENDROOT
BRANCH   2  10
ATOM     10  C   UNL     1       5.531   4.216  17.321  0.00  0.00    +0.000 A 
ATOM     11  C   UNL     1       5.556   3.885  15.978  0.00  0.00    +0.000 A 
ATOM     12  N   UNL     1       6.669   4.286  15.264  0.00  0.00    +0.000 NA
ATOM     13  C   UNL     1       7.488   4.919  16.072  0.00  0.00    +0.000 A 
ATOM     14  S   UNL     1       6.989   5.054  17.704  0.00  0.00    +0.000 S 
ENDBRANCH   2  10
BRANCH   1  15
ATOM     15  C   UNL     1       2.641   5.416  17.545  0.00  0.00    +0.000 C 
BRANCH  15  17
ATOM     16  O   UNL     1       3.909   7.450  17.680  0.00  0.00    +0.000 OA
ATOM     17  C   UNL     1       2.889   6.842  17.990  0.00  0.00    +0.000 C 
ATOM     18  N   UNL     1       1.859   7.402  18.713  0.00  0.00    +0.000 N 
ATOM     19  H   UNL     1       0.992   6.887  18.803  0.00  0.00    +0.000 HD
BRANCH  18  20
ATOM     20  C   UNL     1       1.878   8.774  19.184  0.00  0.00    +0.000 C 
ATOM     21  C   UNL     1       1.273   9.710  18.142  0.00  0.00    +0.000 C 
ATOM     22  C   UNL     1       0.932  10.970  18.919  0.00  0.00    +0.000 C 
ATOM     23  C   UNL     1       0.628  10.510  20.343  0.00  0.00    +0.000 C 
ATOM     24  C   UNL     1       1.007   9.030  20.415  0.00  0.00    +0.000 C 
ENDBRANCH  18  20
ENDBRANCH  15  17
ENDBRANCH   1  15
TORSDOF 4
ENDMDL
MODEL 9
REMARK VINA RESULT:      -7.0      1.932      4.568
REMARK  Name = 
REMARK  4 active torsions:
REMARK  status: ('A' for Active; 'I' for Inactive)
REMARK    1  A    between atoms: C_2  and  C_3
REMARK    2  A    between atoms: C_3  and  N_4
REMARK    3  A    between atoms: C_5  and  C_6
REMARK    4  A    between atoms: N_18  and  C_19
REMARK                            x       y       z     vdW  Elec       q    Type
REMARK                         _______ _______ _______ _____ _____    ______ ____
ROOT
ATOM      1  N   UNL     1       4.099   5.118  18.461  0.00  0.00    +0.000 N 
ATOM      2  C   UNL     1       3.605   3.846  18.685  0.00  0.00    +0.000 A 
ATOM      3  N   UNL     1       3.816   3.082  17.629  0.00  0.00    +0.000 NA
ATOM      4  C   UNL     1       4.500   3.847  16.725  0.00  0.00    +0.000 A 
ATOM      5  C   UNL     1       4.989   3.504  15.456  0.00  0.00    +0.000 A 
ATOM      6  C   UNL     1       5.673   4.471  14.710  0.00  0.00    +0.000 A 
ATOM      7  C   UNL     1       5.864   5.757  15.220  0.00  0.00    +0.000 A 
ATOM      8  C   UNL     1       5.378   6.117  16.482  0.00  0.00    +0.000 A 
ATOM      9  C   UNL     1       4.700   5.133  17.216  0.00  0.00    +0.000 A 
ENDROOT
BRANCH   2  10
ATOM     10  C   UNL     1       2.942   3.363  19.866  0.00  0.00    +0.000 A 
ATOM     11  C   UNL     1       3.445   2.688  20.964  0.00  0.00    +0.000 A 
ATOM     12  N   UNL     1       2.534   2.333  21.941  0.00  0.00    +0.000 NA
ATOM     13  C   UNL     1       1.340   2.738  21.577  0.00  0.00    +0.000 A 
ATOM     14  S   UNL     1       1.238   3.539  20.067  0.00  0.00    +0.000 S 
ENDBRANCH   2  10
BRANCH   1  15
ATOM     15  C   UNL     1       3.991   6.272  19.337  0.00  0.00    +0.000 C 
BRANCH  15  17
ATOM     16  O   UNL     1       1.998   6.941  18.178  0.00  0.00    +0.000 OA
ATOM     17  C   UNL     1       2.663   6.990  19.208  0.00  0.00    +0.000 C 
ATOM     18  N   UNL     1       2.252   7.642  20.348  0.00  0.00    +0.000 N 
ATOM     19  H   UNL     1       2.785   7.515  21.200  0.00  0.00    +0.000 HD
BRANCH  18  20
ATOM     20  C   UNL     1       0.985   8.343  20.447  0.00  0.00    +0.000 C 
ATOM     21  C   UNL     1       0.722   8.779  21.885  0.00  0.00    +0.000 C 
ATOM     22  C   UNL     1      -0.340   9.858  21.763  0.00  0.00    +0.000 C 
ATOM     23  C   UNL     1      -0.111  10.513  20.404  0.00  0.00    +0.000 C 
ATOM     24  C   UNL     1       0.933   9.663  19.678  0.00  0.00    +0.000 C 
ENDBRANCH  18  20
ENDBRANCH  15  17
ENDBRANCH   1  15
TORSDOF 4
ENDMDL
