MODEL 1
REMARK VINA RESULT:      -6.3      0.000      0.000
REMARK  Name = 
REMARK  2 active torsions:
REMARK  status: ('A' for Active; 'I' for Inactive)
REMARK    1  A    between atoms: N_1  and  C_2
REMARK    2  A    between atoms: C_11  and  O_12
REMARK                            x       y       z     vdW  Elec       q    Type
REMARK                         _______ _______ _______ _____ _____    ______ ____
ROOT
ATOM      1  C   UNL     1       5.794   4.565  16.961  0.00  0.00    +0.000 C 
ATOM      2  C   UNL     1       5.701   5.705  15.927  0.00  0.00    +0.000 C 
ATOM      3  C   UNL     1       4.777   6.775  16.520  0.00  0.00    +0.000 C 
ATOM      4  C   UNL     1       4.010   6.015  17.544  0.00  0.00    +0.000 A 
ATOM      5  C   UNL     1       2.905   6.453  18.272  0.00  0.00    +0.000 A 
ATOM      6 CL   UNL     1       2.190   8.034  17.976  0.00  0.00    +0.000 Cl
ATOM      7  C   UNL     1       2.374   5.621  19.270  0.00  0.00    +0.000 A 
ATOM      8  C   UNL     1       2.956   4.369  19.540  0.00  0.00    +0.000 A 
ATOM      9  I   UNL     1       2.100   3.196  21.082  0.00  0.00    +0.000 I 
ATOM     10  C   UNL     1       4.088   3.946  18.804  0.00  0.00    +0.000 A 
ATOM     11  C   UNL     1       4.585   4.790  17.802  0.00  0.00    +0.000 A 
ENDROOT
BRANCH   1  12
ATOM     12  N   UNL     1       5.755   3.249  16.315  0.00  0.00    +0.000 NA
ATOM     13  H   UNL     1       5.859   3.361  15.282  0.00  0.00    +0.000 HD
ATOM     14  H   UNL     1       4.835   2.790  16.512  0.00  0.00    +0.000 HD
ENDBRANCH   1  12
BRANCH  10  15
ATOM     15  O   UNL     1       4.701   2.767  19.043  0.00  0.00    +0.000 OA
ATOM     16  H   UNL     1       5.357   2.374  18.447  0.00  0.00    +0.000 HD
ENDBRANCH  10  15
TORSDOF 2
ENDMDL
MODEL 2
REMARK VINA RESULT:      -6.1      2.605      3.914
REMARK  Name = 
REMARK  2 active torsions:
REMARK  status: ('A' for Active; 'I' for Inactive)
REMARK    1  A    between atoms: N_1  and  C_2
REMARK    2  A    between atoms: C_11  and  O_12
REMARK                            x       y       z     vdW  Elec       q    Type
REMARK                         _______ _______ _______ _____ _____    ______ ____
ROOT
ATOM      1  C   UNL     1       3.559   2.463  20.016  0.00  0.00    +0.000 C 
ATOM      2  C   UNL     1       2.802   2.702  21.339  0.00  0.00    +0.000 C 
ATOM      3  C   UNL     1       2.073   4.044  21.201  0.00  0.00    +0.000 C 
ATOM      4  C   UNL     1       2.826   4.716  20.108  0.00  0.00    +0.000 A 
ATOM      5  C   UNL     1       2.702   6.038  19.683  0.00  0.00    +0.000 A 
ATOM      6 CL   UNL     1       1.630   7.162  20.511  0.00  0.00    +0.000 Cl
ATOM      7  C   UNL     1       3.433   6.464  18.563  0.00  0.00    +0.000 A 
ATOM      8  C   UNL     1       4.268   5.567  17.871  0.00  0.00    +0.000 A 
ATOM      9  I   UNL     1       5.309   6.296  16.177  0.00  0.00    +0.000 I 
ATOM     10  C   UNL     1       4.368   4.224  18.304  0.00  0.00    +0.000 A 
ATOM     11  C   UNL     1       3.641   3.832  19.436  0.00  0.00    +0.000 A 
ENDROOT
BRANCH   1  12
ATOM     12  N   UNL     1       4.894   1.904  20.254  0.00  0.00    +0.000 NA
ATOM     13  H   UNL     1       5.554   2.246  19.522  0.00  0.00    +0.000 HD
ATOM     14  H   UNL     1       4.849   0.858  20.204  0.00  0.00    +0.000 HD
ENDBRANCH   1  12
BRANCH  10  15
ATOM     15  O   UNL     1       5.133   3.317  17.659  0.00  0.00    +0.000 OA
ATOM     16  H   UNL     1       5.230   2.397  17.948  0.00  0.00    +0.000 HD
ENDBRANCH  10  15
TORSDOF 2
ENDMDL
MODEL 3
REMARK VINA RESULT:      -6.1      1.403      1.405
REMARK  Name = 
REMARK  2 active torsions:
REMARK  status: ('A' for Active; 'I' for Inactive)
REMARK    1  A    between atoms: N_1  and  C_2
REMARK    2  A    between atoms: C_11  and  O_12
REMARK                            x       y       z     vdW  Elec       q    Type
REMARK                         _______ _______ _______ _____ _____    ______ ____
ROOT
ATOM      1  C   UNL     1       7.072   5.226  18.235  0.00  0.00    +0.000 C 
ATOM      2  C   UNL     1       7.298   6.463  17.341  0.00  0.00    +0.000 C 
ATOM      3  C   UNL     1       6.020   7.306  17.410  0.00  0.00    +0.000 C 
ATOM      4  C   UNL     1       5.001   6.321  17.866  0.00  0.00    +0.000 A 
ATOM      5  C   UNL     1       3.621   6.502  17.936  0.00  0.00    +0.000 A 
ATOM      6 CL   UNL     1       2.869   7.989  17.369  0.00  0.00    +0.000 Cl
ATOM      7  C   UNL     1       2.828   5.484  18.489  0.00  0.00    +0.000 A 
ATOM      8  C   UNL     1       3.420   4.304  18.976  0.00  0.00    +0.000 A 
ATOM      9  I   UNL     1       2.144   2.837  19.817  0.00  0.00    +0.000 I 
ATOM     10  C   UNL     1       4.824   4.144  18.915  0.00  0.00    +0.000 A 
ATOM     11  C   UNL     1       5.587   5.169  18.341  0.00  0.00    +0.000 A 
ENDROOT
BRANCH   1  12
ATOM     12  N   UNL     1       7.609   4.010  17.616  0.00  0.00    +0.000 NA
ATOM     13  H   UNL     1       8.640   4.109  17.484  0.00  0.00    +0.000 HD
ATOM     14  H   UNL     1       7.163   3.868  16.679  0.00  0.00    +0.000 HD
ENDBRANCH   1  12
BRANCH  10  15
ATOM     15  O   UNL     1       5.443   3.043  19.394  0.00  0.00    +0.000 OA
ATOM     16  H   UNL     1       5.534   2.219  18.892  0.00  0.00    +0.000 HD
ENDBRANCH  10  15
TORSDOF 2
ENDMDL
MODEL 4
REMARK VINA RESULT:      -6.1      2.654      3.782
REMARK  Name = 
REMARK  2 active torsions:
REMARK  status: ('A' for Active; 'I' for Inactive)
REMARK    1  A    between atoms: N_1  and  C_2
REMARK    2  A    between atoms: C_11  and  O_12
REMARK                            x       y       z     vdW  Elec       q    Type
REMARK                         _______ _______ _______ _____ _____    ______ ____
ROOT
ATOM      1  C   UNL     1       2.673   2.139  18.095  0.00  0.00    +0.000 C 
ATOM      2  C   UNL     1       1.562   2.025  19.160  0.00  0.00    +0.000 C 
ATOM      3  C   UNL     1       1.210   3.453  19.594  0.00  0.00    +0.000 C 
ATOM      4  C   UNL     1       2.417   4.225  19.193  0.00  0.00    +0.000 A 
ATOM      5  C   UNL     1       2.715   5.551  19.503  0.00  0.00    +0.000 A 
ATOM      6 CL   UNL     1       1.667   6.497  20.554  0.00  0.00    +0.000 Cl
ATOM      7  C   UNL     1       3.863   6.139  18.948  0.00  0.00    +0.000 A 
ATOM      8  C   UNL     1       4.692   5.404  18.080  0.00  0.00    +0.000 A 
ATOM      9  I   UNL     1       6.386   6.386  17.271  0.00  0.00    +0.000 I 
ATOM     10  C   UNL     1       4.365   4.066  17.760  0.00  0.00    +0.000 A 
ATOM     11  C   UNL     1       3.224   3.500  18.344  0.00  0.00    +0.000 A 
ENDROOT
BRANCH   1  12
ATOM     12  N   UNL     1       3.699   1.107  18.276  0.00  0.00    +0.000 NA
ATOM     13  H   UNL     1       3.261   0.162  18.217  0.00  0.00    +0.000 HD
ATOM     14  H   UNL     1       4.139   1.215  19.220  0.00  0.00    +0.000 HD
ENDBRANCH   1  12
BRANCH  10  15
ATOM     15  O   UNL     1       5.112   3.327  16.911  0.00  0.00    +0.000 OA
ATOM     16  H   UNL     1       4.811   2.492  16.522  0.00  0.00    +0.000 HD
ENDBRANCH  10  15
TORSDOF 2
ENDMDL
MODEL 5
REMARK VINA RESULT:      -6.0      2.652      3.926
REMARK  Name = 
REMARK  2 active torsions:
REMARK  status: ('A' for Active; 'I' for Inactive)
REMARK    1  A    between atoms: N_1  and  C_2
REMARK    2  A    between atoms: C_11  and  O_12
REMARK                            x       y       z     vdW  Elec       q    Type
REMARK                         _______ _______ _______ _____ _____    ______ ____
ROOT
ATOM      1  C   UNL     1       2.574   2.935  20.390  0.00  0.00    +0.000 C 
ATOM      2  C   UNL     1       1.339   3.718  20.881  0.00  0.00    +0.000 C 
ATOM      3  C   UNL     1       1.236   4.981  20.016  0.00  0.00    +0.000 C 
ATOM      4  C   UNL     1       2.617   5.125  19.481  0.00  0.00    +0.000 A 
ATOM      5  C   UNL     1       3.140   6.203  18.769  0.00  0.00    +0.000 A 
ATOM      6 CL   UNL     1       2.185   7.653  18.483  0.00  0.00    +0.000 Cl
ATOM      7  C   UNL     1       4.445   6.113  18.259  0.00  0.00    +0.000 A 
ATOM      8  C   UNL     1       5.207   4.946  18.451  0.00  0.00    +0.000 A 
ATOM      9  I   UNL     1       7.155   4.894  17.620  0.00  0.00    +0.000 I 
ATOM     10  C   UNL     1       4.655   3.853  19.159  0.00  0.00    +0.000 A 
ATOM     11  C   UNL     1       3.358   3.979  19.673  0.00  0.00    +0.000 A 
ENDROOT
BRANCH   1  12
ATOM     12  N   UNL     1       3.334   2.373  21.511  0.00  0.00    +0.000 NA
ATOM     13  H   UNL     1       2.904   2.673  22.413  0.00  0.00    +0.000 HD
ATOM     14  H   UNL     1       4.320   2.726  21.476  0.00  0.00    +0.000 HD
ENDBRANCH   1  12
BRANCH  10  15
ATOM     15  O   UNL     1       5.334   2.701  19.347  0.00  0.00    +0.000 OA
ATOM     16  H   UNL     1       6.064   2.608  19.978  0.00  0.00    +0.000 HD
ENDBRANCH  10  15
TORSDOF 2
ENDMDL
MODEL 6
REMARK VINA RESULT:      -5.8      2.505      3.805
REMARK  Name = 
REMARK  2 active torsions:
REMARK  status: ('A' for Active; 'I' for Inactive)
REMARK    1  A    between atoms: N_1  and  C_2
REMARK    2  A    between atoms: C_11  and  O_12
REMARK                            x       y       z     vdW  Elec       q    Type
REMARK                         _______ _______ _______ _____ _____    ______ ____
ROOT
ATOM      1  C   UNL     1       2.720   3.149  20.102  0.00  0.00    +0.000 C 
ATOM      2  C   UNL     1       2.007   4.032  21.147  0.00  0.00    +0.000 C 
ATOM      3  C   UNL     1       1.723   5.381  20.475  0.00  0.00    +0.000 C 
ATOM      4  C   UNL     1       2.696   5.397  19.349  0.00  0.00    +0.000 A 
ATOM      5  C   UNL     1       2.996   6.466  18.506  0.00  0.00    +0.000 A 
ATOM      6 CL   UNL     1       2.274   8.051  18.755  0.00  0.00    +0.000 Cl
ATOM      7  C   UNL     1       3.875   6.259  17.431  0.00  0.00    +0.000 A 
ATOM      8  C   UNL     1       4.434   4.988  17.201  0.00  0.00    +0.000 A 
ATOM      9  I   UNL     1       5.728   4.768  15.538  0.00  0.00    +0.000 I 
ATOM     10  C   UNL     1       4.104   3.910  18.054  0.00  0.00    +0.000 A 
ATOM     11  C   UNL     1       3.239   4.150  19.129  0.00  0.00    +0.000 A 
ENDROOT
BRANCH   1  12
ATOM     12  N   UNL     1       3.812   2.377  20.706  0.00  0.00    +0.000 NA
ATOM     13  H   UNL     1       3.443   1.471  21.068  0.00  0.00    +0.000 HD
ATOM     14  H   UNL     1       4.220   2.917  21.506  0.00  0.00    +0.000 HD
ENDBRANCH   1  12
BRANCH  10  15
ATOM     15  O   UNL     1       4.591   2.665  17.860  0.00  0.00    +0.000 OA
ATOM     16  H   UNL     1       4.659   2.001  18.563  0.00  0.00    +0.000 HD
ENDBRANCH  10  15
TORSDOF 2
ENDMDL
MODEL 7
REMARK VINA RESULT:      -5.8      2.616      3.390
REMARK  Name = 
REMARK  2 active torsions:
REMARK  status: ('A' for Active; 'I' for Inactive)
REMARK    1  A    between atoms: N_1  and  C_2
REMARK    2  A    between atoms: C_11  and  O_12
REMARK                            x       y       z     vdW  Elec       q    Type
REMARK                         _______ _______ _______ _____ _____    ______ ____
ROOT
ATOM      1  C   UNL     1       3.407   2.904  17.624  0.00  0.00    +0.000 C 
ATOM      2  C   UNL     1       1.916   3.038  17.994  0.00  0.00    +0.000 C 
ATOM      3  C   UNL     1       1.532   4.507  17.785  0.00  0.00    +0.000 C 
ATOM      4  C   UNL     1       2.848   5.200  17.830  0.00  0.00    +0.000 A 
ATOM      5  C   UNL     1       3.081   6.573  17.865  0.00  0.00    +0.000 A 
ATOM      6 CL   UNL     1       1.748   7.720  17.960  0.00  0.00    +0.000 Cl
ATOM      7  C   UNL     1       4.403   7.042  17.804  0.00  0.00    +0.000 A 
ATOM      8  C   UNL     1       5.476   6.138  17.695  0.00  0.00    +0.000 A 
ATOM      9  I   UNL     1       7.433   6.941  17.582  0.00  0.00    +0.000 I 
ATOM     10  C   UNL     1       5.221   4.748  17.641  0.00  0.00    +0.000 A 
ATOM     11  C   UNL     1       3.894   4.309  17.723  0.00  0.00    +0.000 A 
ENDROOT
BRANCH   1  12
ATOM     12  N   UNL     1       4.117   2.028  18.562  0.00  0.00    +0.000 NA
ATOM     13  H   UNL     1       3.445   1.354  18.990  0.00  0.00    +0.000 HD
ATOM     14  H   UNL     1       4.544   2.605  19.324  0.00  0.00    +0.000 HD
ENDBRANCH   1  12
BRANCH  10  15
ATOM     15  O   UNL     1       6.213   3.840  17.509  0.00  0.00    +0.000 OA
ATOM     16  H   UNL     1       7.125   3.998  17.797  0.00  0.00    +0.000 HD
ENDBRANCH  10  15
TORSDOF 2
ENDMDL
MODEL 8
REMARK VINA RESULT:      -5.5      2.536      3.388
REMARK  Name = 
REMARK  2 active torsions:
REMARK  status: ('A' for Active; 'I' for Inactive)
REMARK    1  A    between atoms: N_1  and  C_2
REMARK    2  A    between atoms: C_11  and  O_12
REMARK                            x       y       z     vdW  Elec       q    Type
REMARK                         _______ _______ _______ _____ _____    ______ ____
ROOT
ATOM      1  C   UNL     1       2.704   2.908  18.517  0.00  0.00    +0.000 C 
ATOM      2  C   UNL     1       1.271   3.464  18.395  0.00  0.00    +0.000 C 
ATOM      3  C   UNL     1       1.385   4.871  17.798  0.00  0.00    +0.000 C 
ATOM      4  C   UNL     1       2.796   5.239  18.093  0.00  0.00    +0.000 A 
ATOM      5  C   UNL     1       3.399   6.485  17.926  0.00  0.00    +0.000 A 
ATOM      6 CL   UNL     1       2.469   7.881  17.396  0.00  0.00    +0.000 Cl
ATOM      7  C   UNL     1       4.776   6.613  18.169  0.00  0.00    +0.000 A 
ATOM      8  C   UNL     1       5.538   5.497  18.561  0.00  0.00    +0.000 A 
ATOM      9  I   UNL     1       7.614   5.784  18.877  0.00  0.00    +0.000 I 
ATOM     10  C   UNL     1       4.915   4.236  18.708  0.00  0.00    +0.000 A 
ATOM     11  C   UNL     1       3.537   4.142  18.477  0.00  0.00    +0.000 A 
ENDROOT
BRANCH   1  12
ATOM     12  N   UNL     1       2.893   2.178  19.775  0.00  0.00    +0.000 NA
ATOM     13  H   UNL     1       1.963   1.939  20.185  0.00  0.00    +0.000 HD
ATOM     14  H   UNL     1       3.414   2.782  20.454  0.00  0.00    +0.000 HD
ENDBRANCH   1  12
BRANCH  10  15
ATOM     15  O   UNL     1       5.607   3.129  19.055  0.00  0.00    +0.000 OA
ATOM     16  H   UNL     1       5.894   2.456  18.419  0.00  0.00    +0.000 HD
ENDBRANCH  10  15
TORSDOF 2
ENDMDL
MODEL 9
REMARK VINA RESULT:      -5.5      3.546      4.662
REMARK  Name = 
REMARK  2 active torsions:
REMARK  status: ('A' for Active; 'I' for Inactive)
REMARK    1  A    between atoms: N_1  and  C_2
REMARK    2  A    between atoms: C_11  and  O_12
REMARK                            x       y       z     vdW  Elec       q    Type
REMARK                         _______ _______ _______ _____ _____    ______ ____
ROOT
ATOM      1  C   UNL     1       2.672   6.826  19.650  0.00  0.00    +0.000 C 
ATOM      2  C   UNL     1       1.528   6.192  20.467  0.00  0.00    +0.000 C 
ATOM      3  C   UNL     1       1.698   4.671  20.372  0.00  0.00    +0.000 C 
ATOM      4  C   UNL     1       2.539   4.511  19.155  0.00  0.00    +0.000 A 
ATOM      5  C   UNL     1       2.861   3.325  18.498  0.00  0.00    +0.000 A 
ATOM      6 CL   UNL     1       2.187   1.785  19.020  0.00  0.00    +0.000 Cl
ATOM      7  C   UNL     1       3.754   3.366  17.416  0.00  0.00    +0.000 A 
ATOM      8  C   UNL     1       4.327   4.585  17.009  0.00  0.00    +0.000 A 
ATOM      9  I   UNL     1       5.685   4.542  15.384  0.00  0.00    +0.000 I 
ATOM     10  C   UNL     1       4.005   5.778  17.698  0.00  0.00    +0.000 A 
ATOM     11  C   UNL     1       3.096   5.709  18.762  0.00  0.00    +0.000 A 
ENDROOT
BRANCH   1  12
ATOM     12  N   UNL     1       2.203   7.977  18.872  0.00  0.00    +0.000 NA
ATOM     13  H   UNL     1       1.572   8.565  19.460  0.00  0.00    +0.000 HD
ATOM     14  H   UNL     1       1.667   7.639  18.038  0.00  0.00    +0.000 HD
ENDBRANCH   1  12
BRANCH  10  15
ATOM     15  O   UNL     1       4.548   6.969  17.365  0.00  0.00    +0.000 OA
ATOM     16  H   UNL     1       4.033   7.783  17.266  0.00  0.00    +0.000 HD
ENDBRANCH  10  15
TORSDOF 2
ENDMDL
