MODEL 1
REMARK VINA RESULT:      -7.3      0.000      0.000
REMARK  Name = 
REMARK  6 active torsions:
REMARK  status: ('A' for Active; 'I' for Inactive)
REMARK    1  A    between atoms: C_1  and  O_2
REMARK    2  A    between atoms: O_2  and  C_3
REMARK    3  A    between atoms: C_9  and  C_10
REMARK    4  A    between atoms: C_10  and  N_11
REMARK    5  A    between atoms: C_18  and  O_19
REMARK    6  A    between atoms: O_19  and  C_20
REMARK                            x       y       z     vdW  Elec       q    Type
REMARK                         _______ _______ _______ _____ _____    ______ ____
ROOT
ATOM      1  C   UNL     1       0.844  14.335  18.977  0.00  0.00    +0.000 A 
ATOM      2  C   UNL     1      -0.332  13.615  18.896  0.00  0.00    +0.000 A 
ATOM      3  C   UNL     1      -0.302  12.377  19.493  0.00  0.00    +0.000 A 
ATOM      4  N   UNL     1       0.053  11.279  18.786  0.00  0.00    +0.000 NA
ATOM      5  C   UNL     1       0.469  10.216  19.515  0.00  0.00    +0.000 A 
ATOM      6  C   UNL     1       0.264  10.090  20.879  0.00  0.00    +0.000 A 
ATOM      7  C   UNL     1      -0.099  11.230  21.556  0.00  0.00    +0.000 A 
ATOM      8  C   UNL     1       0.082  12.409  20.819  0.00  0.00    +0.000 A 
ATOM      9  C   UNL     1       1.258  13.161  20.987  0.00  0.00    +0.000 A 
ATOM     10  C   UNL     1       1.778  13.824  19.863  0.00  0.00    +0.000 A 
ATOM     11  C   UNL     1       0.529   8.674  21.297  0.00  0.00    +0.000 C 
ATOM     12  N   UNL     1       1.243   8.157  20.114  0.00  0.00    +0.000 N 
ATOM     13  C   UNL     1       1.289   9.071  19.100  0.00  0.00    +0.000 A 
ATOM     14  C   UNL     1       2.149   9.000  18.089  0.00  0.00    +0.000 A 
ATOM     15  C   UNL     1       2.979   7.774  18.005  0.00  0.00    +0.000 A 
ATOM     16  C   UNL     1       3.953   7.633  17.009  0.00  0.00    +0.000 A 
ATOM     17  C   UNL     1       4.652   6.430  16.876  0.00  0.00    +0.000 A 
ATOM     18  C   UNL     1       4.391   5.364  17.739  0.00  0.00    +0.000 A 
ATOM     19  C   UNL     1       3.478   5.517  18.782  0.00  0.00    +0.000 A 
ATOM     20  C   UNL     1       2.793   6.726  18.929  0.00  0.00    +0.000 A 
ATOM     21  C   UNL     1       1.902   6.944  20.104  0.00  0.00    +0.000 A 
ATOM     22  O   UNL     1       1.818   6.113  21.005  0.00  0.00    +0.000 OA
ENDROOT
BRANCH   1  24
ATOM     23  C   UNL     1       0.711  16.704  18.860  0.00  0.00    +0.000 C 
ATOM     24  O   UNL     1       0.929  15.455  18.210  0.00  0.00    +0.000 OA
ENDBRANCH   1  24
BRANCH  10  25
ATOM     25  O   UNL     1       3.082  13.717  19.452  0.00  0.00    +0.000 OA
ATOM     26  C   UNL     1       3.959  14.798  19.813  0.00  0.00    +0.000 C 
ENDBRANCH  10  25
BRANCH   7  27
ATOM     27  C   UNL     1      -0.926  11.178  22.801  0.00  0.00    +0.000 C 
BRANCH  27  28
ATOM     28  N   UNL     1      -1.787  12.317  23.004  0.00  0.00    +0.000 N 
ATOM     29  C   UNL     1      -1.440  13.491  23.615  0.00  0.00    +0.000 A 
ATOM     30  C   UNL     1      -2.621  14.182  23.746  0.00  0.00    +0.000 A 
ATOM     31  N   UNL     1      -3.666  13.461  23.228  0.00  0.00    +0.000 NA
ATOM     32  C   UNL     1      -3.136  12.337  22.803  0.00  0.00    +0.000 A 
ENDBRANCH  27  28
ENDBRANCH   7  27
TORSDOF 4
ENDMDL
MODEL 2
REMARK VINA RESULT:      -7.3      1.282      1.777
REMARK  Name = 
REMARK  6 active torsions:
REMARK  status: ('A' for Active; 'I' for Inactive)
REMARK    1  A    between atoms: C_1  and  O_2
REMARK    2  A    between atoms: O_2  and  C_3
REMARK    3  A    between atoms: C_9  and  C_10
REMARK    4  A    between atoms: C_10  and  N_11
REMARK    5  A    between atoms: C_18  and  O_19
REMARK    6  A    between atoms: O_19  and  C_20
REMARK                            x       y       z     vdW  Elec       q    Type
REMARK                         _______ _______ _______ _____ _____    ______ ____
ROOT
ATOM      1  C   UNL     1       0.848  15.798  18.857  0.00  0.00    +0.000 A 
ATOM      2  C   UNL     1      -0.417  15.246  18.916  0.00  0.00    +0.000 A 
ATOM      3  C   UNL     1      -0.520  14.098  19.665  0.00  0.00    +0.000 A 
ATOM      4  N   UNL     1      -0.356  12.883  19.092  0.00  0.00    +0.000 NA
ATOM      5  C   UNL     1      -0.045  11.869  19.936  0.00  0.00    +0.000 A 
ATOM      6  C   UNL     1      -0.189  11.940  21.311  0.00  0.00    +0.000 A 
ATOM      7  C   UNL     1      -0.357  13.194  21.849  0.00  0.00    +0.000 A 
ATOM      8  C   UNL     1      -0.061  14.237  20.960  0.00  0.00    +0.000 A 
ATOM      9  C   UNL     1       1.213  14.831  20.984  0.00  0.00    +0.000 A 
ATOM     10  C   UNL     1       1.753  15.273  19.766  0.00  0.00    +0.000 A 
ATOM     11  C   UNL     1      -0.093  10.563  21.897  0.00  0.00    +0.000 C 
ATOM     12  N   UNL     1       0.477   9.811  20.763  0.00  0.00    +0.000 N 
ATOM     13  C   UNL     1       0.589  10.578  19.639  0.00  0.00    +0.000 A 
ATOM     14  C   UNL     1       1.374  10.265  18.613  0.00  0.00    +0.000 A 
ATOM     15  C   UNL     1       2.025   8.933  18.655  0.00  0.00    +0.000 A 
ATOM     16  C   UNL     1       2.914   8.536  17.649  0.00  0.00    +0.000 A 
ATOM     17  C   UNL     1       3.436   7.240  17.645  0.00  0.00    +0.000 A 
ATOM     18  C   UNL     1       3.084   6.335  18.647  0.00  0.00    +0.000 A 
ATOM     19  C   UNL     1       2.260   6.741  19.696  0.00  0.00    +0.000 A 
ATOM     20  C   UNL     1       1.753   8.042  19.713  0.00  0.00    +0.000 A 
ATOM     21  C   UNL     1       0.966   8.525  20.884  0.00  0.00    +0.000 A 
ATOM     22  O   UNL     1       0.822   7.830  21.887  0.00  0.00    +0.000 OA
ENDROOT
BRANCH   1  24
ATOM     23  C   UNL     1       1.283  18.099  18.463  0.00  0.00    +0.000 C 
ATOM     24  O   UNL     1       1.039  16.793  17.950  0.00  0.00    +0.000 OA
ENDBRANCH   1  24
BRANCH  10  25
ATOM     25  O   UNL     1       3.006  14.935  19.321  0.00  0.00    +0.000 OA
ATOM     26  C   UNL     1       3.081  13.859  18.370  0.00  0.00    +0.000 C 
ENDBRANCH  10  25
BRANCH   7  27
ATOM     27  C   UNL     1      -1.113  13.411  23.121  0.00  0.00    +0.000 C 
BRANCH  27  28
ATOM     28  N   UNL     1      -2.532  13.172  23.032  0.00  0.00    +0.000 N 
ATOM     29  C   UNL     1      -3.448  13.979  22.414  0.00  0.00    +0.000 A 
ATOM     30  C   UNL     1      -4.670  13.449  22.754  0.00  0.00    +0.000 A 
ATOM     31  N   UNL     1      -4.516  12.345  23.553  0.00  0.00    +0.000 NA
ATOM     32  C   UNL     1      -3.218  12.212  23.715  0.00  0.00    +0.000 A 
ENDBRANCH  27  28
ENDBRANCH   7  27
TORSDOF 4
ENDMDL
MODEL 3
REMARK VINA RESULT:      -7.0      4.301      6.423
REMARK  Name = 
REMARK  6 active torsions:
REMARK  status: ('A' for Active; 'I' for Inactive)
REMARK    1  A    between atoms: C_1  and  O_2
REMARK    2  A    between atoms: O_2  and  C_3
REMARK    3  A    between atoms: C_9  and  C_10
REMARK    4  A    between atoms: C_10  and  N_11
REMARK    5  A    between atoms: C_18  and  O_19
REMARK    6  A    between atoms: O_19  and  C_20
REMARK                            x       y       z     vdW  Elec       q    Type
REMARK                         _______ _______ _______ _____ _____    ______ ____
ROOT
ATOM      1  C   UNL     1      -4.429  14.357  23.642  0.00  0.00    +0.000 A 
ATOM      2  C   UNL     1      -4.463  15.097  22.476  0.00  0.00    +0.000 A 
ATOM      3  C   UNL     1      -4.480  14.360  21.315  0.00  0.00    +0.000 A 
ATOM      4  N   UNL     1      -3.325  14.018  20.698  0.00  0.00    +0.000 NA
ATOM      5  C   UNL     1      -3.399  12.967  19.846  0.00  0.00    +0.000 A 
ATOM      6  C   UNL     1      -4.588  12.450  19.362  0.00  0.00    +0.000 A 
ATOM      7  C   UNL     1      -5.736  12.826  20.018  0.00  0.00    +0.000 A 
ATOM      8  C   UNL     1      -5.506  13.438  21.259  0.00  0.00    +0.000 A 
ATOM      9  C   UNL     1      -5.560  12.668  22.434  0.00  0.00    +0.000 A 
ATOM     10  C   UNL     1      -4.685  13.005  23.479  0.00  0.00    +0.000 A 
ATOM     11  C   UNL     1      -4.306  11.544  18.201  0.00  0.00    +0.000 C 
ATOM     12  N   UNL     1      -2.852  11.339  18.348  0.00  0.00    +0.000 N 
ATOM     13  C   UNL     1      -2.324  12.096  19.354  0.00  0.00    +0.000 A 
ATOM     14  C   UNL     1      -1.145  11.848  19.917  0.00  0.00    +0.000 A 
ATOM     15  C   UNL     1      -0.320  10.785  19.293  0.00  0.00    +0.000 A 
ATOM     16  C   UNL     1       0.910  10.412  19.849  0.00  0.00    +0.000 A 
ATOM     17  C   UNL     1       1.725   9.487  19.191  0.00  0.00    +0.000 A 
ATOM     18  C   UNL     1       1.316   8.921  17.982  0.00  0.00    +0.000 A 
ATOM     19  C   UNL     1       0.061   9.226  17.458  0.00  0.00    +0.000 A 
ATOM     20  C   UNL     1      -0.764  10.136  18.124  0.00  0.00    +0.000 A 
ATOM     21  C   UNL     1      -2.152  10.384  17.638  0.00  0.00    +0.000 A 
ATOM     22  O   UNL     1      -2.627   9.739  16.707  0.00  0.00    +0.000 OA
ENDROOT
BRANCH   1  24
ATOM     23  C   UNL     1      -4.256  16.461  24.730  0.00  0.00    +0.000 C 
ATOM     24  O   UNL     1      -4.182  15.039  24.792  0.00  0.00    +0.000 OA
ENDBRANCH   1  24
BRANCH  10  25
ATOM     25  O   UNL     1      -3.862  12.103  24.104  0.00  0.00    +0.000 OA
ATOM     26  C   UNL     1      -2.584  11.866  23.489  0.00  0.00    +0.000 C 
ENDBRANCH  10  25
BRANCH   7  27
ATOM     27  C   UNL     1      -7.057  12.896  19.319  0.00  0.00    +0.000 C 
BRANCH  27  28
ATOM     28  N   UNL     1      -7.150  13.910  18.298  0.00  0.00    +0.000 N 
ATOM     29  C   UNL     1      -7.185  13.693  16.948  0.00  0.00    +0.000 A 
ATOM     30  C   UNL     1      -7.080  14.945  16.388  0.00  0.00    +0.000 A 
ATOM     31  N   UNL     1      -6.989  15.906  17.361  0.00  0.00    +0.000 NA
ATOM     32  C   UNL     1      -7.018  15.252  18.500  0.00  0.00    +0.000 A 
ENDBRANCH  27  28
ENDBRANCH   7  27
TORSDOF 4
ENDMDL
MODEL 4
REMARK VINA RESULT:      -6.7      6.041      9.342
REMARK  Name = 
REMARK  6 active torsions:
REMARK  status: ('A' for Active; 'I' for Inactive)
REMARK    1  A    between atoms: C_1  and  O_2
REMARK    2  A    between atoms: O_2  and  C_3
REMARK    3  A    between atoms: C_9  and  C_10
REMARK    4  A    between atoms: C_10  and  N_11
REMARK    5  A    between atoms: C_18  and  O_19
REMARK    6  A    between atoms: O_19  and  C_20
REMARK                            x       y       z     vdW  Elec       q    Type
REMARK                         _______ _______ _______ _____ _____    ______ ____
ROOT
ATOM      1  C   UNL     1      10.878  12.282  19.578  0.00  0.00    +0.000 A 
ATOM      2  C   UNL     1      10.912  13.235  20.578  0.00  0.00    +0.000 A 
ATOM      3  C   UNL     1       9.731  13.408  21.261  0.00  0.00    +0.000 A 
ATOM      4  N   UNL     1       8.824  14.324  20.849  0.00  0.00    +0.000 NA
ATOM      5  C   UNL     1       7.555  14.137  21.286  0.00  0.00    +0.000 A 
ATOM      6  C   UNL     1       7.217  13.290  22.328  0.00  0.00    +0.000 A 
ATOM      7  C   UNL     1       8.170  12.378  22.716  0.00  0.00    +0.000 A 
ATOM      8  C   UNL     1       9.228  12.244  21.806  0.00  0.00    +0.000 A 
ATOM      9  C   UNL     1       9.199  11.211  20.853  0.00  0.00    +0.000 A 
ATOM     10  C   UNL     1       9.757  11.468  19.590  0.00  0.00    +0.000 A 
ATOM     11  C   UNL     1       5.814  13.578  22.773  0.00  0.00    +0.000 C 
ATOM     12  N   UNL     1       5.319  14.390  21.645  0.00  0.00    +0.000 N 
ATOM     13  C   UNL     1       6.298  14.653  20.730  0.00  0.00    +0.000 A 
ATOM     14  C   UNL     1       6.051  15.046  19.484  0.00  0.00    +0.000 A 
ATOM     15  C   UNL     1       4.639  15.355  19.151  0.00  0.00    +0.000 A 
ATOM     16  C   UNL     1       4.271  15.721  17.851  0.00  0.00    +0.000 A 
ATOM     17  C   UNL     1       2.958  16.113  17.577  0.00  0.00    +0.000 A 
ATOM     18  C   UNL     1       2.002  16.134  18.594  0.00  0.00    +0.000 A 
ATOM     19  C   UNL     1       2.336  15.699  19.875  0.00  0.00    +0.000 A 
ATOM     20  C   UNL     1       3.643  15.288  20.147  0.00  0.00    +0.000 A 
ATOM     21  C   UNL     1       3.987  14.714  21.480  0.00  0.00    +0.000 A 
ATOM     22  O   UNL     1       3.123  14.509  22.329  0.00  0.00    +0.000 OA
ENDROOT
BRANCH   1  24
ATOM     23  C   UNL     1      11.971  13.195  17.678  0.00  0.00    +0.000 C 
ATOM     24  O   UNL     1      11.945  12.242  18.736  0.00  0.00    +0.000 OA
ENDBRANCH   1  24
BRANCH  10  25
ATOM     25  O   UNL     1       9.102  11.238  18.407  0.00  0.00    +0.000 OA
ATOM     26  C   UNL     1       8.590   9.909  18.205  0.00  0.00    +0.000 C 
ENDBRANCH  10  25
BRANCH   7  27
ATOM     27  C   UNL     1       8.241  11.861  24.117  0.00  0.00    +0.000 C 
BRANCH  27  28
ATOM     28  N   UNL     1       8.065  12.859  25.142  0.00  0.00    +0.000 N 
ATOM     29  C   UNL     1       8.808  13.997  25.295  0.00  0.00    +0.000 A 
ATOM     30  C   UNL     1       8.403  14.523  26.500  0.00  0.00    +0.000 A 
ATOM     31  N   UNL     1       7.435  13.738  27.072  0.00  0.00    +0.000 NA
ATOM     32  C   UNL     1       7.264  12.736  26.239  0.00  0.00    +0.000 A 
ENDBRANCH  27  28
ENDBRANCH   7  27
TORSDOF 4
ENDMDL
MODEL 5
REMARK VINA RESULT:      -6.6      1.935      3.108
REMARK  Name = 
REMARK  6 active torsions:
REMARK  status: ('A' for Active; 'I' for Inactive)
REMARK    1  A    between atoms: C_1  and  O_2
REMARK    2  A    between atoms: O_2  and  C_3
REMARK    3  A    between atoms: C_9  and  C_10
REMARK    4  A    between atoms: C_10  and  N_11
REMARK    5  A    between atoms: C_18  and  O_19
REMARK    6  A    between atoms: O_19  and  C_20
REMARK                            x       y       z     vdW  Elec       q    Type
REMARK                         _______ _______ _______ _____ _____    ______ ____
ROOT
ATOM      1  C   UNL     1      -0.167  17.012  19.633  0.00  0.00    +0.000 A 
ATOM      2  C   UNL     1      -1.404  16.423  19.811  0.00  0.00    +0.000 A 
ATOM      3  C   UNL     1      -1.396  15.249  20.527  0.00  0.00    +0.000 A 
ATOM      4  N   UNL     1      -1.267  14.058  19.898  0.00  0.00    +0.000 NA
ATOM      5  C   UNL     1      -0.841  13.027  20.667  0.00  0.00    +0.000 A 
ATOM      6  C   UNL     1      -0.833  13.051  22.051  0.00  0.00    +0.000 A 
ATOM      7  C   UNL     1      -0.970  14.281  22.648  0.00  0.00    +0.000 A 
ATOM      8  C   UNL     1      -0.800  15.360  21.768  0.00  0.00    +0.000 A 
ATOM      9  C   UNL     1       0.454  15.988  21.672  0.00  0.00    +0.000 A 
ATOM     10  C   UNL     1       0.845  16.483  20.417  0.00  0.00    +0.000 A 
ATOM     11  C   UNL     1      -0.639  11.659  22.575  0.00  0.00    +0.000 C 
ATOM     12  N   UNL     1      -0.180  10.959  21.360  0.00  0.00    +0.000 N 
ATOM     13  C   UNL     1      -0.213  11.764  20.258  0.00  0.00    +0.000 A 
ATOM     14  C   UNL     1       0.461  11.505  19.141  0.00  0.00    +0.000 A 
ATOM     15  C   UNL     1       1.145  10.191  19.066  0.00  0.00    +0.000 A 
ATOM     16  C   UNL     1       1.926   9.852  17.954  0.00  0.00    +0.000 A 
ATOM     17  C   UNL     1       2.475   8.571  17.848  0.00  0.00    +0.000 A 
ATOM     18  C   UNL     1       2.258   7.625  18.851  0.00  0.00    +0.000 A 
ATOM     19  C   UNL     1       1.546   7.975  19.998  0.00  0.00    +0.000 A 
ATOM     20  C   UNL     1       1.013   9.261  20.115  0.00  0.00    +0.000 A 
ATOM     21  C   UNL     1       0.349   9.684  21.382  0.00  0.00    +0.000 A 
ATOM     22  O   UNL     1       0.334   8.954  22.370  0.00  0.00    +0.000 OA
ENDROOT
BRANCH   1  24
ATOM     23  C   UNL     1      -0.309  17.723  17.372  0.00  0.00    +0.000 C 
ATOM     24  O   UNL     1      -0.102  18.039  18.745  0.00  0.00    +0.000 OA
ENDBRANCH   1  24
BRANCH  10  25
ATOM     25  O   UNL     1       2.049  16.194  19.826  0.00  0.00    +0.000 OA
ATOM     26  C   UNL     1       2.271  14.821  19.460  0.00  0.00    +0.000 C 
ENDBRANCH  10  25
BRANCH   7  27
ATOM     27  C   UNL     1      -1.585  14.437  24.002  0.00  0.00    +0.000 C 
BRANCH  27  28
ATOM     28  N   UNL     1      -2.896  15.037  24.007  0.00  0.00    +0.000 N 
ATOM     29  C   UNL     1      -3.273  16.144  24.717  0.00  0.00    +0.000 A 
ATOM     30  C   UNL     1      -4.637  16.217  24.558  0.00  0.00    +0.000 A 
ATOM     31  N   UNL     1      -5.089  15.190  23.770  0.00  0.00    +0.000 NA
ATOM     32  C   UNL     1      -4.021  14.488  23.466  0.00  0.00    +0.000 A 
ENDBRANCH  27  28
ENDBRANCH   7  27
TORSDOF 4
ENDMDL
MODEL 6
REMARK VINA RESULT:      -6.5      2.557      4.240
REMARK  Name = 
REMARK  6 active torsions:
REMARK  status: ('A' for Active; 'I' for Inactive)
REMARK    1  A    between atoms: C_1  and  O_2
REMARK    2  A    between atoms: O_2  and  C_3
REMARK    3  A    between atoms: C_9  and  C_10
REMARK    4  A    between atoms: C_10  and  N_11
REMARK    5  A    between atoms: C_18  and  O_19
REMARK    6  A    between atoms: O_19  and  C_20
REMARK                            x       y       z     vdW  Elec       q    Type
REMARK                         _______ _______ _______ _____ _____    ______ ____
ROOT
ATOM      1  C   UNL     1       1.340  17.170  18.422  0.00  0.00    +0.000 A 
ATOM      2  C   UNL     1      -0.024  16.960  18.491  0.00  0.00    +0.000 A 
ATOM      3  C   UNL     1      -0.436  16.116  19.496  0.00  0.00    +0.000 A 
ATOM      4  N   UNL     1      -0.557  14.787  19.273  0.00  0.00    +0.000 NA
ATOM      5  C   UNL     1      -0.538  13.999  20.375  0.00  0.00    +0.000 A 
ATOM      6  C   UNL     1      -0.709  14.474  21.664  0.00  0.00    +0.000 A 
ATOM      7  C   UNL     1      -0.580  15.831  21.843  0.00  0.00    +0.000 A 
ATOM      8  C   UNL     1      -0.003  16.495  20.751  0.00  0.00    +0.000 A 
ATOM      9  C   UNL     1       1.377  16.764  20.751  0.00  0.00    +0.000 A 
ATOM     10  C   UNL     1       2.053  16.720  19.521  0.00  0.00    +0.000 A 
ATOM     11  C   UNL     1      -0.978  13.326  22.590  0.00  0.00    +0.000 C 
ATOM     12  N   UNL     1      -0.572  12.182  21.751  0.00  0.00    +0.000 N 
ATOM     13  C   UNL     1      -0.234  12.567  20.485  0.00  0.00    +0.000 A 
ATOM     14  C   UNL     1       0.485  11.814  19.658  0.00  0.00    +0.000 A 
ATOM     15  C   UNL     1       0.784  10.432  20.106  0.00  0.00    +0.000 A 
ATOM     16  C   UNL     1       1.583   9.583  19.331  0.00  0.00    +0.000 A 
ATOM     17  C   UNL     1       1.767   8.251  19.712  0.00  0.00    +0.000 A 
ATOM     18  C   UNL     1       1.165   7.759  20.872  0.00  0.00    +0.000 A 
ATOM     19  C   UNL     1       0.431   8.614  21.693  0.00  0.00    +0.000 A 
ATOM     20  C   UNL     1       0.262   9.951  21.324  0.00  0.00    +0.000 A 
ATOM     21  C   UNL     1      -0.422  10.902  22.246  0.00  0.00    +0.000 A 
ATOM     22  O   UNL     1      -0.770  10.560  23.374  0.00  0.00    +0.000 OA
ENDROOT
BRANCH   1  24
ATOM     23  C   UNL     1       0.867  18.583  16.572  0.00  0.00    +0.000 C 
ATOM     24  O   UNL     1       1.804  17.808  17.314  0.00  0.00    +0.000 OA
ENDBRANCH   1  24
BRANCH  10  25
ATOM     25  O   UNL     1       3.198  15.996  19.307  0.00  0.00    +0.000 OA
ATOM     26  C   UNL     1       3.268  14.706  19.938  0.00  0.00    +0.000 C 
ENDBRANCH  10  25
BRANCH   7  27
ATOM     27  C   UNL     1      -1.303  16.555  22.934  0.00  0.00    +0.000 C 
BRANCH  27  28
ATOM     28  N   UNL     1      -0.712  16.426  24.243  0.00  0.00    +0.000 N 
ATOM     29  C   UNL     1      -1.305  15.872  25.344  0.00  0.00    +0.000 A 
ATOM     30  C   UNL     1      -0.446  16.148  26.382  0.00  0.00    +0.000 A 
ATOM     31  N   UNL     1       0.647  16.845  25.936  0.00  0.00    +0.000 NA
ATOM     32  C   UNL     1       0.451  17.011  24.647  0.00  0.00    +0.000 A 
ENDBRANCH  27  28
ENDBRANCH   7  27
TORSDOF 4
ENDMDL
MODEL 7
REMARK VINA RESULT:      -6.4      2.352      7.000
REMARK  Name = 
REMARK  6 active torsions:
REMARK  status: ('A' for Active; 'I' for Inactive)
REMARK    1  A    between atoms: C_1  and  O_2
REMARK    2  A    between atoms: O_2  and  C_3
REMARK    3  A    between atoms: C_9  and  C_10
REMARK    4  A    between atoms: C_10  and  N_11
REMARK    5  A    between atoms: C_18  and  O_19
REMARK    6  A    between atoms: O_19  and  C_20
REMARK                            x       y       z     vdW  Elec       q    Type
REMARK                         _______ _______ _______ _____ _____    ______ ____
ROOT
ATOM      1  C   UNL     1       0.987   8.561  20.932  0.00  0.00    +0.000 A 
ATOM      2  C   UNL     1       0.261   9.370  21.785  0.00  0.00    +0.000 A 
ATOM      3  C   UNL     1      -0.018  10.627  21.303  0.00  0.00    +0.000 A 
ATOM      4  N   UNL     1       0.822  11.660  21.541  0.00  0.00    +0.000 NA
ATOM      5  C   UNL     1       0.713  12.717  20.701  0.00  0.00    +0.000 A 
ATOM      6  C   UNL     1      -0.364  12.919  19.854  0.00  0.00    +0.000 A 
ATOM      7  C   UNL     1      -1.193  11.843  19.643  0.00  0.00    +0.000 A 
ATOM      8  C   UNL     1      -0.660  10.622  20.080  0.00  0.00    +0.000 A 
ATOM      9  C   UNL     1       0.003   9.785  19.165  0.00  0.00    +0.000 A 
ATOM     10  C   UNL     1       1.092   9.033  19.634  0.00  0.00    +0.000 A 
ATOM     11  C   UNL     1      -0.335  14.325  19.333  0.00  0.00    +0.000 C 
ATOM     12  N   UNL     1       1.040  14.730  19.683  0.00  0.00    +0.000 N 
ATOM     13  C   UNL     1       1.691  13.772  20.406  0.00  0.00    +0.000 A 
ATOM     14  C   UNL     1       3.013  13.727  20.541  0.00  0.00    +0.000 A 
ATOM     15  C   UNL     1       3.777  14.877  19.998  0.00  0.00    +0.000 A 
ATOM     16  C   UNL     1       5.176  14.894  20.042  0.00  0.00    +0.000 A 
ATOM     17  C   UNL     1       5.877  16.029  19.626  0.00  0.00    +0.000 A 
ATOM     18  C   UNL     1       5.189  17.150  19.156  0.00  0.00    +0.000 A 
ATOM     19  C   UNL     1       3.801  17.118  19.036  0.00  0.00    +0.000 A 
ATOM     20  C   UNL     1       3.099  15.976  19.433  0.00  0.00    +0.000 A 
ATOM     21  C   UNL     1       1.628  15.883  19.205  0.00  0.00    +0.000 A 
ATOM     22  O   UNL     1       1.021  16.757  18.591  0.00  0.00    +0.000 OA
ENDROOT
BRANCH   1  24
ATOM     23  C   UNL     1       1.454   6.254  20.618  0.00  0.00    +0.000 C 
ATOM     24  O   UNL     1       1.477   7.405  21.456  0.00  0.00    +0.000 OA
ENDBRANCH   1  24
BRANCH  10  25
ATOM     25  O   UNL     1       2.322   9.014  19.028  0.00  0.00    +0.000 OA
ATOM     26  C   UNL     1       2.389   8.394  17.732  0.00  0.00    +0.000 C 
ENDBRANCH  10  25
BRANCH   7  27
ATOM     27  C   UNL     1      -2.642  12.017  19.314  0.00  0.00    +0.000 C 
BRANCH  27  28
ATOM     28  N   UNL     1      -3.027  11.545  18.007  0.00  0.00    +0.000 N 
ATOM     29  C   UNL     1      -2.185  11.308  16.955  0.00  0.00    +0.000 A 
ATOM     30  C   UNL     1      -3.017  11.065  15.887  0.00  0.00    +0.000 A 
ATOM     31  N   UNL     1      -4.332  11.143  16.268  0.00  0.00    +0.000 NA
ATOM     32  C   UNL     1      -4.307  11.448  17.546  0.00  0.00    +0.000 A 
ENDBRANCH  27  28
ENDBRANCH   7  27
TORSDOF 4
ENDMDL
MODEL 8
REMARK VINA RESULT:      -6.4      2.423      7.124
REMARK  Name = 
REMARK  6 active torsions:
REMARK  status: ('A' for Active; 'I' for Inactive)
REMARK    1  A    between atoms: C_1  and  O_2
REMARK    2  A    between atoms: O_2  and  C_3
REMARK    3  A    between atoms: C_9  and  C_10
REMARK    4  A    between atoms: C_10  and  N_11
REMARK    5  A    between atoms: C_18  and  O_19
REMARK    6  A    between atoms: O_19  and  C_20
REMARK                            x       y       z     vdW  Elec       q    Type
REMARK                         _______ _______ _______ _____ _____    ______ ____
ROOT
ATOM      1  C   UNL     1      -2.662  12.405  21.558  0.00  0.00    +0.000 A 
ATOM      2  C   UNL     1      -2.739  12.607  20.193  0.00  0.00    +0.000 A 
ATOM      3  C   UNL     1      -1.535  12.587  19.529  0.00  0.00    +0.000 A 
ATOM      4  N   UNL     1      -0.831  13.728  19.344  0.00  0.00    +0.000 NA
ATOM      5  C   UNL     1       0.490  13.572  19.086  0.00  0.00    +0.000 A 
ATOM      6  C   UNL     1       1.064  12.369  18.713  0.00  0.00    +0.000 A 
ATOM      7  C   UNL     1       0.312  11.236  18.916  0.00  0.00    +0.000 A 
ATOM      8  C   UNL     1      -0.802  11.437  19.744  0.00  0.00    +0.000 A 
ATOM      9  C   UNL     1      -0.711  11.143  21.116  0.00  0.00    +0.000 A 
ATOM     10  C   UNL     1      -1.432  11.953  22.008  0.00  0.00    +0.000 A 
ATOM     11  C   UNL     1       2.443  12.616  18.178  0.00  0.00    +0.000 C 
ATOM     12  N   UNL     1       2.684  13.996  18.641  0.00  0.00    +0.000 N 
ATOM     13  C   UNL     1       1.585  14.537  19.245  0.00  0.00    +0.000 A 
ATOM     14  C   UNL     1       1.635  15.598  20.044  0.00  0.00    +0.000 A 
ATOM     15  C   UNL     1       2.939  16.300  20.138  0.00  0.00    +0.000 A 
ATOM     16  C   UNL     1       3.106  17.393  20.996  0.00  0.00    +0.000 A 
ATOM     17  C   UNL     1       4.305  18.110  20.994  0.00  0.00    +0.000 A 
ATOM     18  C   UNL     1       5.347  17.738  20.143  0.00  0.00    +0.000 A 
ATOM     19  C   UNL     1       5.222  16.607  19.339  0.00  0.00    +0.000 A 
ATOM     20  C   UNL     1       4.031  15.876  19.354  0.00  0.00    +0.000 A 
ATOM     21  C   UNL     1       3.924  14.602  18.588  0.00  0.00    +0.000 A 
ATOM     22  O   UNL     1       4.894  14.124  18.004  0.00  0.00    +0.000 OA
ENDROOT
BRANCH   1  24
ATOM     23  C   UNL     1      -4.477  13.865  22.019  0.00  0.00    +0.000 C 
ATOM     24  O   UNL     1      -3.792  12.643  22.276  0.00  0.00    +0.000 OA
ENDBRANCH   1  24
BRANCH  10  25
ATOM     25  O   UNL     1      -0.877  12.554  23.110  0.00  0.00    +0.000 OA
ATOM     26  C   UNL     1      -0.784  13.988  23.079  0.00  0.00    +0.000 C 
ENDBRANCH  10  25
BRANCH   7  27
ATOM     27  C   UNL     1       0.470  10.020  18.060  0.00  0.00    +0.000 C 
BRANCH  27  28
ATOM     28  N   UNL     1       1.360   9.017  18.590  0.00  0.00    +0.000 N 
ATOM     29  C   UNL     1       2.207   8.226  17.863  0.00  0.00    +0.000 A 
ATOM     30  C   UNL     1       2.695   7.310  18.766  0.00  0.00    +0.000 A 
ATOM     31  N   UNL     1       2.171   7.531  20.014  0.00  0.00    +0.000 NA
ATOM     32  C   UNL     1       1.359   8.555  19.873  0.00  0.00    +0.000 A 
ENDBRANCH  27  28
ENDBRANCH   7  27
TORSDOF 4
ENDMDL
MODEL 9
REMARK VINA RESULT:      -6.4      6.208      8.775
REMARK  Name = 
REMARK  6 active torsions:
REMARK  status: ('A' for Active; 'I' for Inactive)
REMARK    1  A    between atoms: C_1  and  O_2
REMARK    2  A    between atoms: O_2  and  C_3
REMARK    3  A    between atoms: C_9  and  C_10
REMARK    4  A    between atoms: C_10  and  N_11
REMARK    5  A    between atoms: C_18  and  O_19
REMARK    6  A    between atoms: O_19  and  C_20
REMARK                            x       y       z     vdW  Elec       q    Type
REMARK                         _______ _______ _______ _____ _____    ______ ____
ROOT
ATOM      1  C   UNL     1       6.967  13.731  26.156  0.00  0.00    +0.000 A 
ATOM      2  C   UNL     1       7.186  15.024  25.721  0.00  0.00    +0.000 A 
ATOM      3  C   UNL     1       7.071  15.212  24.364  0.00  0.00    +0.000 A 
ATOM      4  N   UNL     1       8.150  15.090  23.557  0.00  0.00    +0.000 NA
ATOM      5  C   UNL     1       7.887  14.862  22.248  0.00  0.00    +0.000 A 
ATOM      6  C   UNL     1       6.643  15.050  21.669  0.00  0.00    +0.000 A 
ATOM      7  C   UNL     1       5.576  15.172  22.526  0.00  0.00    +0.000 A 
ATOM      8  C   UNL     1       5.862  14.792  23.845  0.00  0.00    +0.000 A 
ATOM      9  C   UNL     1       5.551  13.491  24.278  0.00  0.00    +0.000 A 
ATOM     10  C   UNL     1       6.411  12.886  25.209  0.00  0.00    +0.000 A 
ATOM     11  C   UNL     1       6.779  15.045  20.175  0.00  0.00    +0.000 C 
ATOM     12  N   UNL     1       8.131  14.475  20.015  0.00  0.00    +0.000 N 
ATOM     13  C   UNL     1       8.756  14.285  21.214  0.00  0.00    +0.000 A 
ATOM     14  C   UNL     1       9.803  13.482  21.376  0.00  0.00    +0.000 A 
ATOM     15  C   UNL     1      10.393  12.901  20.145  0.00  0.00    +0.000 A 
ATOM     16  C   UNL     1      11.461  11.999  20.218  0.00  0.00    +0.000 A 
ATOM     17  C   UNL     1      12.076  11.545  19.048  0.00  0.00    +0.000 A 
ATOM     18  C   UNL     1      11.625  11.978  17.800  0.00  0.00    +0.000 A 
ATOM     19  C   UNL     1      10.514  12.816  17.711  0.00  0.00    +0.000 A 
ATOM     20  C   UNL     1       9.886  13.256  18.879  0.00  0.00    +0.000 A 
ATOM     21  C   UNL     1       8.631  14.058  18.798  0.00  0.00    +0.000 A 
ATOM     22  O   UNL     1       8.078  14.272  17.722  0.00  0.00    +0.000 OA
ENDROOT
BRANCH   1  24
ATOM     23  C   UNL     1       8.332  14.236  28.032  0.00  0.00    +0.000 C 
ATOM     24  O   UNL     1       7.293  13.457  27.448  0.00  0.00    +0.000 OA
ENDBRANCH   1  24
BRANCH  10  25
ATOM     25  O   UNL     1       6.954  11.638  25.045  0.00  0.00    +0.000 OA
ATOM     26  C   UNL     1       8.065  11.536  24.137  0.00  0.00    +0.000 C 
ENDBRANCH  10  25
BRANCH   7  27
ATOM     27  C   UNL     1       4.358  15.959  22.162  0.00  0.00    +0.000 C 
BRANCH  27  28
ATOM     28  N   UNL     1       3.477  15.313  21.221  0.00  0.00    +0.000 N 
ATOM     29  C   UNL     1       3.118  13.993  21.228  0.00  0.00    +0.000 A 
ATOM     30  C   UNL     1       2.436  13.807  20.049  0.00  0.00    +0.000 A 
ATOM     31  N   UNL     1       2.369  14.977  19.336  0.00  0.00    +0.000 NA
ATOM     32  C   UNL     1       3.018  15.862  20.060  0.00  0.00    +0.000 A 
ENDBRANCH  27  28
ENDBRANCH   7  27
TORSDOF 4
ENDMDL
