MODEL 1
REMARK VINA RESULT:      -8.1      0.000      0.000
REMARK  Name = 
REMARK  9 active torsions:
REMARK  status: ('A' for Active; 'I' for Inactive)
REMARK    1  A    between atoms: C_1  and  C_2
REMARK    2  A    between atoms: C_5  and  C_6
REMARK    3  A    between atoms: C_8  and  C_10
REMARK    4  A    between atoms: C_13  and  C_14
REMARK    5  A    between atoms: C_17  and  O_18
REMARK    6  A    between atoms: O_18  and  C_19
REMARK    7  A    between atoms: C_19  and  C_20
REMARK    8  A    between atoms: C_20  and  C_21
REMARK    9  A    between atoms: C_21  and  N_22
REMARK                            x       y       z     vdW  Elec       q    Type
REMARK                         _______ _______ _______ _____ _____    ______ ____
ROOT
ATOM      1  C   UNL     1       0.912   9.204  20.784  0.00  0.00    +0.000 A 
ATOM      2  C   UNL     1       0.812  10.543  20.372  0.00  0.00    +0.000 A 
ATOM      3  C   UNL     1       0.173  11.504  21.146  0.00  0.00    +0.000 A 
ATOM      4  C   UNL     1      -0.427  11.144  22.347  0.00  0.00    +0.000 A 
ATOM      5  C   UNL     1      -0.367   9.818  22.768  0.00  0.00    +0.000 A 
ATOM      6  C   UNL     1       0.303   8.857  22.000  0.00  0.00    +0.000 A 
ENDROOT
BRANCH   1  10
ATOM      7  C   UNL     1       3.049   6.319  18.414  0.00  0.00    +0.000 A 
ATOM      8  C   UNL     1       2.730   6.057  19.742  0.00  0.00    +0.000 A 
ATOM      9  C   UNL     1       1.972   6.967  20.466  0.00  0.00    +0.000 A 
ATOM     10  C   UNL     1       1.647   8.234  19.948  0.00  0.00    +0.000 A 
ATOM     11  C   UNL     1       2.088   8.533  18.649  0.00  0.00    +0.000 A 
ATOM     12  C   UNL     1       2.769   7.580  17.881  0.00  0.00    +0.000 A 
BRANCH   7  20
ATOM     13  C   UNL     1       6.480   5.364  19.325  0.00  0.00    +0.000 C 
ATOM     14  C   UNL     1       6.074   6.180  18.098  0.00  0.00    +0.000 C 
ATOM     15  C   UNL     1       7.236   6.405  17.135  0.00  0.00    +0.000 C 
ATOM     16  C   UNL     1       7.075   5.355  16.037  0.00  0.00    +0.000 C 
ATOM     17  C   UNL     1       5.792   4.580  16.364  0.00  0.00    +0.000 C 
ATOM     18  C   UNL     1       5.069   4.159  15.090  0.00  0.00    +0.000 C 
ATOM     19  N   UNL     1       5.083   5.479  17.271  0.00  0.00    +0.000 N 
ATOM     20  C   UNL     1       3.738   5.302  17.577  0.00  0.00    +0.000 C 
ATOM     21  O   UNL     1       3.064   4.361  17.173  0.00  0.00    +0.000 OA
ENDBRANCH   7  20
ENDBRANCH   1  10
BRANCH   4  22
ATOM     22  O   UNL     1      -1.091  12.008  23.172  0.00  0.00    +0.000 OA
BRANCH  22  23
ATOM     23  C   UNL     1      -2.510  11.851  23.204  0.00  0.00    +0.000 C 
BRANCH  23  24
ATOM     24  C   UNL     1      -3.102  12.646  22.056  0.00  0.00    +0.000 C 
BRANCH  24  25
ATOM     25  C   UNL     1      -4.575  12.962  22.319  0.00  0.00    +0.000 C 
BRANCH  25  26
ATOM     26  N   UNL     1      -4.822  13.327  23.719  0.00  0.00    +0.000 NA
ATOM     27  C   UNL     1      -5.943  12.590  24.343  0.00  0.00    +0.000 C 
ATOM     28  C   UNL     1      -7.340  13.053  23.895  0.00  0.00    +0.000 C 
ATOM     29  O   UNL     1      -7.513  14.463  24.077  0.00  0.00    +0.000 OA
ATOM     30  C   UNL     1      -6.493  15.195  23.389  0.00  0.00    +0.000 C 
ATOM     31  C   UNL     1      -5.091  14.776  23.861  0.00  0.00    +0.000 C 
ENDBRANCH  25  26
ENDBRANCH  24  25
ENDBRANCH  23  24
ENDBRANCH  22  23
ENDBRANCH   4  22
TORSDOF 7
ENDMDL
MODEL 2
REMARK VINA RESULT:      -8.1      0.943      1.652
REMARK  Name = 
REMARK  9 active torsions:
REMARK  status: ('A' for Active; 'I' for Inactive)
REMARK    1  A    between atoms: C_1  and  C_2
REMARK    2  A    between atoms: C_5  and  C_6
REMARK    3  A    between atoms: C_8  and  C_10
REMARK    4  A    between atoms: C_13  and  C_14
REMARK    5  A    between atoms: C_17  and  O_18
REMARK    6  A    between atoms: O_18  and  C_19
REMARK    7  A    between atoms: C_19  and  C_20
REMARK    8  A    between atoms: C_20  and  C_21
REMARK    9  A    between atoms: C_21  and  N_22
REMARK                            x       y       z     vdW  Elec       q    Type
REMARK                         _______ _______ _______ _____ _____    ______ ____
ROOT
ATOM      1  C   UNL     1       0.950   8.835  20.872  0.00  0.00    +0.000 A 
ATOM      2  C   UNL     1       0.961   8.694  22.270  0.00  0.00    +0.000 A 
ATOM      3  C   UNL     1       0.249   9.549  23.101  0.00  0.00    +0.000 A 
ATOM      4  C   UNL     1      -0.470  10.607  22.558  0.00  0.00    +0.000 A 
ATOM      5  C   UNL     1      -0.479  10.788  21.177  0.00  0.00    +0.000 A 
ATOM      6  C   UNL     1       0.216   9.906  20.340  0.00  0.00    +0.000 A 
ENDROOT
BRANCH   1  10
ATOM      7  C   UNL     1       3.092   6.076  18.363  0.00  0.00    +0.000 A 
ATOM      8  C   UNL     1       2.740   7.338  17.898  0.00  0.00    +0.000 A 
ATOM      9  C   UNL     1       2.119   8.242  18.749  0.00  0.00    +0.000 A 
ATOM     10  C   UNL     1       1.682   7.867  20.032  0.00  0.00    +0.000 A 
ATOM     11  C   UNL     1       1.931   6.545  20.439  0.00  0.00    +0.000 A 
ATOM     12  C   UNL     1       2.644   5.661  19.619  0.00  0.00    +0.000 A 
BRANCH   7  20
ATOM     13  C   UNL     1       6.564   5.365  19.343  0.00  0.00    +0.000 C 
ATOM     14  C   UNL     1       6.126   6.182  18.127  0.00  0.00    +0.000 C 
ATOM     15  C   UNL     1       7.291   6.525  17.204  0.00  0.00    +0.000 C 
ATOM     16  C   UNL     1       7.242   5.498  16.074  0.00  0.00    +0.000 C 
ATOM     17  C   UNL     1       6.016   4.616  16.344  0.00  0.00    +0.000 C 
ATOM     18  C   UNL     1       5.362   4.176  15.040  0.00  0.00    +0.000 C 
ATOM     19  N   UNL     1       5.215   5.430  17.254  0.00  0.00    +0.000 N 
ATOM     20  C   UNL     1       3.881   5.140  17.518  0.00  0.00    +0.000 C 
ATOM     21  O   UNL     1       3.293   4.162  17.070  0.00  0.00    +0.000 OA
ENDBRANCH   7  20
ENDBRANCH   1  10
BRANCH   4  22
ATOM     22  O   UNL     1      -1.191  11.511  23.288  0.00  0.00    +0.000 OA
BRANCH  22  23
ATOM     23  C   UNL     1      -1.121  12.861  22.825  0.00  0.00    +0.000 C 
BRANCH  23  24
ATOM     24  C   UNL     1      -2.392  13.573  23.246  0.00  0.00    +0.000 C 
BRANCH  24  25
ATOM     25  C   UNL     1      -3.612  12.953  22.563  0.00  0.00    +0.000 C 
BRANCH  25  26
ATOM     26  N   UNL     1      -4.720  13.907  22.436  0.00  0.00    +0.000 NA
ATOM     27  C   UNL     1      -5.583  13.989  23.636  0.00  0.00    +0.000 C 
ATOM     28  C   UNL     1      -6.532  12.793  23.823  0.00  0.00    +0.000 C 
ATOM     29  O   UNL     1      -7.329  12.563  22.656  0.00  0.00    +0.000 OA
ATOM     30  C   UNL     1      -6.502  12.375  21.502  0.00  0.00    +0.000 C 
ATOM     31  C   UNL     1      -5.581  13.585  21.275  0.00  0.00    +0.000 C 
ENDBRANCH  25  26
ENDBRANCH  24  25
ENDBRANCH  23  24
ENDBRANCH  22  23
ENDBRANCH   4  22
TORSDOF 7
ENDMDL
MODEL 3
REMARK VINA RESULT:      -8.1      0.774      1.012
REMARK  Name = 
REMARK  9 active torsions:
REMARK  status: ('A' for Active; 'I' for Inactive)
REMARK    1  A    between atoms: C_1  and  C_2
REMARK    2  A    between atoms: C_5  and  C_6
REMARK    3  A    between atoms: C_8  and  C_10
REMARK    4  A    between atoms: C_13  and  C_14
REMARK    5  A    between atoms: C_17  and  O_18
REMARK    6  A    between atoms: O_18  and  C_19
REMARK    7  A    between atoms: C_19  and  C_20
REMARK    8  A    between atoms: C_20  and  C_21
REMARK    9  A    between atoms: C_21  and  N_22
REMARK                            x       y       z     vdW  Elec       q    Type
REMARK                         _______ _______ _______ _____ _____    ______ ____
ROOT
ATOM      1  C   UNL     1       0.875   8.967  20.860  0.00  0.00    +0.000 A 
ATOM      2  C   UNL     1       0.715  10.306  20.467  0.00  0.00    +0.000 A 
ATOM      3  C   UNL     1       0.041  11.228  21.257  0.00  0.00    +0.000 A 
ATOM      4  C   UNL     1      -0.534  10.828  22.457  0.00  0.00    +0.000 A 
ATOM      5  C   UNL     1      -0.415   9.500  22.860  0.00  0.00    +0.000 A 
ATOM      6  C   UNL     1       0.290   8.579  22.076  0.00  0.00    +0.000 A 
ENDROOT
BRANCH   1  10
ATOM      7  C   UNL     1       3.112   6.204  18.438  0.00  0.00    +0.000 A 
ATOM      8  C   UNL     1       2.763   5.887  19.746  0.00  0.00    +0.000 A 
ATOM      9  C   UNL     1       1.974   6.758  20.484  0.00  0.00    +0.000 A 
ATOM     10  C   UNL     1       1.645   8.039  20.007  0.00  0.00    +0.000 A 
ATOM     11  C   UNL     1       2.116   8.395  18.733  0.00  0.00    +0.000 A 
ATOM     12  C   UNL     1       2.830   7.481  17.947  0.00  0.00    +0.000 A 
BRANCH   7  20
ATOM     13  C   UNL     1       6.573   5.348  19.335  0.00  0.00    +0.000 C 
ATOM     14  C   UNL     1       6.141   6.176  18.125  0.00  0.00    +0.000 C 
ATOM     15  C   UNL     1       7.296   6.462  17.170  0.00  0.00    +0.000 C 
ATOM     16  C   UNL     1       7.172   5.431  16.049  0.00  0.00    +0.000 C 
ATOM     17  C   UNL     1       5.917   4.605  16.357  0.00  0.00    +0.000 C 
ATOM     18  C   UNL     1       5.210   4.187  15.073  0.00  0.00    +0.000 C 
ATOM     19  N   UNL     1       5.176   5.459  17.281  0.00  0.00    +0.000 N 
ATOM     20  C   UNL     1       3.837   5.230  17.580  0.00  0.00    +0.000 C 
ATOM     21  O   UNL     1       3.196   4.276  17.155  0.00  0.00    +0.000 OA
ENDBRANCH   7  20
ENDBRANCH   1  10
BRANCH   4  22
ATOM     22  O   UNL     1      -1.229  11.652  23.298  0.00  0.00    +0.000 OA
BRANCH  22  23
ATOM     23  C   UNL     1      -1.705  12.863  22.709  0.00  0.00    +0.000 C 
BRANCH  23  24
ATOM     24  C   UNL     1      -3.109  12.619  22.190  0.00  0.00    +0.000 C 
BRANCH  24  25
ATOM     25  C   UNL     1      -4.148  12.959  23.259  0.00  0.00    +0.000 C 
BRANCH  25  26
ATOM     26  N   UNL     1      -5.144  13.923  22.777  0.00  0.00    +0.000 NA
ATOM     27  C   UNL     1      -6.181  14.267  23.776  0.00  0.00    +0.000 C 
ATOM     28  C   UNL     1      -7.236  13.171  24.003  0.00  0.00    +0.000 C 
ATOM     29  O   UNL     1      -7.850  12.765  22.774  0.00  0.00    +0.000 OA
ATOM     30  C   UNL     1      -6.864  12.328  21.832  0.00  0.00    +0.000 C 
ATOM     31  C   UNL     1      -5.827  13.431  21.559  0.00  0.00    +0.000 C 
ENDBRANCH  25  26
ENDBRANCH  24  25
ENDBRANCH  23  24
ENDBRANCH  22  23
ENDBRANCH   4  22
TORSDOF 7
ENDMDL
MODEL 4
REMARK VINA RESULT:      -8.0      0.796      1.569
REMARK  Name = 
REMARK  9 active torsions:
REMARK  status: ('A' for Active; 'I' for Inactive)
REMARK    1  A    between atoms: C_1  and  C_2
REMARK    2  A    between atoms: C_5  and  C_6
REMARK    3  A    between atoms: C_8  and  C_10
REMARK    4  A    between atoms: C_13  and  C_14
REMARK    5  A    between atoms: C_17  and  O_18
REMARK    6  A    between atoms: O_18  and  C_19
REMARK    7  A    between atoms: C_19  and  C_20
REMARK    8  A    between atoms: C_20  and  C_21
REMARK    9  A    between atoms: C_21  and  N_22
REMARK                            x       y       z     vdW  Elec       q    Type
REMARK                         _______ _______ _______ _____ _____    ______ ____
ROOT
ATOM      1  C   UNL     1       0.943   8.901  20.810  0.00  0.00    +0.000 A 
ATOM      2  C   UNL     1       0.864   8.722  22.202  0.00  0.00    +0.000 A 
ATOM      3  C   UNL     1       0.144   9.588  23.015  0.00  0.00    +0.000 A 
ATOM      4  C   UNL     1      -0.492  10.694  22.463  0.00  0.00    +0.000 A 
ATOM      5  C   UNL     1      -0.409  10.913  21.090  0.00  0.00    +0.000 A 
ATOM      6  C   UNL     1       0.293  10.022  20.268  0.00  0.00    +0.000 A 
ENDROOT
BRANCH   1  10
ATOM      7  C   UNL     1       3.095   6.109  18.346  0.00  0.00    +0.000 A 
ATOM      8  C   UNL     1       2.754   7.369  17.867  0.00  0.00    +0.000 A 
ATOM      9  C   UNL     1       2.129   8.284  18.704  0.00  0.00    +0.000 A 
ATOM     10  C   UNL     1       1.678   7.922  19.986  0.00  0.00    +0.000 A 
ATOM     11  C   UNL     1       1.917   6.603  20.407  0.00  0.00    +0.000 A 
ATOM     12  C   UNL     1       2.633   5.708  19.602  0.00  0.00    +0.000 A 
BRANCH   7  20
ATOM     13  C   UNL     1       6.555   5.395  19.363  0.00  0.00    +0.000 C 
ATOM     14  C   UNL     1       6.131   6.201  18.135  0.00  0.00    +0.000 C 
ATOM     15  C   UNL     1       7.305   6.531  17.218  0.00  0.00    +0.000 C 
ATOM     16  C   UNL     1       7.261   5.492  16.098  0.00  0.00    +0.000 C 
ATOM     17  C   UNL     1       6.030   4.618  16.367  0.00  0.00    +0.000 C 
ATOM     18  C   UNL     1       5.384   4.169  15.061  0.00  0.00    +0.000 C 
ATOM     19  N   UNL     1       5.225   5.444  17.262  0.00  0.00    +0.000 N 
ATOM     20  C   UNL     1       3.886   5.163  17.517  0.00  0.00    +0.000 C 
ATOM     21  O   UNL     1       3.299   4.182  17.074  0.00  0.00    +0.000 OA
ENDBRANCH   7  20
ENDBRANCH   1  10
BRANCH   4  22
ATOM     22  O   UNL     1      -1.211  11.612  23.176  0.00  0.00    +0.000 OA
BRANCH  22  23
ATOM     23  C   UNL     1      -1.388  12.877  22.536  0.00  0.00    +0.000 C 
BRANCH  23  24
ATOM     24  C   UNL     1      -2.817  12.959  22.034  0.00  0.00    +0.000 C 
BRANCH  24  25
ATOM     25  C   UNL     1      -3.789  13.160  23.197  0.00  0.00    +0.000 C 
BRANCH  25  26
ATOM     26  N   UNL     1      -5.068  12.476  22.975  0.00  0.00    +0.000 NA
ATOM     27  C   UNL     1      -5.656  12.720  21.638  0.00  0.00    +0.000 C 
ATOM     28  C   UNL     1      -6.281  14.114  21.460  0.00  0.00    +0.000 C 
ATOM     29  O   UNL     1      -7.244  14.397  22.482  0.00  0.00    +0.000 OA
ATOM     30  C   UNL     1      -6.660  14.268  23.783  0.00  0.00    +0.000 C 
ATOM     31  C   UNL     1      -6.072  12.862  23.993  0.00  0.00    +0.000 C 
ENDBRANCH  25  26
ENDBRANCH  24  25
ENDBRANCH  23  24
ENDBRANCH  22  23
ENDBRANCH   4  22
TORSDOF 7
ENDMDL
MODEL 5
REMARK VINA RESULT:      -8.0      0.803      1.287
REMARK  Name = 
REMARK  9 active torsions:
REMARK  status: ('A' for Active; 'I' for Inactive)
REMARK    1  A    between atoms: C_1  and  C_2
REMARK    2  A    between atoms: C_5  and  C_6
REMARK    3  A    between atoms: C_8  and  C_10
REMARK    4  A    between atoms: C_13  and  C_14
REMARK    5  A    between atoms: C_17  and  O_18
REMARK    6  A    between atoms: O_18  and  C_19
REMARK    7  A    between atoms: C_19  and  C_20
REMARK    8  A    between atoms: C_20  and  C_21
REMARK    9  A    between atoms: C_21  and  N_22
REMARK                            x       y       z     vdW  Elec       q    Type
REMARK                         _______ _______ _______ _____ _____    ______ ____
ROOT
ATOM      1  C   UNL     1       0.998   9.130  20.741  0.00  0.00    +0.000 A 
ATOM      2  C   UNL     1       0.914   8.928  22.129  0.00  0.00    +0.000 A 
ATOM      3  C   UNL     1       0.206   9.792  22.955  0.00  0.00    +0.000 A 
ATOM      4  C   UNL     1      -0.412  10.916  22.421  0.00  0.00    +0.000 A 
ATOM      5  C   UNL     1      -0.324  11.156  21.052  0.00  0.00    +0.000 A 
ATOM      6  C   UNL     1       0.366  10.268  20.217  0.00  0.00    +0.000 A 
ENDROOT
BRANCH   1  10
ATOM      7  C   UNL     1       3.095   6.226  18.359  0.00  0.00    +0.000 A 
ATOM      8  C   UNL     1       2.771   5.962  19.685  0.00  0.00    +0.000 A 
ATOM      9  C   UNL     1       2.025   6.879  20.413  0.00  0.00    +0.000 A 
ATOM     10  C   UNL     1       1.720   8.153  19.901  0.00  0.00    +0.000 A 
ATOM     11  C   UNL     1       2.168   8.453  18.604  0.00  0.00    +0.000 A 
ATOM     12  C   UNL     1       2.836   7.494  17.832  0.00  0.00    +0.000 A 
BRANCH   7  20
ATOM     13  C   UNL     1       6.534   5.263  19.231  0.00  0.00    +0.000 C 
ATOM     14  C   UNL     1       6.115   6.075  18.006  0.00  0.00    +0.000 C 
ATOM     15  C   UNL     1       7.266   6.293  17.028  0.00  0.00    +0.000 C 
ATOM     16  C   UNL     1       7.088   5.240  15.936  0.00  0.00    +0.000 C 
ATOM     17  C   UNL     1       5.808   4.470  16.282  0.00  0.00    +0.000 C 
ATOM     18  C   UNL     1       5.067   4.047  15.019  0.00  0.00    +0.000 C 
ATOM     19  N   UNL     1       5.112   5.375  17.193  0.00  0.00    +0.000 N 
ATOM     20  C   UNL     1       3.770   5.204  17.517  0.00  0.00    +0.000 C 
ATOM     21  O   UNL     1       3.088   4.264  17.125  0.00  0.00    +0.000 OA
ENDBRANCH   7  20
ENDBRANCH   1  10
BRANCH   4  22
ATOM     22  O   UNL     1      -1.118  11.833  23.148  0.00  0.00    +0.000 OA
BRANCH  22  23
ATOM     23  C   UNL     1      -2.511  11.550  23.296  0.00  0.00    +0.000 C 
BRANCH  23  24
ATOM     24  C   UNL     1      -3.239  12.861  23.525  0.00  0.00    +0.000 C 
BRANCH  24  25
ATOM     25  C   UNL     1      -4.208  13.150  22.377  0.00  0.00    +0.000 C 
BRANCH  25  26
ATOM     26  N   UNL     1      -5.490  12.458  22.547  0.00  0.00    +0.000 NA
ATOM     27  C   UNL     1      -6.435  12.659  21.425  0.00  0.00    +0.000 C 
ATOM     28  C   UNL     1      -7.099  14.045  21.390  0.00  0.00    +0.000 C 
ATOM     29  O   UNL     1      -7.735  14.359  22.633  0.00  0.00    +0.000 OA
ATOM     30  C   UNL     1      -6.806  14.272  23.719  0.00  0.00    +0.000 C 
ATOM     31  C   UNL     1      -6.168  12.875  23.796  0.00  0.00    +0.000 C 
ENDBRANCH  25  26
ENDBRANCH  24  25
ENDBRANCH  23  24
ENDBRANCH  22  23
ENDBRANCH   4  22
TORSDOF 7
ENDMDL
MODEL 6
REMARK VINA RESULT:      -8.0      7.425     11.054
REMARK  Name = 
REMARK  9 active torsions:
REMARK  status: ('A' for Active; 'I' for Inactive)
REMARK    1  A    between atoms: C_1  and  C_2
REMARK    2  A    between atoms: C_5  and  C_6
REMARK    3  A    between atoms: C_8  and  C_10
REMARK    4  A    between atoms: C_13  and  C_14
REMARK    5  A    between atoms: C_17  and  O_18
REMARK    6  A    between atoms: O_18  and  C_19
REMARK    7  A    between atoms: C_19  and  C_20
REMARK    8  A    between atoms: C_20  and  C_21
REMARK    9  A    between atoms: C_21  and  N_22
REMARK                            x       y       z     vdW  Elec       q    Type
REMARK                         _______ _______ _______ _____ _____    ______ ____
ROOT
ATOM      1  C   UNL     1       8.089   8.240  18.208  0.00  0.00    +0.000 A 
ATOM      2  C   UNL     1       7.240   7.960  17.124  0.00  0.00    +0.000 A 
ATOM      3  C   UNL     1       6.693   6.698  16.926  0.00  0.00    +0.000 A 
ATOM      4  C   UNL     1       7.012   5.658  17.790  0.00  0.00    +0.000 A 
ATOM      5  C   UNL     1       7.872   5.899  18.858  0.00  0.00    +0.000 A 
ATOM      6  C   UNL     1       8.399   7.178  19.072  0.00  0.00    +0.000 A 
ENDROOT
BRANCH   1  10
ATOM      7  C   UNL     1       9.634  12.204  18.839  0.00  0.00    +0.000 A 
ATOM      8  C   UNL     1       9.938  11.171  19.718  0.00  0.00    +0.000 A 
ATOM      9  C   UNL     1       9.494   9.882  19.454  0.00  0.00    +0.000 A 
ATOM     10  C   UNL     1       8.603   9.610  18.401  0.00  0.00    +0.000 A 
ATOM     11  C   UNL     1       8.202  10.691  17.598  0.00  0.00    +0.000 A 
ATOM     12  C   UNL     1       8.724  11.974  17.803  0.00  0.00    +0.000 A 
BRANCH   7  20
ATOM     13  C   UNL     1       9.023  13.926  22.029  0.00  0.00    +0.000 C 
ATOM     14  C   UNL     1       8.419  14.306  20.677  0.00  0.00    +0.000 C 
ATOM     15  C   UNL     1       7.668  15.633  20.724  0.00  0.00    +0.000 C 
ATOM     16  C   UNL     1       8.638  16.678  20.173  0.00  0.00    +0.000 C 
ATOM     17  C   UNL     1       9.909  15.920  19.772  0.00  0.00    +0.000 C 
ATOM     18  C   UNL     1      10.553  16.547  18.541  0.00  0.00    +0.000 C 
ATOM     19  N   UNL     1       9.450  14.539  19.656  0.00  0.00    +0.000 N 
ATOM     20  C   UNL     1      10.211  13.562  19.023  0.00  0.00    +0.000 C 
ATOM     21  O   UNL     1      11.335  13.757  18.574  0.00  0.00    +0.000 OA
ENDBRANCH   7  20
ENDBRANCH   1  10
BRANCH   4  22
ATOM     22  O   UNL     1       6.539   4.380  17.674  0.00  0.00    +0.000 OA
BRANCH  22  23
ATOM     23  C   UNL     1       5.311   4.122  18.355  0.00  0.00    +0.000 C 
BRANCH  23  24
ATOM     24  C   UNL     1       4.269   3.732  17.323  0.00  0.00    +0.000 C 
BRANCH  24  25
ATOM     25  C   UNL     1       3.331   2.660  17.880  0.00  0.00    +0.000 C 
BRANCH  25  26
ATOM     26  N   UNL     1       1.919   3.045  17.762  0.00  0.00    +0.000 NA
ATOM     27  C   UNL     1       1.669   4.487  17.980  0.00  0.00    +0.000 C 
ATOM     28  C   UNL     1       1.749   4.935  19.449  0.00  0.00    +0.000 C 
ATOM     29  O   UNL     1       0.890   4.152  20.287  0.00  0.00    +0.000 OA
ATOM     30  C   UNL     1       1.192   2.758  20.167  0.00  0.00    +0.000 C 
ATOM     31  C   UNL     1       1.071   2.285  18.708  0.00  0.00    +0.000 C 
ENDBRANCH  25  26
ENDBRANCH  24  25
ENDBRANCH  23  24
ENDBRANCH  22  23
ENDBRANCH   4  22
TORSDOF 7
ENDMDL
MODEL 7
REMARK VINA RESULT:      -8.0      2.116     11.715
REMARK  Name = 
REMARK  9 active torsions:
REMARK  status: ('A' for Active; 'I' for Inactive)
REMARK    1  A    between atoms: C_1  and  C_2
REMARK    2  A    between atoms: C_5  and  C_6
REMARK    3  A    between atoms: C_8  and  C_10
REMARK    4  A    between atoms: C_13  and  C_14
REMARK    5  A    between atoms: C_17  and  O_18
REMARK    6  A    between atoms: O_18  and  C_19
REMARK    7  A    between atoms: C_19  and  C_20
REMARK    8  A    between atoms: C_20  and  C_21
REMARK    9  A    between atoms: C_21  and  N_22
REMARK                            x       y       z     vdW  Elec       q    Type
REMARK                         _______ _______ _______ _____ _____    ______ ____
ROOT
ATOM      1  C   UNL     1       1.086   8.778  20.029  0.00  0.00    +0.000 A 
ATOM      2  C   UNL     1       1.464   7.576  20.651  0.00  0.00    +0.000 A 
ATOM      3  C   UNL     1       2.295   6.655  20.026  0.00  0.00    +0.000 A 
ATOM      4  C   UNL     1       2.744   6.889  18.732  0.00  0.00    +0.000 A 
ATOM      5  C   UNL     1       2.364   8.059  18.080  0.00  0.00    +0.000 A 
ATOM      6  C   UNL     1       1.551   9.000  18.723  0.00  0.00    +0.000 A 
ENDROOT
BRANCH   1  10
ATOM      7  C   UNL     1      -1.396  11.633  22.076  0.00  0.00    +0.000 A 
ATOM      8  C   UNL     1      -1.255  11.671  20.694  0.00  0.00    +0.000 A 
ATOM      9  C   UNL     1      -0.513  10.693  20.045  0.00  0.00    +0.000 A 
ATOM     10  C   UNL     1       0.244   9.747  20.758  0.00  0.00    +0.000 A 
ATOM     11  C   UNL     1       0.193   9.803  22.161  0.00  0.00    +0.000 A 
ATOM     12  C   UNL     1      -0.632  10.726  22.816  0.00  0.00    +0.000 A 
BRANCH   7  20
ATOM     13  C   UNL     1      -1.322  15.165  21.060  0.00  0.00    +0.000 C 
ATOM     14  C   UNL     1      -0.793  14.602  22.379  0.00  0.00    +0.000 C 
ATOM     15  C   UNL     1      -0.396  15.697  23.365  0.00  0.00    +0.000 C 
ATOM     16  C   UNL     1      -1.578  15.841  24.322  0.00  0.00    +0.000 C 
ATOM     17  C   UNL     1      -2.610  14.789  23.898  0.00  0.00    +0.000 C 
ATOM     18  C   UNL     1      -3.354  14.235  25.107  0.00  0.00    +0.000 C 
ATOM     19  N   UNL     1      -1.819  13.848  23.110  0.00  0.00    +0.000 N 
ATOM     20  C   UNL     1      -2.296  12.583  22.781  0.00  0.00    +0.000 C 
ATOM     21  O   UNL     1      -3.420  12.183  23.063  0.00  0.00    +0.000 OA
ENDBRANCH   7  20
ENDBRANCH   1  10
BRANCH   4  22
ATOM     22  O   UNL     1       3.551   6.041  18.025  0.00  0.00    +0.000 OA
BRANCH  22  23
ATOM     23  C   UNL     1       3.342   4.651  18.276  0.00  0.00    +0.000 C 
BRANCH  23  24
ATOM     24  C   UNL     1       4.698   3.987  18.427  0.00  0.00    +0.000 C 
BRANCH  24  25
ATOM     25  C   UNL     1       5.687   4.926  19.118  0.00  0.00    +0.000 C 
BRANCH  25  26
ATOM     26  N   UNL     1       7.055   4.758  18.616  0.00  0.00    +0.000 NA
ATOM     27  C   UNL     1       7.942   5.911  18.887  0.00  0.00    +0.000 C 
ATOM     28  C   UNL     1       7.683   7.138  17.996  0.00  0.00    +0.000 C 
ATOM     29  O   UNL     1       7.724   6.800  16.605  0.00  0.00    +0.000 OA
ATOM     30  C   UNL     1       6.793   5.755  16.307  0.00  0.00    +0.000 C 
ATOM     31  C   UNL     1       7.069   4.503  17.157  0.00  0.00    +0.000 C 
ENDBRANCH  25  26
ENDBRANCH  24  25
ENDBRANCH  23  24
ENDBRANCH  22  23
ENDBRANCH   4  22
TORSDOF 7
ENDMDL
MODEL 8
REMARK VINA RESULT:      -7.9      7.989     11.212
REMARK  Name = 
REMARK  9 active torsions:
REMARK  status: ('A' for Active; 'I' for Inactive)
REMARK    1  A    between atoms: C_1  and  C_2
REMARK    2  A    between atoms: C_5  and  C_6
REMARK    3  A    between atoms: C_8  and  C_10
REMARK    4  A    between atoms: C_13  and  C_14
REMARK    5  A    between atoms: C_17  and  O_18
REMARK    6  A    between atoms: O_18  and  C_19
REMARK    7  A    between atoms: C_19  and  C_20
REMARK    8  A    between atoms: C_20  and  C_21
REMARK    9  A    between atoms: C_21  and  N_22
REMARK                            x       y       z     vdW  Elec       q    Type
REMARK                         _______ _______ _______ _____ _____    ______ ____
ROOT
ATOM      1  C   UNL     1       8.059   8.311  18.265  0.00  0.00    +0.000 A 
ATOM      2  C   UNL     1       7.103   8.110  17.256  0.00  0.00    +0.000 A 
ATOM      3  C   UNL     1       6.512   6.871  17.039  0.00  0.00    +0.000 A 
ATOM      4  C   UNL     1       6.892   5.776  17.805  0.00  0.00    +0.000 A 
ATOM      5  C   UNL     1       7.857   5.939  18.796  0.00  0.00    +0.000 A 
ATOM      6  C   UNL     1       8.429   7.195  19.032  0.00  0.00    +0.000 A 
ENDROOT
BRANCH   1  10
ATOM      7  C   UNL     1       9.718  12.213  18.989  0.00  0.00    +0.000 A 
ATOM      8  C   UNL     1       9.755  11.228  19.970  0.00  0.00    +0.000 A 
ATOM      9  C   UNL     1       9.286   9.952  19.690  0.00  0.00    +0.000 A 
ATOM     10  C   UNL     1       8.618   9.659  18.487  0.00  0.00    +0.000 A 
ATOM     11  C   UNL     1       8.474  10.702  17.558  0.00  0.00    +0.000 A 
ATOM     12  C   UNL     1       9.032  11.964  17.798  0.00  0.00    +0.000 A 
BRANCH   7  20
ATOM     13  C   UNL     1       7.694  14.812  20.620  0.00  0.00    +0.000 C 
ATOM     14  C   UNL     1       8.123  14.801  19.153  0.00  0.00    +0.000 C 
ATOM     15  C   UNL     1       7.798  16.109  18.438  0.00  0.00    +0.000 C 
ATOM     16  C   UNL     1       9.097  16.913  18.433  0.00  0.00    +0.000 C 
ATOM     17  C   UNL     1      10.157  16.027  19.100  0.00  0.00    +0.000 C 
ATOM     18  C   UNL     1      11.526  16.244  18.467  0.00  0.00    +0.000 C 
ATOM     19  N   UNL     1       9.580  14.689  19.003  0.00  0.00    +0.000 N 
ATOM     20  C   UNL     1      10.340  13.544  19.216  0.00  0.00    +0.000 C 
ATOM     21  O   UNL     1      11.516  13.560  19.559  0.00  0.00    +0.000 OA
ENDBRANCH   7  20
ENDBRANCH   1  10
BRANCH   4  22
ATOM     22  O   UNL     1       6.384   4.515  17.663  0.00  0.00    +0.000 OA
BRANCH  22  23
ATOM     23  C   UNL     1       5.365   4.377  16.671  0.00  0.00    +0.000 C 
BRANCH  23  24
ATOM     24  C   UNL     1       4.277   3.479  17.229  0.00  0.00    +0.000 C 
BRANCH  24  25
ATOM     25  C   UNL     1       4.206   3.597  18.752  0.00  0.00    +0.000 C 
BRANCH  25  26
ATOM     26  N   UNL     1       3.513   2.459  19.365  0.00  0.00    +0.000 NA
ATOM     27  C   UNL     1       2.231   2.112  18.710  0.00  0.00    +0.000 C 
ATOM     28  C   UNL     1       1.076   3.080  19.015  0.00  0.00    +0.000 C 
ATOM     29  O   UNL     1       0.882   3.244  20.425  0.00  0.00    +0.000 OA
ATOM     30  C   UNL     1       2.089   3.682  21.059  0.00  0.00    +0.000 C 
ATOM     31  C   UNL     1       3.242   2.698  20.801  0.00  0.00    +0.000 C 
ENDBRANCH  25  26
ENDBRANCH  24  25
ENDBRANCH  23  24
ENDBRANCH  22  23
ENDBRANCH   4  22
TORSDOF 7
ENDMDL
MODEL 9
REMARK VINA RESULT:      -7.9      1.262      1.771
REMARK  Name = 
REMARK  9 active torsions:
REMARK  status: ('A' for Active; 'I' for Inactive)
REMARK    1  A    between atoms: C_1  and  C_2
REMARK    2  A    between atoms: C_5  and  C_6
REMARK    3  A    between atoms: C_8  and  C_10
REMARK    4  A    between atoms: C_13  and  C_14
REMARK    5  A    between atoms: C_17  and  O_18
REMARK    6  A    between atoms: O_18  and  C_19
REMARK    7  A    between atoms: C_19  and  C_20
REMARK    8  A    between atoms: C_20  and  C_21
REMARK    9  A    between atoms: C_21  and  N_22
REMARK                            x       y       z     vdW  Elec       q    Type
REMARK                         _______ _______ _______ _____ _____    ______ ____
ROOT
ATOM      1  C   UNL     1       0.947   8.739  20.882  0.00  0.00    +0.000 A 
ATOM      2  C   UNL     1       0.164   9.739  20.281  0.00  0.00    +0.000 A 
ATOM      3  C   UNL     1      -0.515  10.691  21.031  0.00  0.00    +0.000 A 
ATOM      4  C   UNL     1      -0.466  10.648  22.419  0.00  0.00    +0.000 A 
ATOM      5  C   UNL     1       0.280   9.651  23.044  0.00  0.00    +0.000 A 
ATOM      6  C   UNL     1       0.988   8.711  22.285  0.00  0.00    +0.000 A 
ENDROOT
BRANCH   1  10
ATOM      7  C   UNL     1       3.122   6.018  18.359  0.00  0.00    +0.000 A 
ATOM      8  C   UNL     1       2.763   7.282  17.904  0.00  0.00    +0.000 A 
ATOM      9  C   UNL     1       2.131   8.174  18.760  0.00  0.00    +0.000 A 
ATOM     10  C   UNL     1       1.690   7.784  20.037  0.00  0.00    +0.000 A 
ATOM     11  C   UNL     1       1.947   6.461  20.434  0.00  0.00    +0.000 A 
ATOM     12  C   UNL     1       2.670   5.589  19.610  0.00  0.00    +0.000 A 
BRANCH   7  20
ATOM     13  C   UNL     1       6.603   5.349  19.334  0.00  0.00    +0.000 C 
ATOM     14  C   UNL     1       6.154   6.165  18.121  0.00  0.00    +0.000 C 
ATOM     15  C   UNL     1       7.314   6.526  17.198  0.00  0.00    +0.000 C 
ATOM     16  C   UNL     1       7.276   5.502  16.065  0.00  0.00    +0.000 C 
ATOM     17  C   UNL     1       6.063   4.603  16.333  0.00  0.00    +0.000 C 
ATOM     18  C   UNL     1       5.412   4.160  15.028  0.00  0.00    +0.000 C 
ATOM     19  N   UNL     1       5.252   5.404  17.247  0.00  0.00    +0.000 N 
ATOM     20  C   UNL     1       3.922   5.096  17.511  0.00  0.00    +0.000 C 
ATOM     21  O   UNL     1       3.347   4.112  17.060  0.00  0.00    +0.000 OA
ENDBRANCH   7  20
ENDBRANCH   1  10
BRANCH   4  22
ATOM     22  O   UNL     1      -1.109  11.526  23.247  0.00  0.00    +0.000 OA
BRANCH  22  23
ATOM     23  C   UNL     1      -1.998  12.436  22.597  0.00  0.00    +0.000 C 
BRANCH  23  24
ATOM     24  C   UNL     1      -1.393  13.825  22.671  0.00  0.00    +0.000 C 
BRANCH  24  25
ATOM     25  C   UNL     1      -2.473  14.871  22.947  0.00  0.00    +0.000 C 
BRANCH  25  26
ATOM     26  N   UNL     1      -3.316  14.509  24.092  0.00  0.00    +0.000 NA
ATOM     27  C   UNL     1      -4.769  14.570  23.813  0.00  0.00    +0.000 C 
ATOM     28  C   UNL     1      -5.345  15.994  23.740  0.00  0.00    +0.000 C 
ATOM     29  O   UNL     1      -5.036  16.750  24.916  0.00  0.00    +0.000 OA
ATOM     30  C   UNL     1      -3.623  16.789  25.142  0.00  0.00    +0.000 C 
ATOM     31  C   UNL     1      -3.039  15.371  25.263  0.00  0.00    +0.000 C 
ENDBRANCH  25  26
ENDBRANCH  24  25
ENDBRANCH  23  24
ENDBRANCH  22  23
ENDBRANCH   4  22
TORSDOF 7
ENDMDL
