MODEL 1
REMARK VINA RESULT:      -7.7      0.000      0.000
REMARK  Name = 
REMARK  3 active torsions:
REMARK  status: ('A' for Active; 'I' for Inactive)
REMARK    1  A    between atoms: C_4  and  C_5
REMARK    2  A    between atoms: C_5  and  N_6
REMARK    3  A    between atoms: N_17  and  C_18
REMARK                            x       y       z     vdW  Elec       q    Type
REMARK                         _______ _______ _______ _____ _____    ______ ____
ROOT
ATOM      1  N   UNL     1      -1.557  12.111  22.550  0.00  0.00    +0.000 N 
ATOM      2  C   UNL     1      -2.869  12.485  22.294  0.00  0.00    +0.000 A 
ATOM      3  N   UNL     1      -3.764  12.524  23.337  0.00  0.00    +0.000 NA
ATOM      4  C   UNL     1      -5.110  12.743  23.159  0.00  0.00    +0.000 A 
ATOM      5  C   UNL     1      -5.910  12.817  24.289  0.00  0.00    +0.000 A 
ATOM      6  C   UNL     1      -7.287  13.084  24.227  0.00  0.00    +0.000 A 
ATOM      7  C   UNL     1      -7.916  13.284  23.000  0.00  0.00    +0.000 A 
ATOM      8  C   UNL     1      -7.180  13.161  21.827  0.00  0.00    +0.000 A 
ATOM      9  C   UNL     1      -5.791  12.883  21.911  0.00  0.00    +0.000 A 
ATOM     10  C   UNL     1      -4.863  12.736  20.860  0.00  0.00    +0.000 A 
ATOM     11  C   UNL     1      -5.105  12.372  19.551  0.00  0.00    +0.000 A 
ATOM     12  N   UNL     1      -3.847  12.204  18.994  0.00  0.00    +0.000 N 
ATOM     13  N   UNL     1      -2.892  12.709  19.799  0.00  0.00    +0.000 NA
ATOM     14  C   UNL     1      -3.446  12.644  21.015  0.00  0.00    +0.000 A 
ATOM     15  H   UNL     1      -1.357  12.086  23.540  0.00  0.00    +0.000 HD
ENDROOT
BRANCH  12  16
ATOM     16  C   UNL     1      -3.424  11.481  17.850  0.00  0.00    +0.000 A 
ATOM     17  C   UNL     1      -4.169  11.484  16.670  0.00  0.00    +0.000 A 
ATOM     18  C   UNL     1      -3.801  10.623  15.630  0.00  0.00    +0.000 A 
ATOM     19  C   UNL     1      -2.686   9.787  15.755  0.00  0.00    +0.000 A 
ATOM     20  C   UNL     1      -1.938   9.793  16.927  0.00  0.00    +0.000 A 
ATOM     21  C   UNL     1      -2.310  10.628  17.975  0.00  0.00    +0.000 A 
ENDBRANCH  12  16
BRANCH   1  22
ATOM     22  C   UNL     1      -0.485  12.542  21.656  0.00  0.00    +0.000 C 
BRANCH  22  26
ATOM     23  C   UNL     1       1.248   9.501  19.096  0.00  0.00    +0.000 A 
ATOM     24  C   UNL     1       0.609   9.118  20.272  0.00  0.00    +0.000 A 
ATOM     25  C   UNL     1       0.049  10.082  21.119  0.00  0.00    +0.000 A 
ATOM     26  C   UNL     1       0.118  11.445  20.801  0.00  0.00    +0.000 A 
ATOM     27  C   UNL     1       0.761  11.809  19.603  0.00  0.00    +0.000 A 
ATOM     28  C   UNL     1       1.320  10.849  18.758  0.00  0.00    +0.000 A 
ENDBRANCH  22  26
ENDBRANCH   1  22
TORSDOF 3
ENDMDL
MODEL 2
REMARK VINA RESULT:      -7.3      5.639      8.778
REMARK  Name = 
REMARK  3 active torsions:
REMARK  status: ('A' for Active; 'I' for Inactive)
REMARK    1  A    between atoms: C_4  and  C_5
REMARK    2  A    between atoms: C_5  and  N_6
REMARK    3  A    between atoms: N_17  and  C_18
REMARK                            x       y       z     vdW  Elec       q    Type
REMARK                         _______ _______ _______ _____ _____    ______ ____
ROOT
ATOM      1  N   UNL     1       1.285   5.519  21.005  0.00  0.00    +0.000 N 
ATOM      2  C   UNL     1       1.481   6.780  20.458  0.00  0.00    +0.000 A 
ATOM      3  N   UNL     1       0.532   7.751  20.669  0.00  0.00    +0.000 NA
ATOM      4  C   UNL     1       0.569   8.980  20.052  0.00  0.00    +0.000 A 
ATOM      5  C   UNL     1      -0.411   9.902  20.384  0.00  0.00    +0.000 A 
ATOM      6  C   UNL     1      -0.441  11.201  19.852  0.00  0.00    +0.000 A 
ATOM      7  C   UNL     1       0.531  11.619  18.946  0.00  0.00    +0.000 A 
ATOM      8  C   UNL     1       1.505  10.720  18.527  0.00  0.00    +0.000 A 
ATOM      9  C   UNL     1       1.514   9.409  19.071  0.00  0.00    +0.000 A 
ATOM     10  C   UNL     1       2.411   8.356  18.801  0.00  0.00    +0.000 A 
ATOM     11  C   UNL     1       3.178   8.155  17.672  0.00  0.00    +0.000 A 
ATOM     12  N   UNL     1       3.733   6.896  17.842  0.00  0.00    +0.000 N 
ATOM     13  N   UNL     1       3.568   6.464  19.107  0.00  0.00    +0.000 NA
ATOM     14  C   UNL     1       2.479   7.123  19.521  0.00  0.00    +0.000 A 
ATOM     15  H   UNL     1       0.528   5.511  21.675  0.00  0.00    +0.000 HD
ENDROOT
BRANCH  12  16
ATOM     16  C   UNL     1       4.272   5.981  16.903  0.00  0.00    +0.000 A 
ATOM     17  C   UNL     1       4.122   4.603  17.062  0.00  0.00    +0.000 A 
ATOM     18  C   UNL     1       4.815   3.739  16.207  0.00  0.00    +0.000 A 
ATOM     19  C   UNL     1       5.628   4.244  15.186  0.00  0.00    +0.000 A 
ATOM     20  C   UNL     1       5.767   5.617  15.021  0.00  0.00    +0.000 A 
ATOM     21  C   UNL     1       5.101   6.484  15.882  0.00  0.00    +0.000 A 
ENDBRANCH  12  16
BRANCH   1  22
ATOM     22  C   UNL     1       2.427   4.649  21.270  0.00  0.00    +0.000 C 
BRANCH  22  26
ATOM     23  C   UNL     1       3.088   1.393  18.482  0.00  0.00    +0.000 A 
ATOM     24  C   UNL     1       1.857   2.045  18.489  0.00  0.00    +0.000 A 
ATOM     25  C   UNL     1       1.617   3.094  19.385  0.00  0.00    +0.000 A 
ATOM     26  C   UNL     1       2.606   3.508  20.288  0.00  0.00    +0.000 A 
ATOM     27  C   UNL     1       3.845   2.840  20.258  0.00  0.00    +0.000 A 
ATOM     28  C   UNL     1       4.085   1.794  19.365  0.00  0.00    +0.000 A 
ENDBRANCH  22  26
ENDBRANCH   1  22
TORSDOF 3
ENDMDL
MODEL 3
REMARK VINA RESULT:      -7.3      0.881      1.403
REMARK  Name = 
REMARK  3 active torsions:
REMARK  status: ('A' for Active; 'I' for Inactive)
REMARK    1  A    between atoms: C_4  and  C_5
REMARK    2  A    between atoms: C_5  and  N_6
REMARK    3  A    between atoms: N_17  and  C_18
REMARK                            x       y       z     vdW  Elec       q    Type
REMARK                         _______ _______ _______ _____ _____    ______ ____
ROOT
ATOM      1  N   UNL     1      -0.486  11.583  22.055  0.00  0.00    +0.000 N 
ATOM      2  C   UNL     1      -1.780  12.085  22.019  0.00  0.00    +0.000 A 
ATOM      3  N   UNL     1      -2.503  12.145  23.187  0.00  0.00    +0.000 NA
ATOM      4  C   UNL     1      -3.832  12.492  23.226  0.00  0.00    +0.000 A 
ATOM      5  C   UNL     1      -4.445  12.574  24.467  0.00  0.00    +0.000 A 
ATOM      6  C   UNL     1      -5.783  12.965  24.628  0.00  0.00    +0.000 A 
ATOM      7  C   UNL     1      -6.566  13.288  23.521  0.00  0.00    +0.000 A 
ATOM      8  C   UNL     1      -6.027  13.165  22.246  0.00  0.00    +0.000 A 
ATOM      9  C   UNL     1      -4.674  12.761  22.104  0.00  0.00    +0.000 A 
ATOM     10  C   UNL     1      -3.931  12.591  20.918  0.00  0.00    +0.000 A 
ATOM     11  C   UNL     1      -4.399  12.322  19.648  0.00  0.00    +0.000 A 
ATOM     12  N   UNL     1      -3.260  12.075  18.898  0.00  0.00    +0.000 N 
ATOM     13  N   UNL     1      -2.152  12.448  19.568  0.00  0.00    +0.000 NA
ATOM     14  C   UNL     1      -2.522  12.365  20.851  0.00  0.00    +0.000 A 
ATOM     15  H   UNL     1      -0.145  11.485  23.001  0.00  0.00    +0.000 HD
ENDROOT
BRANCH  12  16
ATOM     16  C   UNL     1      -3.082  11.382  17.675  0.00  0.00    +0.000 A 
ATOM     17  C   UNL     1      -3.972  11.543  16.611  0.00  0.00    +0.000 A 
ATOM     18  C   UNL     1      -3.852  10.712  15.492  0.00  0.00    +0.000 A 
ATOM     19  C   UNL     1      -2.839   9.750  15.420  0.00  0.00    +0.000 A 
ATOM     20  C   UNL     1      -1.946   9.599  16.475  0.00  0.00    +0.000 A 
ATOM     21  C   UNL     1      -2.072  10.404  17.603  0.00  0.00    +0.000 A 
ENDBRANCH  12  16
BRANCH   1  22
ATOM     22  C   UNL     1       0.478  11.966  21.027  0.00  0.00    +0.000 C 
BRANCH  22  26
ATOM     23  C   UNL     1       1.777   8.658  18.542  0.00  0.00    +0.000 A 
ATOM     24  C   UNL     1       1.727   9.939  17.998  0.00  0.00    +0.000 A 
ATOM     25  C   UNL     1       1.303  11.021  18.779  0.00  0.00    +0.000 A 
ATOM     26  C   UNL     1       0.925  10.840  20.115  0.00  0.00    +0.000 A 
ATOM     27  C   UNL     1       0.992   9.537  20.646  0.00  0.00    +0.000 A 
ATOM     28  C   UNL     1       1.413   8.457  19.869  0.00  0.00    +0.000 A 
ENDBRANCH  22  26
ENDBRANCH   1  22
TORSDOF 3
ENDMDL
MODEL 4
REMARK VINA RESULT:      -7.1      1.086      1.516
REMARK  Name = 
REMARK  3 active torsions:
REMARK  status: ('A' for Active; 'I' for Inactive)
REMARK    1  A    between atoms: C_4  and  C_5
REMARK    2  A    between atoms: C_5  and  N_6
REMARK    3  A    between atoms: N_17  and  C_18
REMARK                            x       y       z     vdW  Elec       q    Type
REMARK                         _______ _______ _______ _____ _____    ______ ____
ROOT
ATOM      1  N   UNL     1      -0.287  11.044  21.880  0.00  0.00    +0.000 N 
ATOM      2  C   UNL     1      -1.500  11.718  21.893  0.00  0.00    +0.000 A 
ATOM      3  N   UNL     1      -2.181  11.840  23.081  0.00  0.00    +0.000 NA
ATOM      4  C   UNL     1      -3.449  12.363  23.166  0.00  0.00    +0.000 A 
ATOM      5  C   UNL     1      -4.016  12.490  24.424  0.00  0.00    +0.000 A 
ATOM      6  C   UNL     1      -5.284  13.055  24.632  0.00  0.00    +0.000 A 
ATOM      7  C   UNL     1      -6.041  13.513  23.556  0.00  0.00    +0.000 A 
ATOM      8  C   UNL     1      -5.554  13.357  22.263  0.00  0.00    +0.000 A 
ATOM      9  C   UNL     1      -4.272  12.778  22.074  0.00  0.00    +0.000 A 
ATOM     10  C   UNL     1      -3.587  12.544  20.864  0.00  0.00    +0.000 A 
ATOM     11  C   UNL     1      -4.117  12.380  19.601  0.00  0.00    +0.000 A 
ATOM     12  N   UNL     1      -3.040  12.002  18.814  0.00  0.00    +0.000 N 
ATOM     13  N   UNL     1      -1.876  12.202  19.463  0.00  0.00    +0.000 NA
ATOM     14  C   UNL     1      -2.224  12.131  20.753  0.00  0.00    +0.000 A 
ATOM     15  H   UNL     1       0.060  10.873  22.813  0.00  0.00    +0.000 HD
ENDROOT
BRANCH  12  16
ATOM     16  C   UNL     1      -2.987  11.329  17.568  0.00  0.00    +0.000 A 
ATOM     17  C   UNL     1      -3.966  11.524  16.593  0.00  0.00    +0.000 A 
ATOM     18  C   UNL     1      -3.964  10.712  15.453  0.00  0.00    +0.000 A 
ATOM     19  C   UNL     1      -2.980   9.734  15.274  0.00  0.00    +0.000 A 
ATOM     20  C   UNL     1      -1.998   9.549  16.241  0.00  0.00    +0.000 A 
ATOM     21  C   UNL     1      -2.006  10.335  17.388  0.00  0.00    +0.000 A 
ENDBRANCH  12  16
BRANCH   1  22
ATOM     22  C   UNL     1       0.696  11.324  20.836  0.00  0.00    +0.000 C 
BRANCH  22  26
ATOM     23  C   UNL     1       1.986   7.927  18.469  0.00  0.00    +0.000 A 
ATOM     24  C   UNL     1       1.826   7.777  19.844  0.00  0.00    +0.000 A 
ATOM     25  C   UNL     1       1.418   8.861  20.631  0.00  0.00    +0.000 A 
ATOM     26  C   UNL     1       1.162  10.112  20.053  0.00  0.00    +0.000 A 
ATOM     27  C   UNL     1       1.323  10.238  18.661  0.00  0.00    +0.000 A 
ATOM     28  C   UNL     1       1.730   9.158  17.875  0.00  0.00    +0.000 A 
ENDBRANCH  22  26
ENDBRANCH   1  22
TORSDOF 3
ENDMDL
MODEL 5
REMARK VINA RESULT:      -6.8      3.256      5.919
REMARK  Name = 
REMARK  3 active torsions:
REMARK  status: ('A' for Active; 'I' for Inactive)
REMARK    1  A    between atoms: C_4  and  C_5
REMARK    2  A    between atoms: C_5  and  N_6
REMARK    3  A    between atoms: N_17  and  C_18
REMARK                            x       y       z     vdW  Elec       q    Type
REMARK                         _______ _______ _______ _____ _____    ______ ____
ROOT
ATOM      1  N   UNL     1       0.772   9.410  17.435  0.00  0.00    +0.000 N 
ATOM      2  C   UNL     1      -0.261  10.147  17.997  0.00  0.00    +0.000 A 
ATOM      3  N   UNL     1      -1.559   9.804  17.703  0.00  0.00    +0.000 NA
ATOM      4  C   UNL     1      -2.639  10.559  18.096  0.00  0.00    +0.000 A 
ATOM      5  C   UNL     1      -3.907  10.086  17.791  0.00  0.00    +0.000 A 
ATOM      6  C   UNL     1      -5.079  10.749  18.186  0.00  0.00    +0.000 A 
ATOM      7  C   UNL     1      -5.011  11.938  18.909  0.00  0.00    +0.000 A 
ATOM      8  C   UNL     1      -3.770  12.496  19.192  0.00  0.00    +0.000 A 
ATOM      9  C   UNL     1      -2.597  11.813  18.779  0.00  0.00    +0.000 A 
ATOM     10  C   UNL     1      -1.252  12.187  18.974  0.00  0.00    +0.000 A 
ATOM     11  C   UNL     1      -0.737  13.451  19.179  0.00  0.00    +0.000 A 
ATOM     12  N   UNL     1       0.638  13.284  19.130  0.00  0.00    +0.000 N 
ATOM     13  N   UNL     1       0.967  11.978  19.188  0.00  0.00    +0.000 NA
ATOM     14  C   UNL     1      -0.117  11.363  18.699  0.00  0.00    +0.000 A 
ATOM     15  H   UNL     1       0.438   8.559  17.003  0.00  0.00    +0.000 HD
ENDROOT
BRANCH  12  16
ATOM     16  C   UNL     1       1.681  14.210  18.882  0.00  0.00    +0.000 A 
ATOM     17  C   UNL     1       1.441  15.585  18.850  0.00  0.00    +0.000 A 
ATOM     18  C   UNL     1       2.463  16.445  18.433  0.00  0.00    +0.000 A 
ATOM     19  C   UNL     1       3.719  15.944  18.078  0.00  0.00    +0.000 A 
ATOM     20  C   UNL     1       3.961  14.575  18.122  0.00  0.00    +0.000 A 
ATOM     21  C   UNL     1       2.944  13.710  18.511  0.00  0.00    +0.000 A 
ENDBRANCH  12  16
BRANCH   1  22
ATOM     22  C   UNL     1       2.080   9.368  18.083  0.00  0.00    +0.000 C 
BRANCH  22  26
ATOM     23  C   UNL     1       3.626   5.395  18.881  0.00  0.00    +0.000 A 
ATOM     24  C   UNL     1       4.064   6.083  17.752  0.00  0.00    +0.000 A 
ATOM     25  C   UNL     1       3.573   7.363  17.469  0.00  0.00    +0.000 A 
ATOM     26  C   UNL     1       2.638   7.977  18.312  0.00  0.00    +0.000 A 
ATOM     27  C   UNL     1       2.216   7.267  19.452  0.00  0.00    +0.000 A 
ATOM     28  C   UNL     1       2.703   5.990  19.735  0.00  0.00    +0.000 A 
ENDBRANCH  22  26
ENDBRANCH   1  22
TORSDOF 3
ENDMDL
MODEL 6
REMARK VINA RESULT:      -6.8      3.533      7.698
REMARK  Name = 
REMARK  3 active torsions:
REMARK  status: ('A' for Active; 'I' for Inactive)
REMARK    1  A    between atoms: C_4  and  C_5
REMARK    2  A    between atoms: C_5  and  N_6
REMARK    3  A    between atoms: N_17  and  C_18
REMARK                            x       y       z     vdW  Elec       q    Type
REMARK                         _______ _______ _______ _____ _____    ______ ____
ROOT
ATOM      1  N   UNL     1       1.292  13.541  18.519  0.00  0.00    +0.000 N 
ATOM      2  C   UNL     1       1.401  12.299  19.129  0.00  0.00    +0.000 A 
ATOM      3  N   UNL     1       1.761  11.212  18.368  0.00  0.00    +0.000 NA
ATOM      4  C   UNL     1       1.756   9.926  18.852  0.00  0.00    +0.000 A 
ATOM      5  C   UNL     1       2.192   8.914  18.010  0.00  0.00    +0.000 A 
ATOM      6  C   UNL     1       2.274   7.572  18.415  0.00  0.00    +0.000 A 
ATOM      7  C   UNL     1       1.906   7.198  19.705  0.00  0.00    +0.000 A 
ATOM      8  C   UNL     1       1.402   8.156  20.577  0.00  0.00    +0.000 A 
ATOM      9  C   UNL     1       1.320   9.506  20.146  0.00  0.00    +0.000 A 
ATOM     10  C   UNL     1       0.862  10.628  20.865  0.00  0.00    +0.000 A 
ATOM     11  C   UNL     1      -0.015  10.660  21.931  0.00  0.00    +0.000 A 
ATOM     12  N   UNL     1      -0.264  12.007  22.142  0.00  0.00    +0.000 N 
ATOM     13  N   UNL     1       0.612  12.772  21.461  0.00  0.00    +0.000 NA
ATOM     14  C   UNL     1       0.981  11.987  20.441  0.00  0.00    +0.000 A 
ATOM     15  H   UNL     1       1.682  13.539  17.587  0.00  0.00    +0.000 HD
ENDROOT
BRANCH  12  16
ATOM     16  C   UNL     1      -1.335  12.665  22.796  0.00  0.00    +0.000 A 
ATOM     17  C   UNL     1      -1.200  13.967  23.283  0.00  0.00    +0.000 A 
ATOM     18  C   UNL     1      -2.223  14.509  24.069  0.00  0.00    +0.000 A 
ATOM     19  C   UNL     1      -3.380  13.772  24.345  0.00  0.00    +0.000 A 
ATOM     20  C   UNL     1      -3.518  12.480  23.850  0.00  0.00    +0.000 A 
ATOM     21  C   UNL     1      -2.496  11.924  23.087  0.00  0.00    +0.000 A 
ENDBRANCH  12  16
BRANCH   1  22
ATOM     22  C   UNL     1       1.438  14.761  19.308  0.00  0.00    +0.000 C 
BRANCH  22  26
ATOM     23  C   UNL     1       0.106  18.359  17.285  0.00  0.00    +0.000 A 
ATOM     24  C   UNL     1       1.462  18.040  17.286  0.00  0.00    +0.000 A 
ATOM     25  C   UNL     1       1.917  16.888  17.939  0.00  0.00    +0.000 A 
ATOM     26  C   UNL     1       1.022  16.036  18.600  0.00  0.00    +0.000 A 
ATOM     27  C   UNL     1      -0.344  16.373  18.579  0.00  0.00    +0.000 A 
ATOM     28  C   UNL     1      -0.799  17.522  17.929  0.00  0.00    +0.000 A 
ENDBRANCH  22  26
ENDBRANCH   1  22
TORSDOF 3
ENDMDL
MODEL 7
REMARK VINA RESULT:      -6.8      3.395      6.365
REMARK  Name = 
REMARK  3 active torsions:
REMARK  status: ('A' for Active; 'I' for Inactive)
REMARK    1  A    between atoms: C_4  and  C_5
REMARK    2  A    between atoms: C_5  and  N_6
REMARK    3  A    between atoms: N_17  and  C_18
REMARK                            x       y       z     vdW  Elec       q    Type
REMARK                         _______ _______ _______ _____ _____    ______ ____
ROOT
ATOM      1  N   UNL     1       1.047   9.152  17.414  0.00  0.00    +0.000 N 
ATOM      2  C   UNL     1       0.040   9.888  18.024  0.00  0.00    +0.000 A 
ATOM      3  N   UNL     1      -1.256   9.720  17.600  0.00  0.00    +0.000 NA
ATOM      4  C   UNL     1      -2.295  10.504  18.044  0.00  0.00    +0.000 A 
ATOM      5  C   UNL     1      -3.571  10.207  17.590  0.00  0.00    +0.000 A 
ATOM      6  C   UNL     1      -4.710  10.910  18.014  0.00  0.00    +0.000 A 
ATOM      7  C   UNL     1      -4.597  11.959  18.924  0.00  0.00    +0.000 A 
ATOM      8  C   UNL     1      -3.338  12.344  19.369  0.00  0.00    +0.000 A 
ATOM      9  C   UNL     1      -2.199  11.626  18.922  0.00  0.00    +0.000 A 
ATOM     10  C   UNL     1      -0.845  11.834  19.258  0.00  0.00    +0.000 A 
ATOM     11  C   UNL     1      -0.243  12.996  19.696  0.00  0.00    +0.000 A 
ATOM     12  N   UNL     1       1.112  12.708  19.705  0.00  0.00    +0.000 N 
ATOM     13  N   UNL     1       1.325  11.384  19.570  0.00  0.00    +0.000 NA
ATOM     14  C   UNL     1       0.233  10.960  18.922  0.00  0.00    +0.000 A 
ATOM     15  H   UNL     1       0.676   8.415  16.830  0.00  0.00    +0.000 HD
ENDROOT
BRANCH  12  16
ATOM     16  C   UNL     1       2.246  13.558  19.674  0.00  0.00    +0.000 A 
ATOM     17  C   UNL     1       2.840  13.936  18.469  0.00  0.00    +0.000 A 
ATOM     18  C   UNL     1       4.053  14.633  18.497  0.00  0.00    +0.000 A 
ATOM     19  C   UNL     1       4.654  14.975  19.713  0.00  0.00    +0.000 A 
ATOM     20  C   UNL     1       4.055  14.609  20.914  0.00  0.00    +0.000 A 
ATOM     21  C   UNL     1       2.861  13.894  20.896  0.00  0.00    +0.000 A 
ENDBRANCH  12  16
BRANCH   1  22
ATOM     22  C   UNL     1       2.294   8.884  18.125  0.00  0.00    +0.000 C 
BRANCH  22  26
ATOM     23  C   UNL     1       3.919   4.913  17.495  0.00  0.00    +0.000 A 
ATOM     24  C   UNL     1       4.652   6.023  17.081  0.00  0.00    +0.000 A 
ATOM     25  C   UNL     1       4.144   7.315  17.266  0.00  0.00    +0.000 A 
ATOM     26  C   UNL     1       2.897   7.517  17.871  0.00  0.00    +0.000 A 
ATOM     27  C   UNL     1       2.177   6.382  18.289  0.00  0.00    +0.000 A 
ATOM     28  C   UNL     1       2.682   5.093  18.105  0.00  0.00    +0.000 A 
ENDBRANCH  22  26
ENDBRANCH   1  22
TORSDOF 3
ENDMDL
MODEL 8
REMARK VINA RESULT:      -6.7      2.968      7.295
REMARK  Name = 
REMARK  3 active torsions:
REMARK  status: ('A' for Active; 'I' for Inactive)
REMARK    1  A    between atoms: C_4  and  C_5
REMARK    2  A    between atoms: C_5  and  N_6
REMARK    3  A    between atoms: N_17  and  C_18
REMARK                            x       y       z     vdW  Elec       q    Type
REMARK                         _______ _______ _______ _____ _____    ______ ____
ROOT
ATOM      1  N   UNL     1       1.261  12.461  17.927  0.00  0.00    +0.000 N 
ATOM      2  C   UNL     1       1.383  11.317  18.704  0.00  0.00    +0.000 A 
ATOM      3  N   UNL     1       1.884  10.173  18.129  0.00  0.00    +0.000 NA
ATOM      4  C   UNL     1       1.909   8.961  18.777  0.00  0.00    +0.000 A 
ATOM      5  C   UNL     1       2.488   7.886  18.120  0.00  0.00    +0.000 A 
ATOM      6  C   UNL     1       2.612   6.616  18.705  0.00  0.00    +0.000 A 
ATOM      7  C   UNL     1       2.140   6.381  19.995  0.00  0.00    +0.000 A 
ATOM      8  C   UNL     1       1.493   7.402  20.682  0.00  0.00    +0.000 A 
ATOM      9  C   UNL     1       1.373   8.676  20.070  0.00  0.00    +0.000 A 
ATOM     10  C   UNL     1       0.776   9.843  20.589  0.00  0.00    +0.000 A 
ATOM     11  C   UNL     1      -0.203   9.945  21.556  0.00  0.00    +0.000 A 
ATOM     12  N   UNL     1      -0.554  11.286  21.563  0.00  0.00    +0.000 N 
ATOM     13  N   UNL     1       0.337  12.021  20.870  0.00  0.00    +0.000 NA
ATOM     14  C   UNL     1       0.854  11.143  20.001  0.00  0.00    +0.000 A 
ATOM     15  H   UNL     1       1.742  12.370  17.043  0.00  0.00    +0.000 HD
ENDROOT
BRANCH  12  16
ATOM     16  C   UNL     1      -1.723  11.941  22.024  0.00  0.00    +0.000 A 
ATOM     17  C   UNL     1      -2.189  11.767  23.328  0.00  0.00    +0.000 A 
ATOM     18  C   UNL     1      -3.435  12.295  23.683  0.00  0.00    +0.000 A 
ATOM     19  C   UNL     1      -4.197  13.013  22.755  0.00  0.00    +0.000 A 
ATOM     20  C   UNL     1      -3.727  13.196  21.459  0.00  0.00    +0.000 A 
ATOM     21  C   UNL     1      -2.500  12.654  21.091  0.00  0.00    +0.000 A 
ENDBRANCH  12  16
BRANCH   1  22
ATOM     22  C   UNL     1       1.251  13.778  18.557  0.00  0.00    +0.000 C 
BRANCH  22  26
ATOM     23  C   UNL     1       5.198  15.388  19.359  0.00  0.00    +0.000 A 
ATOM     24  C   UNL     1       4.470  14.818  20.401  0.00  0.00    +0.000 A 
ATOM     25  C   UNL     1       3.190  14.299  20.168  0.00  0.00    +0.000 A 
ATOM     26  C   UNL     1       2.620  14.340  18.889  0.00  0.00    +0.000 A 
ATOM     27  C   UNL     1       3.377  14.913  17.850  0.00  0.00    +0.000 A 
ATOM     28  C   UNL     1       4.652  15.431  18.080  0.00  0.00    +0.000 A 
ENDBRANCH  22  26
ENDBRANCH   1  22
TORSDOF 3
ENDMDL
MODEL 9
REMARK VINA RESULT:      -6.7      3.115      6.136
REMARK  Name = 
REMARK  3 active torsions:
REMARK  status: ('A' for Active; 'I' for Inactive)
REMARK    1  A    between atoms: C_4  and  C_5
REMARK    2  A    between atoms: C_5  and  N_6
REMARK    3  A    between atoms: N_17  and  C_18
REMARK                            x       y       z     vdW  Elec       q    Type
REMARK                         _______ _______ _______ _____ _____    ______ ____
ROOT
ATOM      1  N   UNL     1       0.993   9.310  17.425  0.00  0.00    +0.000 N 
ATOM      2  C   UNL     1      -0.034   9.996  18.059  0.00  0.00    +0.000 A 
ATOM      3  N   UNL     1      -1.316   9.867  17.579  0.00  0.00    +0.000 NA
ATOM      4  C   UNL     1      -2.369  10.614  18.051  0.00  0.00    +0.000 A 
ATOM      5  C   UNL     1      -3.629  10.359  17.531  0.00  0.00    +0.000 A 
ATOM      6  C   UNL     1      -4.781  11.028  17.973  0.00  0.00    +0.000 A 
ATOM      7  C   UNL     1      -4.699  11.999  18.969  0.00  0.00    +0.000 A 
ATOM      8  C   UNL     1      -3.456  12.344  19.485  0.00  0.00    +0.000 A 
ATOM      9  C   UNL     1      -2.302  11.661  19.020  0.00  0.00    +0.000 A 
ATOM     10  C   UNL     1      -0.961  11.838  19.417  0.00  0.00    +0.000 A 
ATOM     11  C   UNL     1      -0.374  12.959  19.968  0.00  0.00    +0.000 A 
ATOM     12  N   UNL     1       0.981  12.668  19.999  0.00  0.00    +0.000 N 
ATOM     13  N   UNL     1       1.198  11.359  19.764  0.00  0.00    +0.000 NA
ATOM     14  C   UNL     1       0.129  10.991  19.047  0.00  0.00    +0.000 A 
ATOM     15  H   UNL     1       0.642   8.624  16.771  0.00  0.00    +0.000 HD
ENDROOT
BRANCH  12  16
ATOM     16  C   UNL     1       2.115  13.515  20.076  0.00  0.00    +0.000 A 
ATOM     17  C   UNL     1       2.415  14.225  21.239  0.00  0.00    +0.000 A 
ATOM     18  C   UNL     1       3.442  15.175  21.211  0.00  0.00    +0.000 A 
ATOM     19  C   UNL     1       4.180  15.396  20.043  0.00  0.00    +0.000 A 
ATOM     20  C   UNL     1       3.887  14.680  18.888  0.00  0.00    +0.000 A 
ATOM     21  C   UNL     1       2.852  13.750  18.900  0.00  0.00    +0.000 A 
ENDBRANCH  12  16
BRANCH   1  22
ATOM     22  C   UNL     1       2.215   8.982  18.154  0.00  0.00    +0.000 C 
BRANCH  22  26
ATOM     23  C   UNL     1       2.257   4.998  19.867  0.00  0.00    +0.000 A 
ATOM     24  C   UNL     1       1.885   6.078  20.663  0.00  0.00    +0.000 A 
ATOM     25  C   UNL     1       1.872   7.374  20.135  0.00  0.00    +0.000 A 
ATOM     26  C   UNL     1       2.228   7.611  18.801  0.00  0.00    +0.000 A 
ATOM     27  C   UNL     1       2.592   6.503  18.012  0.00  0.00    +0.000 A 
ATOM     28  C   UNL     1       2.607   5.210  18.537  0.00  0.00    +0.000 A 
ENDBRANCH  22  26
ENDBRANCH   1  22
TORSDOF 3
ENDMDL
