MODEL 1
REMARK VINA RESULT:      -7.1      0.000      0.000
REMARK  Name = 
REMARK  2 active torsions:
REMARK  status: ('A' for Active; 'I' for Inactive)
REMARK    1  A    between atoms: N_3  and  C_4
REMARK    2  A    between atoms: N_11  and  C_12
REMARK                            x       y       z     vdW  Elec       q    Type
REMARK                         _______ _______ _______ _____ _____    ______ ____
ROOT
ATOM      1  O   UNL     1       7.599   9.185  17.683  0.00  0.00    +0.000 OA
ATOM      2  C   UNL     1       8.378   8.647  18.458  0.00  0.00    +0.000 C 
ATOM      3  N   UNL     1       8.366   7.294  18.769  0.00  0.00    +0.000 N 
ATOM      4  N   UNL     1       9.364   9.321  19.164  0.00  0.00    +0.000 N 
ATOM      5  H   UNL     1       8.925   7.002  19.555  0.00  0.00    +0.000 HD
ATOM      6  H   UNL     1      10.052   8.755  19.639  0.00  0.00    +0.000 HD
ENDROOT
BRANCH   4   7
ATOM      7  C   UNL     1       9.556  10.723  19.206  0.00  0.00    +0.000 A 
ATOM      8  C   UNL     1       9.201  11.526  20.300  0.00  0.00    +0.000 A 
ATOM      9  C   UNL     1       9.420  12.906  20.281  0.00  0.00    +0.000 A 
ATOM     10  C   UNL     1      10.003  13.493  19.169  0.00  0.00    +0.000 A 
ATOM     11  F   UNL     1      10.204  14.819  19.170  0.00  0.00    +0.000 F 
ATOM     12  C   UNL     1      10.373  12.714  18.078  0.00  0.00    +0.000 A 
ATOM     13 CL   UNL     1      11.111  13.434  16.699  0.00  0.00    +0.000 Cl
ATOM     14  C   UNL     1      10.148  11.332  18.094  0.00  0.00    +0.000 A 
ENDBRANCH   4   7
BRANCH   3  15
ATOM     15  C   UNL     1       7.432   6.349  18.282  0.00  0.00    +0.000 A 
ATOM     16  C   UNL     1       7.196   6.123  16.922  0.00  0.00    +0.000 A 
ATOM     17  C   UNL     1       6.191   5.247  16.501  0.00  0.00    +0.000 A 
ATOM     18  C   UNL     1       5.425   4.574  17.445  0.00  0.00    +0.000 A 
ATOM     19 CL   UNL     1       4.160   3.531  16.930  0.00  0.00    +0.000 Cl
ATOM     20  C   UNL     1       5.677   4.749  18.803  0.00  0.00    +0.000 A 
ATOM     21  C   UNL     1       6.684   5.627  19.221  0.00  0.00    +0.000 A 
ENDBRANCH   3  15
TORSDOF 2
ENDMDL
MODEL 2
REMARK VINA RESULT:      -6.9      1.295      1.685
REMARK  Name = 
REMARK  2 active torsions:
REMARK  status: ('A' for Active; 'I' for Inactive)
REMARK    1  A    between atoms: N_3  and  C_4
REMARK    2  A    between atoms: N_11  and  C_12
REMARK                            x       y       z     vdW  Elec       q    Type
REMARK                         _______ _______ _______ _____ _____    ______ ____
ROOT
ATOM      1  O   UNL     1       7.519   8.911  17.625  0.00  0.00    +0.000 OA
ATOM      2  C   UNL     1       8.274   8.400  18.440  0.00  0.00    +0.000 C 
ATOM      3  N   UNL     1       8.243   7.062  18.808  0.00  0.00    +0.000 N 
ATOM      4  N   UNL     1       9.248   9.096  19.142  0.00  0.00    +0.000 N 
ATOM      5  H   UNL     1       8.781   6.799  19.619  0.00  0.00    +0.000 HD
ATOM      6  H   UNL     1       9.920   8.545  19.656  0.00  0.00    +0.000 HD
ENDROOT
BRANCH   4   7
ATOM      7  C   UNL     1       9.452  10.496  19.129  0.00  0.00    +0.000 A 
ATOM      8  C   UNL     1       9.680  11.240  17.961  0.00  0.00    +0.000 A 
ATOM      9  C   UNL     1       9.872  12.623  18.013  0.00  0.00    +0.000 A 
ATOM     10  C   UNL     1       9.829  13.276  19.235  0.00  0.00    +0.000 A 
ATOM     11  F   UNL     1      10.015  14.603  19.265  0.00  0.00    +0.000 F 
ATOM     12  C   UNL     1       9.592  12.560  20.405  0.00  0.00    +0.000 A 
ATOM     13 CL   UNL     1       9.523  13.366  21.925  0.00  0.00    +0.000 Cl
ATOM     14  C   UNL     1       9.407  11.173  20.353  0.00  0.00    +0.000 A 
ENDBRANCH   4   7
BRANCH   3  15
ATOM     15  C   UNL     1       7.313   6.104  18.339  0.00  0.00    +0.000 A 
ATOM     16  C   UNL     1       7.163   5.766  16.990  0.00  0.00    +0.000 A 
ATOM     17  C   UNL     1       6.160   4.884  16.576  0.00  0.00    +0.000 A 
ATOM     18  C   UNL     1       5.309   4.318  17.517  0.00  0.00    +0.000 A 
ATOM     19 CL   UNL     1       4.047   3.270  17.005  0.00  0.00    +0.000 Cl
ATOM     20  C   UNL     1       5.473   4.605  18.870  0.00  0.00    +0.000 A 
ATOM     21  C   UNL     1       6.478   5.488  19.281  0.00  0.00    +0.000 A 
ENDBRANCH   3  15
TORSDOF 2
ENDMDL
MODEL 3
REMARK VINA RESULT:      -6.9      6.704      8.928
REMARK  Name = 
REMARK  2 active torsions:
REMARK  status: ('A' for Active; 'I' for Inactive)
REMARK    1  A    between atoms: N_3  and  C_4
REMARK    2  A    between atoms: N_11  and  C_12
REMARK                            x       y       z     vdW  Elec       q    Type
REMARK                         _______ _______ _______ _____ _____    ______ ____
ROOT
ATOM      1  O   UNL     1       2.134   7.857  18.861  0.00  0.00    +0.000 OA
ATOM      2  C   UNL     1       2.205   7.194  19.887  0.00  0.00    +0.000 C 
ATOM      3  N   UNL     1       1.628   7.556  21.096  0.00  0.00    +0.000 N 
ATOM      4  N   UNL     1       2.905   6.000  19.995  0.00  0.00    +0.000 N 
ATOM      5  H   UNL     1       1.910   7.032  21.910  0.00  0.00    +0.000 HD
ATOM      6  H   UNL     1       2.753   5.458  20.833  0.00  0.00    +0.000 HD
ENDROOT
BRANCH   4   7
ATOM      7  C   UNL     1       3.734   5.421  19.006  0.00  0.00    +0.000 A 
ATOM      8  C   UNL     1       3.246   4.738  17.882  0.00  0.00    +0.000 A 
ATOM      9  C   UNL     1       4.117   4.190  16.937  0.00  0.00    +0.000 A 
ATOM     10  C   UNL     1       5.487   4.328  17.105  0.00  0.00    +0.000 A 
ATOM     11  F   UNL     1       6.307   3.794  16.188  0.00  0.00    +0.000 F 
ATOM     12  C   UNL     1       5.992   5.012  18.207  0.00  0.00    +0.000 A 
ATOM     13 CL   UNL     1       7.691   5.200  18.415  0.00  0.00    +0.000 Cl
ATOM     14  C   UNL     1       5.119   5.555  19.156  0.00  0.00    +0.000 A 
ENDBRANCH   4   7
BRANCH   3  15
ATOM     15  C   UNL     1       0.919   8.756  21.340  0.00  0.00    +0.000 A 
ATOM     16  C   UNL     1       0.898   9.837  20.452  0.00  0.00    +0.000 A 
ATOM     17  C   UNL     1       0.260  11.034  20.791  0.00  0.00    +0.000 A 
ATOM     18  C   UNL     1      -0.379  11.150  22.019  0.00  0.00    +0.000 A 
ATOM     19 CL   UNL     1      -1.124  12.636  22.456  0.00  0.00    +0.000 Cl
ATOM     20  C   UNL     1      -0.411  10.069  22.896  0.00  0.00    +0.000 A 
ATOM     21  C   UNL     1       0.229   8.871  22.554  0.00  0.00    +0.000 A 
ENDBRANCH   3  15
TORSDOF 2
ENDMDL
MODEL 4
REMARK VINA RESULT:      -6.9      3.071      8.153
REMARK  Name = 
REMARK  2 active torsions:
REMARK  status: ('A' for Active; 'I' for Inactive)
REMARK    1  A    between atoms: N_3  and  C_4
REMARK    2  A    between atoms: N_11  and  C_12
REMARK                            x       y       z     vdW  Elec       q    Type
REMARK                         _______ _______ _______ _____ _____    ______ ____
ROOT
ATOM      1  O   UNL     1       7.558   9.252  17.704  0.00  0.00    +0.000 OA
ATOM      2  C   UNL     1       8.298   8.682  18.495  0.00  0.00    +0.000 C 
ATOM      3  N   UNL     1       9.318   9.304  19.202  0.00  0.00    +0.000 N 
ATOM      4  N   UNL     1       8.245   7.323  18.770  0.00  0.00    +0.000 N 
ATOM      5  H   UNL     1       9.976   8.703  19.674  0.00  0.00    +0.000 HD
ATOM      6  H   UNL     1       8.784   6.997  19.559  0.00  0.00    +0.000 HD
ENDROOT
BRANCH   4   7
ATOM      7  C   UNL     1       7.434   6.366  18.115  0.00  0.00    +0.000 A 
ATOM      8  C   UNL     1       7.402   6.192  16.723  0.00  0.00    +0.000 A 
ATOM      9  C   UNL     1       6.581   5.227  16.136  0.00  0.00    +0.000 A 
ATOM     10  C   UNL     1       5.789   4.420  16.939  0.00  0.00    +0.000 A 
ATOM     11  F   UNL     1       5.007   3.499  16.356  0.00  0.00    +0.000 F 
ATOM     12  C   UNL     1       5.813   4.567  18.322  0.00  0.00    +0.000 A 
ATOM     13 CL   UNL     1       4.843   3.559  19.326  0.00  0.00    +0.000 Cl
ATOM     14  C   UNL     1       6.631   5.539  18.910  0.00  0.00    +0.000 A 
ENDBRANCH   4   7
BRANCH   3  15
ATOM     15  C   UNL     1       9.687  10.664  19.083  0.00  0.00    +0.000 A 
ATOM     16  C   UNL     1      10.157  11.238  17.897  0.00  0.00    +0.000 A 
ATOM     17  C   UNL     1      10.601  12.564  17.865  0.00  0.00    +0.000 A 
ATOM     18  C   UNL     1      10.558  13.332  19.021  0.00  0.00    +0.000 A 
ATOM     19 CL   UNL     1      11.144  14.948  18.995  0.00  0.00    +0.000 Cl
ATOM     20  C   UNL     1      10.048  12.794  20.200  0.00  0.00    +0.000 A 
ATOM     21  C   UNL     1       9.605  11.466  20.229  0.00  0.00    +0.000 A 
ENDBRANCH   3  15
TORSDOF 2
ENDMDL
MODEL 5
REMARK VINA RESULT:      -6.8      3.602      8.277
REMARK  Name = 
REMARK  2 active torsions:
REMARK  status: ('A' for Active; 'I' for Inactive)
REMARK    1  A    between atoms: N_3  and  C_4
REMARK    2  A    between atoms: N_11  and  C_12
REMARK                            x       y       z     vdW  Elec       q    Type
REMARK                         _______ _______ _______ _____ _____    ______ ____
ROOT
ATOM      1  O   UNL     1       8.420   7.431  18.533  0.00  0.00    +0.000 OA
ATOM      2  C   UNL     1       7.814   8.164  17.764  0.00  0.00    +0.000 C 
ATOM      3  N   UNL     1       8.086   9.513  17.588  0.00  0.00    +0.000 N 
ATOM      4  N   UNL     1       6.741   7.757  16.983  0.00  0.00    +0.000 N 
ATOM      5  H   UNL     1       7.406  10.053  17.075  0.00  0.00    +0.000 HD
ATOM      6  H   UNL     1       6.431   8.397  16.267  0.00  0.00    +0.000 HD
ENDROOT
BRANCH   4   7
ATOM      7  C   UNL     1       6.101   6.495  17.028  0.00  0.00    +0.000 A 
ATOM      8  C   UNL     1       6.681   5.311  16.550  0.00  0.00    +0.000 A 
ATOM      9  C   UNL     1       5.998   4.094  16.625  0.00  0.00    +0.000 A 
ATOM     10  C   UNL     1       4.732   4.050  17.188  0.00  0.00    +0.000 A 
ATOM     11  F   UNL     1       4.094   2.873  17.251  0.00  0.00    +0.000 F 
ATOM     12  C   UNL     1       4.143   5.212  17.679  0.00  0.00    +0.000 A 
ATOM     13 CL   UNL     1       2.577   5.163  18.392  0.00  0.00    +0.000 Cl
ATOM     14  C   UNL     1       4.825   6.432  17.597  0.00  0.00    +0.000 A 
ENDBRANCH   4   7
BRANCH   3  15
ATOM     15  C   UNL     1       9.063  10.252  18.297  0.00  0.00    +0.000 A 
ATOM     16  C   UNL     1       9.088  10.363  19.691  0.00  0.00    +0.000 A 
ATOM     17  C   UNL     1      10.020  11.187  20.331  0.00  0.00    +0.000 A 
ATOM     18  C   UNL     1      10.948  11.893  19.576  0.00  0.00    +0.000 A 
ATOM     19 CL   UNL     1      12.063  12.941  20.357  0.00  0.00    +0.000 Cl
ATOM     20  C   UNL     1      10.969  11.758  18.190  0.00  0.00    +0.000 A 
ATOM     21  C   UNL     1      10.036  10.932  17.553  0.00  0.00    +0.000 A 
ENDBRANCH   3  15
TORSDOF 2
ENDMDL
MODEL 6
REMARK VINA RESULT:      -6.8      3.051      8.173
REMARK  Name = 
REMARK  2 active torsions:
REMARK  status: ('A' for Active; 'I' for Inactive)
REMARK    1  A    between atoms: N_3  and  C_4
REMARK    2  A    between atoms: N_11  and  C_12
REMARK                            x       y       z     vdW  Elec       q    Type
REMARK                         _______ _______ _______ _____ _____    ______ ____
ROOT
ATOM      1  O   UNL     1       7.531   9.301  17.711  0.00  0.00    +0.000 OA
ATOM      2  C   UNL     1       8.293   8.739  18.484  0.00  0.00    +0.000 C 
ATOM      3  N   UNL     1       9.315   9.372  19.177  0.00  0.00    +0.000 N 
ATOM      4  N   UNL     1       8.267   7.377  18.750  0.00  0.00    +0.000 N 
ATOM      5  H   UNL     1       9.992   8.779  19.634  0.00  0.00    +0.000 HD
ATOM      6  H   UNL     1       8.826   7.054  19.527  0.00  0.00    +0.000 HD
ENDROOT
BRANCH   4   7
ATOM      7  C   UNL     1       7.460   6.411  18.103  0.00  0.00    +0.000 A 
ATOM      8  C   UNL     1       7.423   6.233  16.712  0.00  0.00    +0.000 A 
ATOM      9  C   UNL     1       6.606   5.258  16.133  0.00  0.00    +0.000 A 
ATOM     10  C   UNL     1       5.825   4.447  16.942  0.00  0.00    +0.000 A 
ATOM     11  F   UNL     1       5.048   3.518  16.367  0.00  0.00    +0.000 F 
ATOM     12  C   UNL     1       5.856   4.599  18.325  0.00  0.00    +0.000 A 
ATOM     13 CL   UNL     1       4.900   3.586  19.337  0.00  0.00    +0.000 Cl
ATOM     14  C   UNL     1       6.669   5.580  18.905  0.00  0.00    +0.000 A 
ENDBRANCH   4   7
BRANCH   3  15
ATOM     15  C   UNL     1       9.660  10.739  19.062  0.00  0.00    +0.000 A 
ATOM     16  C   UNL     1       9.400  11.690  20.055  0.00  0.00    +0.000 A 
ATOM     17  C   UNL     1       9.675  13.044  19.844  0.00  0.00    +0.000 A 
ATOM     18  C   UNL     1      10.233  13.455  18.640  0.00  0.00    +0.000 A 
ATOM     19 CL   UNL     1      10.530  15.125  18.362  0.00  0.00    +0.000 Cl
ATOM     20  C   UNL     1      10.545  12.517  17.659  0.00  0.00    +0.000 A 
ATOM     21  C   UNL     1      10.268  11.162  17.872  0.00  0.00    +0.000 A 
ENDBRANCH   3  15
TORSDOF 2
ENDMDL
MODEL 7
REMARK VINA RESULT:      -6.8      8.113     10.293
REMARK  Name = 
REMARK  2 active torsions:
REMARK  status: ('A' for Active; 'I' for Inactive)
REMARK    1  A    between atoms: N_3  and  C_4
REMARK    2  A    between atoms: N_11  and  C_12
REMARK                            x       y       z     vdW  Elec       q    Type
REMARK                         _______ _______ _______ _____ _____    ______ ____
ROOT
ATOM      1  O   UNL     1       0.741   6.479  20.844  0.00  0.00    +0.000 OA
ATOM      2  C   UNL     1       1.713   7.134  20.493  0.00  0.00    +0.000 C 
ATOM      3  N   UNL     1       1.880   8.488  20.747  0.00  0.00    +0.000 N 
ATOM      4  N   UNL     1       2.773   6.620  19.759  0.00  0.00    +0.000 N 
ATOM      5  H   UNL     1       2.623   8.956  20.250  0.00  0.00    +0.000 HD
ATOM      6  H   UNL     1       3.593   7.203  19.675  0.00  0.00    +0.000 HD
ENDROOT
BRANCH   4   7
ATOM      7  C   UNL     1       2.856   5.323  19.199  0.00  0.00    +0.000 A 
ATOM      8  C   UNL     1       2.242   4.955  17.992  0.00  0.00    +0.000 A 
ATOM      9  C   UNL     1       2.363   3.657  17.490  0.00  0.00    +0.000 A 
ATOM     10  C   UNL     1       3.106   2.717  18.187  0.00  0.00    +0.000 A 
ATOM     11  F   UNL     1       3.210   1.477  17.688  0.00  0.00    +0.000 F 
ATOM     12  C   UNL     1       3.732   3.064  19.380  0.00  0.00    +0.000 A 
ATOM     13 CL   UNL     1       4.669   1.907  20.245  0.00  0.00    +0.000 Cl
ATOM     14  C   UNL     1       3.606   4.363  19.887  0.00  0.00    +0.000 A 
ENDBRANCH   4   7
BRANCH   3  15
ATOM     15  C   UNL     1       0.942   9.322  21.399  0.00  0.00    +0.000 A 
ATOM     16  C   UNL     1       0.608   9.201  22.752  0.00  0.00    +0.000 A 
ATOM     17  C   UNL     1      -0.399   9.990  23.318  0.00  0.00    +0.000 A 
ATOM     18  C   UNL     1      -1.066  10.922  22.534  0.00  0.00    +0.000 A 
ATOM     19 CL   UNL     1      -2.335  11.860  23.217  0.00  0.00    +0.000 Cl
ATOM     20  C   UNL     1      -0.715  11.091  21.197  0.00  0.00    +0.000 A 
ATOM     21  C   UNL     1       0.293  10.299  20.633  0.00  0.00    +0.000 A 
ENDBRANCH   3  15
TORSDOF 2
ENDMDL
MODEL 8
REMARK VINA RESULT:      -6.8      6.633      8.937
REMARK  Name = 
REMARK  2 active torsions:
REMARK  status: ('A' for Active; 'I' for Inactive)
REMARK    1  A    between atoms: N_3  and  C_4
REMARK    2  A    between atoms: N_11  and  C_12
REMARK                            x       y       z     vdW  Elec       q    Type
REMARK                         _______ _______ _______ _____ _____    ______ ____
ROOT
ATOM      1  O   UNL     1       2.129   7.756  18.776  0.00  0.00    +0.000 OA
ATOM      2  C   UNL     1       2.263   7.139  19.823  0.00  0.00    +0.000 C 
ATOM      3  N   UNL     1       1.721   7.531  21.039  0.00  0.00    +0.000 N 
ATOM      4  N   UNL     1       3.010   5.977  19.952  0.00  0.00    +0.000 N 
ATOM      5  H   UNL     1       2.053   7.052  21.862  0.00  0.00    +0.000 HD
ATOM      6  H   UNL     1       2.911   5.465  20.817  0.00  0.00    +0.000 HD
ENDROOT
BRANCH   4   7
ATOM      7  C   UNL     1       3.822   5.386  18.954  0.00  0.00    +0.000 A 
ATOM      8  C   UNL     1       3.313   4.704  17.839  0.00  0.00    +0.000 A 
ATOM      9  C   UNL     1       4.167   4.144  16.885  0.00  0.00    +0.000 A 
ATOM     10  C   UNL     1       5.540   4.269  17.036  0.00  0.00    +0.000 A 
ATOM     11  F   UNL     1       6.343   3.724  16.111  0.00  0.00    +0.000 F 
ATOM     12  C   UNL     1       6.066   4.951  18.129  0.00  0.00    +0.000 A 
ATOM     13 CL   UNL     1       7.769   5.122  18.316  0.00  0.00    +0.000 Cl
ATOM     14  C   UNL     1       5.209   5.506  19.088  0.00  0.00    +0.000 A 
ENDBRANCH   4   7
BRANCH   3  15
ATOM     15  C   UNL     1       0.978   8.714  21.263  0.00  0.00    +0.000 A 
ATOM     16  C   UNL     1       0.556   9.135  22.528  0.00  0.00    +0.000 A 
ATOM     17  C   UNL     1      -0.259  10.262  22.677  0.00  0.00    +0.000 A 
ATOM     18  C   UNL     1      -0.642  10.987  21.556  0.00  0.00    +0.000 A 
ATOM     19 CL   UNL     1      -1.681  12.345  21.733  0.00  0.00    +0.000 Cl
ATOM     20  C   UNL     1      -0.192  10.612  20.293  0.00  0.00    +0.000 A 
ATOM     21  C   UNL     1       0.624   9.484  20.147  0.00  0.00    +0.000 A 
ENDBRANCH   3  15
TORSDOF 2
ENDMDL
MODEL 9
REMARK VINA RESULT:      -6.8      0.215      1.123
REMARK  Name = 
REMARK  2 active torsions:
REMARK  status: ('A' for Active; 'I' for Inactive)
REMARK    1  A    between atoms: N_3  and  C_4
REMARK    2  A    between atoms: N_11  and  C_12
REMARK                            x       y       z     vdW  Elec       q    Type
REMARK                         _______ _______ _______ _____ _____    ______ ____
ROOT
ATOM      1  O   UNL     1       7.636   9.312  17.725  0.00  0.00    +0.000 OA
ATOM      2  C   UNL     1       8.418   8.759  18.485  0.00  0.00    +0.000 C 
ATOM      3  N   UNL     1       8.380   7.409  18.804  0.00  0.00    +0.000 N 
ATOM      4  N   UNL     1       9.435   9.413  19.167  0.00  0.00    +0.000 N 
ATOM      5  H   UNL     1       8.949   7.107  19.579  0.00  0.00    +0.000 HD
ATOM      6  H   UNL     1      10.119   8.832  19.629  0.00  0.00    +0.000 HD
ENDROOT
BRANCH   4   7
ATOM      7  C   UNL     1       9.662  10.809  19.197  0.00  0.00    +0.000 A 
ATOM      8  C   UNL     1       9.359  11.624  20.298  0.00  0.00    +0.000 A 
ATOM      9  C   UNL     1       9.610  12.999  20.267  0.00  0.00    +0.000 A 
ATOM     10  C   UNL     1      10.173  13.568  19.136  0.00  0.00    +0.000 A 
ATOM     11  F   UNL     1      10.406  14.889  19.126  0.00  0.00    +0.000 F 
ATOM     12  C   UNL     1      10.491  12.776  18.037  0.00  0.00    +0.000 A 
ATOM     13 CL   UNL     1      11.205  13.474  16.633  0.00  0.00    +0.000 Cl
ATOM     14  C   UNL     1      10.234  11.400  18.066  0.00  0.00    +0.000 A 
ENDBRANCH   4   7
BRANCH   3  15
ATOM     15  C   UNL     1       7.413   6.484  18.342  0.00  0.00    +0.000 A 
ATOM     16  C   UNL     1       6.680   5.644  19.188  0.00  0.00    +0.000 A 
ATOM     17  C   UNL     1       5.809   4.682  18.668  0.00  0.00    +0.000 A 
ATOM     18  C   UNL     1       5.652   4.567  17.292  0.00  0.00    +0.000 A 
ATOM     19 CL   UNL     1       4.617   3.354  16.649  0.00  0.00    +0.000 Cl
ATOM     20  C   UNL     1       6.336   5.426  16.436  0.00  0.00    +0.000 A 
ATOM     21  C   UNL     1       7.207   6.389  16.960  0.00  0.00    +0.000 A 
ENDBRANCH   3  15
TORSDOF 2
ENDMDL
