MODEL 1
REMARK VINA RESULT:      -7.9      0.000      0.000
REMARK  Name = 
REMARK  2 active torsions:
REMARK  status: ('A' for Active; 'I' for Inactive)
REMARK    1  A    between atoms: C_2  and  C_18
REMARK    2  A    between atoms: N_3  and  C_4
REMARK                            x       y       z     vdW  Elec       q    Type
REMARK                         _______ _______ _______ _____ _____    ______ ____
ROOT
ATOM      1  C   UNL     1       2.025   6.737  20.139  0.00  0.00    +0.000 A 
ATOM      2  C   UNL     1       2.070   5.402  20.527  0.00  0.00    +0.000 A 
ATOM      3  C   UNL     1       2.804   4.476  19.788  0.00  0.00    +0.000 A 
ATOM      4  C   UNL     1       3.496   4.854  18.653  0.00  0.00    +0.000 A 
ATOM      5  N   UNL     1       4.218   3.931  17.998  0.00  0.00    +0.000 NA
ATOM      6  C   UNL     1       4.882   4.334  16.904  0.00  0.00    +0.000 A 
ATOM      7  C   UNL     1       5.646   3.412  16.200  0.00  0.00    +0.000 A 
ATOM      8  C   UNL     1       6.345   3.779  15.052  0.00  0.00    +0.000 A 
ATOM      9  C   UNL     1       6.283   5.092  14.606  0.00  0.00    +0.000 A 
ATOM     10  C   UNL     1       5.524   6.028  15.313  0.00  0.00    +0.000 A 
ATOM     11  C   UNL     1       4.818   5.672  16.456  0.00  0.00    +0.000 A 
ATOM     12  N   UNL     1       4.089   6.597  17.116  0.00  0.00    +0.000 NA
ATOM     13  C   UNL     1       3.429   6.196  18.220  0.00  0.00    +0.000 A 
ATOM     14  C   UNL     1       2.681   7.111  18.961  0.00  0.00    +0.000 A 
ENDROOT
BRANCH   1  17
ATOM     15  O   UNL     1       1.137   9.360  19.258  0.00  0.00    +0.000 OA
ATOM     16  C   UNL     1       0.966   8.982  20.416  0.00  0.00    +0.000 C 
ATOM     17  N   UNL     1       1.360   7.735  20.886  0.00  0.00    +0.000 N 
ATOM     18  H   UNL     1       1.031   7.487  21.812  0.00  0.00    +0.000 HD
BRANCH  16  19
ATOM     19  C   UNL     1       0.268   9.836  21.370  0.00  0.00    +0.000 A 
ATOM     20  C   UNL     1      -0.326   9.410  22.545  0.00  0.00    +0.000 A 
ATOM     21  C   UNL     1      -0.961  10.463  23.256  0.00  0.00    +0.000 A 
ATOM     22  C   UNL     1      -0.836  11.667  22.601  0.00  0.00    +0.000 A 
ATOM     23  S   UNL     1       0.061  11.520  21.149  0.00  0.00    +0.000 S 
ENDBRANCH  16  19
ENDBRANCH   1  17
TORSDOF 2
ENDMDL
MODEL 2
REMARK VINA RESULT:      -7.8      1.198      1.383
REMARK  Name = 
REMARK  2 active torsions:
REMARK  status: ('A' for Active; 'I' for Inactive)
REMARK    1  A    between atoms: C_2  and  C_18
REMARK    2  A    between atoms: N_3  and  C_4
REMARK                            x       y       z     vdW  Elec       q    Type
REMARK                         _______ _______ _______ _____ _____    ______ ____
ROOT
ATOM      1  C   UNL     1       1.393   7.849  20.175  0.00  0.00    +0.000 A 
ATOM      2  C   UNL     1       1.458   6.618  20.822  0.00  0.00    +0.000 A 
ATOM      3  C   UNL     1       2.276   5.603  20.329  0.00  0.00    +0.000 A 
ATOM      4  C   UNL     1       3.034   5.786  19.188  0.00  0.00    +0.000 A 
ATOM      5  N   UNL     1       3.833   4.790  18.776  0.00  0.00    +0.000 NA
ATOM      6  C   UNL     1       4.559   5.003  17.667  0.00  0.00    +0.000 A 
ATOM      7  C   UNL     1       5.404   4.001  17.210  0.00  0.00    +0.000 A 
ATOM      8  C   UNL     1       6.170   4.170  16.058  0.00  0.00    +0.000 A 
ATOM      9  C   UNL     1       6.092   5.366  15.358  0.00  0.00    +0.000 A 
ATOM     10  C   UNL     1       5.251   6.383  15.816  0.00  0.00    +0.000 A 
ATOM     11  C   UNL     1       4.479   6.223  16.960  0.00  0.00    +0.000 A 
ATOM     12  N   UNL     1       3.671   7.222  17.376  0.00  0.00    +0.000 NA
ATOM     13  C   UNL     1       2.949   7.013  18.494  0.00  0.00    +0.000 A 
ATOM     14  C   UNL     1       2.117   8.017  18.990  0.00  0.00    +0.000 A 
ENDROOT
BRANCH   1  17
ATOM     15  O   UNL     1       1.789   9.356  22.628  0.00  0.00    +0.000 OA
ATOM     16  C   UNL     1       0.869   9.620  21.855  0.00  0.00    +0.000 C 
ATOM     17  N   UNL     1       0.641   8.939  20.666  0.00  0.00    +0.000 N 
ATOM     18  H   UNL     1      -0.053   9.345  20.050  0.00  0.00    +0.000 HD
BRANCH  16  19
ATOM     19  C   UNL     1      -0.028  10.735  22.138  0.00  0.00    +0.000 A 
ATOM     20  C   UNL     1      -1.046  10.729  23.076  0.00  0.00    +0.000 A 
ATOM     21  C   UNL     1      -1.776  11.948  23.105  0.00  0.00    +0.000 A 
ATOM     22  C   UNL     1      -1.296  12.850  22.185  0.00  0.00    +0.000 A 
ATOM     23  S   UNL     1       0.040  12.230  21.310  0.00  0.00    +0.000 S 
ENDBRANCH  16  19
ENDBRANCH   1  17
TORSDOF 2
ENDMDL
MODEL 3
REMARK VINA RESULT:      -7.7      5.123      7.042
REMARK  Name = 
REMARK  2 active torsions:
REMARK  status: ('A' for Active; 'I' for Inactive)
REMARK    1  A    between atoms: C_2  and  C_18
REMARK    2  A    between atoms: N_3  and  C_4
REMARK                            x       y       z     vdW  Elec       q    Type
REMARK                         _______ _______ _______ _____ _____    ______ ____
ROOT
ATOM      1  C   UNL     1       7.717   7.921  18.091  0.00  0.00    +0.000 A 
ATOM      2  C   UNL     1       8.400   6.890  18.728  0.00  0.00    +0.000 A 
ATOM      3  C   UNL     1       7.773   5.667  18.963  0.00  0.00    +0.000 A 
ATOM      4  C   UNL     1       6.463   5.450  18.579  0.00  0.00    +0.000 A 
ATOM      5  N   UNL     1       5.917   4.243  18.795  0.00  0.00    +0.000 NA
ATOM      6  C   UNL     1       4.646   4.064  18.406  0.00  0.00    +0.000 A 
ATOM      7  C   UNL     1       4.045   2.828  18.605  0.00  0.00    +0.000 A 
ATOM      8  C   UNL     1       2.724   2.597  18.228  0.00  0.00    +0.000 A 
ATOM      9  C   UNL     1       1.995   3.619  17.635  0.00  0.00    +0.000 A 
ATOM     10  C   UNL     1       2.595   4.863  17.423  0.00  0.00    +0.000 A 
ATOM     11  C   UNL     1       3.910   5.107  17.800  0.00  0.00    +0.000 A 
ATOM     12  N   UNL     1       4.461   6.321  17.588  0.00  0.00    +0.000 NA
ATOM     13  C   UNL     1       5.740   6.498  17.969  0.00  0.00    +0.000 A 
ATOM     14  C   UNL     1       6.374   7.722  17.751  0.00  0.00    +0.000 A 
ENDROOT
BRANCH   1  17
ATOM     15  O   UNL     1       9.029   9.821  19.855  0.00  0.00    +0.000 OA
ATOM     16  C   UNL     1       8.927  10.033  18.649  0.00  0.00    +0.000 C 
ATOM     17  N   UNL     1       8.320   9.155  17.759  0.00  0.00    +0.000 N 
ATOM     18  H   UNL     1       8.431   9.374  16.776  0.00  0.00    +0.000 HD
BRANCH  16  19
ATOM     19  C   UNL     1       9.505  11.239  18.066  0.00  0.00    +0.000 A 
ATOM     20  C   UNL     1      10.838  11.411  17.736  0.00  0.00    +0.000 A 
ATOM     21  C   UNL     1      11.115  12.705  17.216  0.00  0.00    +0.000 A 
ATOM     22  C   UNL     1       9.983  13.486  17.166  0.00  0.00    +0.000 A 
ATOM     23  S   UNL     1       8.597  12.648  17.726  0.00  0.00    +0.000 S 
ENDBRANCH  16  19
ENDBRANCH   1  17
TORSDOF 2
ENDMDL
MODEL 4
REMARK VINA RESULT:      -7.7      1.954      3.419
REMARK  Name = 
REMARK  2 active torsions:
REMARK  status: ('A' for Active; 'I' for Inactive)
REMARK    1  A    between atoms: C_2  and  C_18
REMARK    2  A    between atoms: N_3  and  C_4
REMARK                            x       y       z     vdW  Elec       q    Type
REMARK                         _______ _______ _______ _____ _____    ______ ____
ROOT
ATOM      1  C   UNL     1       0.636   9.624  19.641  0.00  0.00    +0.000 A 
ATOM      2  C   UNL     1       1.141  10.106  18.437  0.00  0.00    +0.000 A 
ATOM      3  C   UNL     1       2.094   9.376  17.728  0.00  0.00    +0.000 A 
ATOM      4  C   UNL     1       2.566   8.167  18.202  0.00  0.00    +0.000 A 
ATOM      5  N   UNL     1       3.457   7.486  17.463  0.00  0.00    +0.000 NA
ATOM      6  C   UNL     1       3.890   6.313  17.950  0.00  0.00    +0.000 A 
ATOM      7  C   UNL     1       4.807   5.573  17.214  0.00  0.00    +0.000 A 
ATOM      8  C   UNL     1       5.295   4.355  17.682  0.00  0.00    +0.000 A 
ATOM      9  C   UNL     1       4.852   3.867  18.904  0.00  0.00    +0.000 A 
ATOM     10  C   UNL     1       3.923   4.600  19.646  0.00  0.00    +0.000 A 
ATOM     11  C   UNL     1       3.434   5.820  19.192  0.00  0.00    +0.000 A 
ATOM     12  N   UNL     1       2.541   6.508  19.934  0.00  0.00    +0.000 NA
ATOM     13  C   UNL     1       2.097   7.681  19.442  0.00  0.00    +0.000 A 
ATOM     14  C   UNL     1       1.153   8.426  20.149  0.00  0.00    +0.000 A 
ENDROOT
BRANCH   1  17
ATOM     15  O   UNL     1       0.902  11.753  21.601  0.00  0.00    +0.000 OA
ATOM     16  C   UNL     1      -0.198  11.289  21.305  0.00  0.00    +0.000 C 
ATOM     17  N   UNL     1      -0.383  10.279  20.368  0.00  0.00    +0.000 N 
ATOM     18  H   UNL     1      -1.342  10.090  20.105  0.00  0.00    +0.000 HD
BRANCH  16  19
ATOM     19  C   UNL     1      -1.409  11.833  21.908  0.00  0.00    +0.000 A 
ATOM     20  C   UNL     1      -1.841  11.591  23.200  0.00  0.00    +0.000 A 
ATOM     21  C   UNL     1      -3.075  12.230  23.498  0.00  0.00    +0.000 A 
ATOM     22  C   UNL     1      -3.553  12.940  22.421  0.00  0.00    +0.000 A 
ATOM     23  S   UNL     1      -2.503  12.848  21.071  0.00  0.00    +0.000 S 
ENDBRANCH  16  19
ENDBRANCH   1  17
TORSDOF 2
ENDMDL
MODEL 5
REMARK VINA RESULT:      -7.6      5.542      6.996
REMARK  Name = 
REMARK  2 active torsions:
REMARK  status: ('A' for Active; 'I' for Inactive)
REMARK    1  A    between atoms: C_2  and  C_18
REMARK    2  A    between atoms: N_3  and  C_4
REMARK                            x       y       z     vdW  Elec       q    Type
REMARK                         _______ _______ _______ _____ _____    ______ ____
ROOT
ATOM      1  C   UNL     1       7.839   7.298  18.217  0.00  0.00    +0.000 A 
ATOM      2  C   UNL     1       7.556   7.151  16.863  0.00  0.00    +0.000 A 
ATOM      3  C   UNL     1       6.663   6.172  16.430  0.00  0.00    +0.000 A 
ATOM      4  C   UNL     1       6.044   5.322  17.327  0.00  0.00    +0.000 A 
ATOM      5  N   UNL     1       5.164   4.421  16.863  0.00  0.00    +0.000 NA
ATOM      6  C   UNL     1       4.577   3.615  17.761  0.00  0.00    +0.000 A 
ATOM      7  C   UNL     1       3.655   2.673  17.323  0.00  0.00    +0.000 A 
ATOM      8  C   UNL     1       3.028   1.807  18.216  0.00  0.00    +0.000 A 
ATOM      9  C   UNL     1       3.324   1.890  19.570  0.00  0.00    +0.000 A 
ATOM     10  C   UNL     1       4.243   2.842  20.020  0.00  0.00    +0.000 A 
ATOM     11  C   UNL     1       4.880   3.707  19.138  0.00  0.00    +0.000 A 
ATOM     12  N   UNL     1       5.767   4.612  19.601  0.00  0.00    +0.000 NA
ATOM     13  C   UNL     1       6.349   5.428  18.701  0.00  0.00    +0.000 A 
ATOM     14  C   UNL     1       7.255   6.403  19.121  0.00  0.00    +0.000 A 
ENDROOT
BRANCH   1  17
ATOM     15  O   UNL     1       7.754  10.149  17.659  0.00  0.00    +0.000 OA
ATOM     16  C   UNL     1       8.598   9.669  18.414  0.00  0.00    +0.000 C 
ATOM     17  N   UNL     1       8.677   8.317  18.724  0.00  0.00    +0.000 N 
ATOM     18  H   UNL     1       9.317   8.070  19.469  0.00  0.00    +0.000 HD
BRANCH  16  19
ATOM     19  C   UNL     1       9.559  10.537  19.085  0.00  0.00    +0.000 A 
ATOM     20  C   UNL     1       9.523  10.894  20.421  0.00  0.00    +0.000 A 
ATOM     21  C   UNL     1      10.573  11.781  20.784  0.00  0.00    +0.000 A 
ATOM     22  C   UNL     1      11.381  12.078  19.712  0.00  0.00    +0.000 A 
ATOM     23  S   UNL     1      10.881  11.272  18.285  0.00  0.00    +0.000 S 
ENDBRANCH  16  19
ENDBRANCH   1  17
TORSDOF 2
ENDMDL
MODEL 6
REMARK VINA RESULT:      -7.5      2.133      3.310
REMARK  Name = 
REMARK  2 active torsions:
REMARK  status: ('A' for Active; 'I' for Inactive)
REMARK    1  A    between atoms: C_2  and  C_18
REMARK    2  A    between atoms: N_3  and  C_4
REMARK                            x       y       z     vdW  Elec       q    Type
REMARK                         _______ _______ _______ _____ _____    ______ ____
ROOT
ATOM      1  C   UNL     1       1.378   9.001  19.790  0.00  0.00    +0.000 A 
ATOM      2  C   UNL     1       1.828   9.159  18.483  0.00  0.00    +0.000 A 
ATOM      3  C   UNL     1       2.414   8.092  17.804  0.00  0.00    +0.000 A 
ATOM      4  C   UNL     1       2.570   6.859  18.409  0.00  0.00    +0.000 A 
ATOM      5  N   UNL     1       3.107   5.854  17.700  0.00  0.00    +0.000 NA
ATOM      6  C   UNL     1       3.240   4.669  18.316  0.00  0.00    +0.000 A 
ATOM      7  C   UNL     1       3.785   3.600  17.616  0.00  0.00    +0.000 A 
ATOM      8  C   UNL     1       3.953   2.354  18.215  0.00  0.00    +0.000 A 
ATOM      9  C   UNL     1       3.562   2.173  19.535  0.00  0.00    +0.000 A 
ATOM     10  C   UNL     1       3.004   3.240  20.243  0.00  0.00    +0.000 A 
ATOM     11  C   UNL     1       2.837   4.490  19.658  0.00  0.00    +0.000 A 
ATOM     12  N   UNL     1       2.301   5.504  20.369  0.00  0.00    +0.000 NA
ATOM     13  C   UNL     1       2.158   6.691  19.749  0.00  0.00    +0.000 A 
ATOM     14  C   UNL     1       1.585   7.770  20.423  0.00  0.00    +0.000 A 
ENDROOT
BRANCH   1  17
ATOM     15  O   UNL     1      -1.198  10.218  19.215  0.00  0.00    +0.000 OA
ATOM     16  C   UNL     1      -0.521  10.576  20.177  0.00  0.00    +0.000 C 
ATOM     17  N   UNL     1       0.710  10.021  20.504  0.00  0.00    +0.000 N 
ATOM     18  H   UNL     1       1.096  10.297  21.400  0.00  0.00    +0.000 HD
BRANCH  16  19
ATOM     19  C   UNL     1      -1.023  11.602  21.084  0.00  0.00    +0.000 A 
ATOM     20  C   UNL     1      -0.715  11.705  22.429  0.00  0.00    +0.000 A 
ATOM     21  C   UNL     1      -1.381  12.788  23.066  0.00  0.00    +0.000 A 
ATOM     22  C   UNL     1      -2.181  13.480  22.187  0.00  0.00    +0.000 A 
ATOM     23  S   UNL     1      -2.109  12.834  20.603  0.00  0.00    +0.000 S 
ENDBRANCH  16  19
ENDBRANCH   1  17
TORSDOF 2
ENDMDL
MODEL 7
REMARK VINA RESULT:      -7.5      1.216      1.527
REMARK  Name = 
REMARK  2 active torsions:
REMARK  status: ('A' for Active; 'I' for Inactive)
REMARK    1  A    between atoms: C_2  and  C_18
REMARK    2  A    between atoms: N_3  and  C_4
REMARK                            x       y       z     vdW  Elec       q    Type
REMARK                         _______ _______ _______ _____ _____    ______ ____
ROOT
ATOM      1  C   UNL     1       1.577   7.949  20.291  0.00  0.00    +0.000 A 
ATOM      2  C   UNL     1       1.388   6.662  20.785  0.00  0.00    +0.000 A 
ATOM      3  C   UNL     1       2.007   5.573  20.175  0.00  0.00    +0.000 A 
ATOM      4  C   UNL     1       2.814   5.739  19.065  0.00  0.00    +0.000 A 
ATOM      5  N   UNL     1       3.416   4.662  18.536  0.00  0.00    +0.000 NA
ATOM      6  C   UNL     1       4.196   4.860  17.462  0.00  0.00    +0.000 A 
ATOM      7  C   UNL     1       4.843   3.773  16.888  0.00  0.00    +0.000 A 
ATOM      8  C   UNL     1       5.655   3.926  15.766  0.00  0.00    +0.000 A 
ATOM      9  C   UNL     1       5.826   5.188  15.214  0.00  0.00    +0.000 A 
ATOM     10  C   UNL     1       5.186   6.288  15.792  0.00  0.00    +0.000 A 
ATOM     11  C   UNL     1       4.369   6.147  16.907  0.00  0.00    +0.000 A 
ATOM     12  N   UNL     1       3.760   7.227  17.439  0.00  0.00    +0.000 NA
ATOM     13  C   UNL     1       2.984   7.032  18.523  0.00  0.00    +0.000 A 
ATOM     14  C   UNL     1       2.349   8.112  19.135  0.00  0.00    +0.000 A 
ENDROOT
BRANCH   1  17
ATOM     15  O   UNL     1      -0.461   9.755  19.276  0.00  0.00    +0.000 OA
ATOM     16  C   UNL     1       0.067   9.936  20.372  0.00  0.00    +0.000 C 
ATOM     17  N   UNL     1       1.037   9.100  20.909  0.00  0.00    +0.000 N 
ATOM     18  H   UNL     1       1.284   9.272  21.877  0.00  0.00    +0.000 HD
BRANCH  16  19
ATOM     19  C   UNL     1      -0.354  11.052  21.212  0.00  0.00    +0.000 A 
ATOM     20  C   UNL     1      -0.274  12.391  20.869  0.00  0.00    +0.000 A 
ATOM     21  C   UNL     1      -0.727  13.253  21.903  0.00  0.00    +0.000 A 
ATOM     22  C   UNL     1      -1.139  12.547  23.010  0.00  0.00    +0.000 A 
ATOM     23  S   UNL     1      -0.994  10.855  22.786  0.00  0.00    +0.000 S 
ENDBRANCH  16  19
ENDBRANCH   1  17
TORSDOF 2
ENDMDL
MODEL 8
REMARK VINA RESULT:      -7.4      2.420      4.319
REMARK  Name = 
REMARK  2 active torsions:
REMARK  status: ('A' for Active; 'I' for Inactive)
REMARK    1  A    between atoms: C_2  and  C_18
REMARK    2  A    between atoms: N_3  and  C_4
REMARK                            x       y       z     vdW  Elec       q    Type
REMARK                         _______ _______ _______ _____ _____    ______ ____
ROOT
ATOM      1  C   UNL     1       0.019  10.426  20.519  0.00  0.00    +0.000 A 
ATOM      2  C   UNL     1       0.337  10.924  19.259  0.00  0.00    +0.000 A 
ATOM      3  C   UNL     1       1.150  10.192  18.395  0.00  0.00    +0.000 A 
ATOM      4  C   UNL     1       1.665   8.964  18.766  0.00  0.00    +0.000 A 
ATOM      5  N   UNL     1       2.413   8.283  17.883  0.00  0.00    +0.000 NA
ATOM      6  C   UNL     1       2.893   7.093  18.274  0.00  0.00    +0.000 A 
ATOM      7  C   UNL     1       3.665   6.352  17.388  0.00  0.00    +0.000 A 
ATOM      8  C   UNL     1       4.196   5.116  17.751  0.00  0.00    +0.000 A 
ATOM      9  C   UNL     1       3.942   4.610  19.019  0.00  0.00    +0.000 A 
ATOM     10  C   UNL     1       3.158   5.345  19.912  0.00  0.00    +0.000 A 
ATOM     11  C   UNL     1       2.628   6.582  19.564  0.00  0.00    +0.000 A 
ATOM     12  N   UNL     1       1.879   7.271  20.450  0.00  0.00    +0.000 NA
ATOM     13  C   UNL     1       1.388   8.461  20.056  0.00  0.00    +0.000 A 
ATOM     14  C   UNL     1       0.584   9.209  20.917  0.00  0.00    +0.000 A 
ENDROOT
BRANCH   1  17
ATOM     15  O   UNL     1       0.467  12.881  22.007  0.00  0.00    +0.000 OA
ATOM     16  C   UNL     1      -0.587  12.256  22.106  0.00  0.00    +0.000 C 
ATOM     17  N   UNL     1      -0.858  11.084  21.410  0.00  0.00    +0.000 N 
ATOM     18  H   UNL     1      -1.812  10.749  21.463  0.00  0.00    +0.000 HD
BRANCH  16  19
ATOM     19  C   UNL     1      -1.663  12.763  22.950  0.00  0.00    +0.000 A 
ATOM     20  C   UNL     1      -2.833  12.089  23.252  0.00  0.00    +0.000 A 
ATOM     21  C   UNL     1      -3.712  12.847  24.072  0.00  0.00    +0.000 A 
ATOM     22  C   UNL     1      -3.187  14.084  24.371  0.00  0.00    +0.000 A 
ATOM     23  S   UNL     1      -1.637  14.311  23.679  0.00  0.00    +0.000 S 
ENDBRANCH  16  19
ENDBRANCH   1  17
TORSDOF 2
ENDMDL
MODEL 9
REMARK VINA RESULT:      -7.4      2.828      4.290
REMARK  Name = 
REMARK  2 active torsions:
REMARK  status: ('A' for Active; 'I' for Inactive)
REMARK    1  A    between atoms: C_2  and  C_18
REMARK    2  A    between atoms: N_3  and  C_4
REMARK                            x       y       z     vdW  Elec       q    Type
REMARK                         _______ _______ _______ _____ _____    ______ ____
ROOT
ATOM      1  C   UNL     1       1.547   9.525  19.113  0.00  0.00    +0.000 A 
ATOM      2  C   UNL     1       2.211   9.244  17.923  0.00  0.00    +0.000 A 
ATOM      3  C   UNL     1       2.712   7.966  17.678  0.00  0.00    +0.000 A 
ATOM      4  C   UNL     1       2.570   6.953  18.607  0.00  0.00    +0.000 A 
ATOM      5  N   UNL     1       3.038   5.730  18.307  0.00  0.00    +0.000 NA
ATOM      6  C   UNL     1       2.880   4.769  19.230  0.00  0.00    +0.000 A 
ATOM      7  C   UNL     1       3.344   3.488  18.957  0.00  0.00    +0.000 A 
ATOM      8  C   UNL     1       3.213   2.459  19.887  0.00  0.00    +0.000 A 
ATOM      9  C   UNL     1       2.602   2.715  21.106  0.00  0.00    +0.000 A 
ATOM     10  C   UNL     1       2.124   3.998  21.385  0.00  0.00    +0.000 A 
ATOM     11  C   UNL     1       2.254   5.034  20.468  0.00  0.00    +0.000 A 
ATOM     12  N   UNL     1       1.788   6.265  20.767  0.00  0.00    +0.000 NA
ATOM     13  C   UNL     1       1.937   7.229  19.838  0.00  0.00    +0.000 A 
ATOM     14  C   UNL     1       1.452   8.515  20.077  0.00  0.00    +0.000 A 
ENDROOT
BRANCH   1  17
ATOM     15  O   UNL     1      -1.036  10.529  18.240  0.00  0.00    +0.000 OA
ATOM     16  C   UNL     1      -0.286  11.211  18.934  0.00  0.00    +0.000 C 
ATOM     17  N   UNL     1       0.954  10.777  19.388  0.00  0.00    +0.000 N 
ATOM     18  H   UNL     1       1.408  11.371  20.071  0.00  0.00    +0.000 HD
BRANCH  16  19
ATOM     19  C   UNL     1      -0.699  12.539  19.373  0.00  0.00    +0.000 A 
ATOM     20  C   UNL     1      -0.146  13.735  18.948  0.00  0.00    +0.000 A 
ATOM     21  C   UNL     1      -0.732  14.868  19.575  0.00  0.00    +0.000 A 
ATOM     22  C   UNL     1      -1.716  14.504  20.465  0.00  0.00    +0.000 A 
ATOM     23  S   UNL     1      -1.938  12.806  20.522  0.00  0.00    +0.000 S 
ENDBRANCH  16  19
ENDBRANCH   1  17
TORSDOF 2
ENDMDL
