MODEL 1
REMARK VINA RESULT:      -7.9      0.000      0.000
REMARK  Name = 
REMARK  4 active torsions:
REMARK  status: ('A' for Active; 'I' for Inactive)
REMARK    1  A    between atoms: C_1  and  S_2
REMARK    2  A    between atoms: S_2  and  C_3
REMARK    3  A    between atoms: C_7  and  N_8
REMARK    4  A    between atoms: C_11  and  C_12
REMARK                            x       y       z     vdW  Elec       q    Type
REMARK                         _______ _______ _______ _____ _____    ______ ____
ROOT
ATOM      1  N   UNL     1       4.294   3.453  17.068  0.00  0.00    +0.000 N 
ATOM      2  C   UNL     1       3.676   4.175  18.033  0.00  0.00    +0.000 A 
ATOM      3  N   UNL     1       3.332   5.437  17.919  0.00  0.00    +0.000 NA
ATOM      4  C   UNL     1       2.730   5.880  19.078  0.00  0.00    +0.000 A 
ATOM      5  C   UNL     1       2.624   4.938  20.085  0.00  0.00    +0.000 A 
ATOM      6  S   UNL     1       3.251   3.443  19.537  0.00  0.00    +0.000 S 
ATOM      7  H   UNL     1       4.445   2.469  17.260  0.00  0.00    +0.000 HD
ENDROOT
BRANCH   4   8
ATOM      8  C   UNL     1       2.210   7.227  19.175  0.00  0.00    +0.000 A 
ATOM      9  C   UNL     1       2.040   7.996  18.013  0.00  0.00    +0.000 A 
ATOM     10  C   UNL     1       1.442   9.261  18.071  0.00  0.00    +0.000 A 
ATOM     11  C   UNL     1       1.051   9.781  19.307  0.00  0.00    +0.000 A 
ATOM     12  C   UNL     1       1.340   9.055  20.467  0.00  0.00    +0.000 A 
ATOM     13  C   UNL     1       1.883   7.776  20.416  0.00  0.00    +0.000 A 
ATOM     14  N   UNL     1       1.114   9.648  21.736  0.00  0.00    +0.000 N 
ATOM     15  C   UNL     1      -0.197  10.045  21.918  0.00  0.00    +0.000 C 
ATOM     16  O   UNL     1      -0.898   9.570  22.810  0.00  0.00    +0.000 OA
ATOM     17  C   UNL     1      -0.685  11.172  21.022  0.00  0.00    +0.000 C 
ATOM     18  S   UNL     1       0.208  11.350  19.425  0.00  0.00    +0.000 S 
ATOM     19  H   UNL     1       1.649  10.518  21.711  0.00  0.00    +0.000 HD
ENDBRANCH   4   8
BRANCH   1  24
ATOM     20  C   UNL     1       6.324   4.068  14.019  0.00  0.00    +0.000 A 
ATOM     21  C   UNL     1       7.302   4.939  14.508  0.00  0.00    +0.000 A 
ATOM     22  C   UNL     1       7.281   5.340  15.843  0.00  0.00    +0.000 A 
ATOM     23  C   UNL     1       6.280   4.870  16.694  0.00  0.00    +0.000 A 
ATOM     24  C   UNL     1       5.298   3.984  16.228  0.00  0.00    +0.000 A 
ATOM     25  C   UNL     1       5.340   3.580  14.887  0.00  0.00    +0.000 A 
BRANCH  20  27
ATOM     26  C   UNL     1       4.626   3.300  11.987  0.00  0.00    +0.000 C 
ATOM     27  S   UNL     1       6.392   3.552  12.312  0.00  0.00    +0.000 S 
ENDBRANCH  20  27
ENDBRANCH   1  24
TORSDOF 3
ENDMDL
MODEL 2
REMARK VINA RESULT:      -7.9      3.765      8.756
REMARK  Name = 
REMARK  4 active torsions:
REMARK  status: ('A' for Active; 'I' for Inactive)
REMARK    1  A    between atoms: C_1  and  S_2
REMARK    2  A    between atoms: S_2  and  C_3
REMARK    3  A    between atoms: C_7  and  N_8
REMARK    4  A    between atoms: C_11  and  C_12
REMARK                            x       y       z     vdW  Elec       q    Type
REMARK                         _______ _______ _______ _____ _____    ______ ____
ROOT
ATOM      1  N   UNL     1      -0.651  11.229  19.558  0.00  0.00    +0.000 N 
ATOM      2  C   UNL     1       0.078  10.242  20.131  0.00  0.00    +0.000 A 
ATOM      3  N   UNL     1       0.557   9.198  19.494  0.00  0.00    +0.000 NA
ATOM      4  C   UNL     1       1.247   8.378  20.361  0.00  0.00    +0.000 A 
ATOM      5  C   UNL     1       1.281   8.806  21.676  0.00  0.00    +0.000 A 
ATOM      6  S   UNL     1       0.472  10.307  21.810  0.00  0.00    +0.000 S 
ATOM      7  H   UNL     1      -0.904  12.012  20.149  0.00  0.00    +0.000 HD
ENDROOT
BRANCH   4   8
ATOM      8  C   UNL     1       1.917   7.188  19.882  0.00  0.00    +0.000 A 
ATOM      9  C   UNL     1       2.919   7.297  18.905  0.00  0.00    +0.000 A 
ATOM     10  C   UNL     1       3.653   6.174  18.503  0.00  0.00    +0.000 A 
ATOM     11  C   UNL     1       3.354   4.924  19.049  0.00  0.00    +0.000 A 
ATOM     12  C   UNL     1       2.271   4.813  19.928  0.00  0.00    +0.000 A 
ATOM     13  C   UNL     1       1.572   5.929  20.375  0.00  0.00    +0.000 A 
ATOM     14  N   UNL     1       1.843   3.528  20.349  0.00  0.00    +0.000 N 
ATOM     15  C   UNL     1       2.843   2.804  20.970  0.00  0.00    +0.000 C 
ATOM     16  O   UNL     1       2.742   2.436  22.139  0.00  0.00    +0.000 OA
ATOM     17  C   UNL     1       4.020   2.404  20.096  0.00  0.00    +0.000 C 
ATOM     18  S   UNL     1       4.315   3.479  18.633  0.00  0.00    +0.000 S 
ATOM     19  H   UNL     1       1.656   3.023  19.481  0.00  0.00    +0.000 HD
ENDBRANCH   4   8
BRANCH   1  24
ATOM     20  C   UNL     1      -3.871  11.387  17.712  0.00  0.00    +0.000 A 
ATOM     21  C   UNL     1      -3.620  10.523  16.642  0.00  0.00    +0.000 A 
ATOM     22  C   UNL     1      -2.379   9.902  16.518  0.00  0.00    +0.000 A 
ATOM     23  C   UNL     1      -1.383  10.143  17.465  0.00  0.00    +0.000 A 
ATOM     24  C   UNL     1      -1.619  10.994  18.555  0.00  0.00    +0.000 A 
ATOM     25  C   UNL     1      -2.875  11.601  18.673  0.00  0.00    +0.000 A 
BRANCH  20  27
ATOM     26  C   UNL     1      -6.431  10.750  18.513  0.00  0.00    +0.000 C 
ATOM     27  S   UNL     1      -5.479  12.148  17.859  0.00  0.00    +0.000 S 
ENDBRANCH  20  27
ENDBRANCH   1  24
TORSDOF 3
ENDMDL
MODEL 3
REMARK VINA RESULT:      -7.8      1.273      1.396
REMARK  Name = 
REMARK  4 active torsions:
REMARK  status: ('A' for Active; 'I' for Inactive)
REMARK    1  A    between atoms: C_1  and  S_2
REMARK    2  A    between atoms: S_2  and  C_3
REMARK    3  A    between atoms: C_7  and  N_8
REMARK    4  A    between atoms: C_11  and  C_12
REMARK                            x       y       z     vdW  Elec       q    Type
REMARK                         _______ _______ _______ _____ _____    ______ ____
ROOT
ATOM      1  N   UNL     1       3.857   3.691  18.272  0.00  0.00    +0.000 N 
ATOM      2  C   UNL     1       3.170   4.581  19.027  0.00  0.00    +0.000 A 
ATOM      3  N   UNL     1       2.975   5.841  18.709  0.00  0.00    +0.000 NA
ATOM      4  C   UNL     1       2.245   6.480  19.688  0.00  0.00    +0.000 A 
ATOM      5  C   UNL     1       1.889   5.690  20.767  0.00  0.00    +0.000 A 
ATOM      6  S   UNL     1       2.442   4.091  20.513  0.00  0.00    +0.000 S 
ATOM      7  H   UNL     1       3.877   2.733  18.601  0.00  0.00    +0.000 HD
ENDROOT
BRANCH   4   8
ATOM      8  C   UNL     1       1.853   7.864  19.537  0.00  0.00    +0.000 A 
ATOM      9  C   UNL     1       1.907   8.471  18.273  0.00  0.00    +0.000 A 
ATOM     10  C   UNL     1       1.434   9.776  18.083  0.00  0.00    +0.000 A 
ATOM     11  C   UNL     1       0.944  10.496  19.175  0.00  0.00    +0.000 A 
ATOM     12  C   UNL     1       1.012   9.921  20.448  0.00  0.00    +0.000 A 
ATOM     13  C   UNL     1       1.428   8.608  20.639  0.00  0.00    +0.000 A 
ATOM     14  N   UNL     1       0.687  10.704  21.586  0.00  0.00    +0.000 N 
ATOM     15  C   UNL     1      -0.591  11.228  21.532  0.00  0.00    +0.000 C 
ATOM     16  O   UNL     1      -1.441  10.942  22.372  0.00  0.00    +0.000 OA
ATOM     17  C   UNL     1      -0.848  12.251  20.439  0.00  0.00    +0.000 C 
ATOM     18  S   UNL     1       0.252  12.128  18.971  0.00  0.00    +0.000 S 
ATOM     19  H   UNL     1       1.305  11.516  21.523  0.00  0.00    +0.000 HD
ENDBRANCH   4   8
BRANCH   1  24
ATOM     20  C   UNL     1       6.180   4.168  15.413  0.00  0.00    +0.000 A 
ATOM     21  C   UNL     1       7.338   4.602  16.066  0.00  0.00    +0.000 A 
ATOM     22  C   UNL     1       7.346   4.756  17.451  0.00  0.00    +0.000 A 
ATOM     23  C   UNL     1       6.196   4.477  18.189  0.00  0.00    +0.000 A 
ATOM     24  C   UNL     1       5.028   4.026  17.556  0.00  0.00    +0.000 A 
ATOM     25  C   UNL     1       5.039   3.863  16.165  0.00  0.00    +0.000 A 
BRANCH  20  27
ATOM     26  C   UNL     1       7.599   5.038  13.215  0.00  0.00    +0.000 C 
ATOM     27  S   UNL     1       6.208   3.955  13.642  0.00  0.00    +0.000 S 
ENDBRANCH  20  27
ENDBRANCH   1  24
TORSDOF 3
ENDMDL
MODEL 4
REMARK VINA RESULT:      -7.6      2.527      3.425
REMARK  Name = 
REMARK  4 active torsions:
REMARK  status: ('A' for Active; 'I' for Inactive)
REMARK    1  A    between atoms: C_1  and  S_2
REMARK    2  A    between atoms: S_2  and  C_3
REMARK    3  A    between atoms: C_7  and  N_8
REMARK    4  A    between atoms: C_11  and  C_12
REMARK                            x       y       z     vdW  Elec       q    Type
REMARK                         _______ _______ _______ _____ _____    ______ ____
ROOT
ATOM      1  N   UNL     1       3.620   3.967  17.970  0.00  0.00    +0.000 N 
ATOM      2  C   UNL     1       2.929   4.633  18.925  0.00  0.00    +0.000 A 
ATOM      3  N   UNL     1       2.694   5.925  18.916  0.00  0.00    +0.000 NA
ATOM      4  C   UNL     1       1.971   6.293  20.032  0.00  0.00    +0.000 A 
ATOM      5  C   UNL     1       1.662   5.261  20.900  0.00  0.00    +0.000 A 
ATOM      6  S   UNL     1       2.250   3.784  20.266  0.00  0.00    +0.000 S 
ATOM      7  H   UNL     1       3.673   2.959  18.063  0.00  0.00    +0.000 HD
ENDROOT
BRANCH   4   8
ATOM      8  C   UNL     1       1.540   7.661  20.218  0.00  0.00    +0.000 A 
ATOM      9  C   UNL     1       1.060   8.078  21.469  0.00  0.00    +0.000 A 
ATOM     10  C   UNL     1       0.737   9.421  21.702  0.00  0.00    +0.000 A 
ATOM     11  C   UNL     1       0.853  10.347  20.663  0.00  0.00    +0.000 A 
ATOM     12  C   UNL     1       1.215   9.893  19.391  0.00  0.00    +0.000 A 
ATOM     13  C   UNL     1       1.590   8.573  19.162  0.00  0.00    +0.000 A 
ATOM     14  N   UNL     1       1.162  10.785  18.290  0.00  0.00    +0.000 N 
ATOM     15  C   UNL     1       1.946  11.909  18.470  0.00  0.00    +0.000 C 
ATOM     16  O   UNL     1       2.885  12.168  17.719  0.00  0.00    +0.000 OA
ATOM     17  C   UNL     1       1.517  12.852  19.581  0.00  0.00    +0.000 C 
ATOM     18  S   UNL     1       0.535  12.082  20.932  0.00  0.00    +0.000 S 
ATOM     19  H   UNL     1       0.202  11.134  18.289  0.00  0.00    +0.000 HD
ENDBRANCH   4   8
BRANCH   1  24
ATOM     20  C   UNL     1       6.816   5.802  17.503  0.00  0.00    +0.000 A 
ATOM     21  C   UNL     1       7.030   5.640  16.131  0.00  0.00    +0.000 A 
ATOM     22  C   UNL     1       6.129   4.907  15.361  0.00  0.00    +0.000 A 
ATOM     23  C   UNL     1       5.008   4.333  15.962  0.00  0.00    +0.000 A 
ATOM     24  C   UNL     1       4.765   4.496  17.333  0.00  0.00    +0.000 A 
ATOM     25  C   UNL     1       5.673   5.246  18.091  0.00  0.00    +0.000 A 
BRANCH  20  27
ATOM     26  C   UNL     1       7.798   8.375  17.635  0.00  0.00    +0.000 C 
ATOM     27  S   UNL     1       7.974   6.767  18.457  0.00  0.00    +0.000 S 
ENDBRANCH  20  27
ENDBRANCH   1  24
TORSDOF 3
ENDMDL
MODEL 5
REMARK VINA RESULT:      -7.5      1.942      2.386
REMARK  Name = 
REMARK  4 active torsions:
REMARK  status: ('A' for Active; 'I' for Inactive)
REMARK    1  A    between atoms: C_1  and  S_2
REMARK    2  A    between atoms: S_2  and  C_3
REMARK    3  A    between atoms: C_7  and  N_8
REMARK    4  A    between atoms: C_11  and  C_12
REMARK                            x       y       z     vdW  Elec       q    Type
REMARK                         _______ _______ _______ _____ _____    ______ ____
ROOT
ATOM      1  N   UNL     1       4.136   3.637  17.799  0.00  0.00    +0.000 N 
ATOM      2  C   UNL     1       3.458   4.287  18.775  0.00  0.00    +0.000 A 
ATOM      3  N   UNL     1       3.056   5.535  18.704  0.00  0.00    +0.000 NA
ATOM      4  C   UNL     1       2.402   5.899  19.862  0.00  0.00    +0.000 A 
ATOM      5  C   UNL     1       2.315   4.911  20.825  0.00  0.00    +0.000 A 
ATOM      6  S   UNL     1       3.028   3.472  20.234  0.00  0.00    +0.000 S 
ATOM      7  H   UNL     1       4.328   2.654  17.954  0.00  0.00    +0.000 HD
ENDROOT
BRANCH   4   8
ATOM      8  C   UNL     1       1.815   7.215  20.000  0.00  0.00    +0.000 A 
ATOM      9  C   UNL     1       1.156   7.565  21.188  0.00  0.00    +0.000 A 
ATOM     10  C   UNL     1       0.674   8.865  21.385  0.00  0.00    +0.000 A 
ATOM     11  C   UNL     1       0.811   9.811  20.366  0.00  0.00    +0.000 A 
ATOM     12  C   UNL     1       1.359   9.412  19.143  0.00  0.00    +0.000 A 
ATOM     13  C   UNL     1       1.890   8.140  18.957  0.00  0.00    +0.000 A 
ATOM     14  N   UNL     1       1.340  10.308  18.044  0.00  0.00    +0.000 N 
ATOM     15  C   UNL     1       1.979  11.504  18.313  0.00  0.00    +0.000 C 
ATOM     16  O   UNL     1       2.965  11.866  17.675  0.00  0.00    +0.000 OA
ATOM     17  C   UNL     1       1.333  12.384  19.370  0.00  0.00    +0.000 C 
ATOM     18  S   UNL     1       0.290  11.502  20.600  0.00  0.00    +0.000 S 
ATOM     19  H   UNL     1       0.355  10.558  17.935  0.00  0.00    +0.000 HD
ENDBRANCH   4   8
BRANCH   1  24
ATOM     20  C   UNL     1       6.231   4.459  14.844  0.00  0.00    +0.000 A 
ATOM     21  C   UNL     1       7.137   5.372  15.393  0.00  0.00    +0.000 A 
ATOM     22  C   UNL     1       7.045   5.732  16.736  0.00  0.00    +0.000 A 
ATOM     23  C   UNL     1       6.045   5.179  17.536  0.00  0.00    +0.000 A 
ATOM     24  C   UNL     1       5.135   4.251  17.011  0.00  0.00    +0.000 A 
ATOM     25  C   UNL     1       5.248   3.889  15.663  0.00  0.00    +0.000 A 
BRANCH  20  27
ATOM     26  C   UNL     1       7.744   5.098  12.630  0.00  0.00    +0.000 C 
ATOM     27  S   UNL     1       6.391   3.998  13.128  0.00  0.00    +0.000 S 
ENDBRANCH  20  27
ENDBRANCH   1  24
TORSDOF 3
ENDMDL
MODEL 6
REMARK VINA RESULT:      -7.4      2.150      2.659
REMARK  Name = 
REMARK  4 active torsions:
REMARK  status: ('A' for Active; 'I' for Inactive)
REMARK    1  A    between atoms: C_1  and  S_2
REMARK    2  A    between atoms: S_2  and  C_3
REMARK    3  A    between atoms: C_7  and  N_8
REMARK    4  A    between atoms: C_11  and  C_12
REMARK                            x       y       z     vdW  Elec       q    Type
REMARK                         _______ _______ _______ _____ _____    ______ ____
ROOT
ATOM      1  N   UNL     1       3.829   4.249  18.165  0.00  0.00    +0.000 N 
ATOM      2  C   UNL     1       3.030   4.887  19.054  0.00  0.00    +0.000 A 
ATOM      3  N   UNL     1       2.795   6.179  19.056  0.00  0.00    +0.000 NA
ATOM      4  C   UNL     1       1.948   6.515  20.090  0.00  0.00    +0.000 A 
ATOM      5  C   UNL     1       1.542   5.458  20.886  0.00  0.00    +0.000 A 
ATOM      6  S   UNL     1       2.203   4.000  20.282  0.00  0.00    +0.000 S 
ATOM      7  H   UNL     1       3.873   3.238  18.234  0.00  0.00    +0.000 HD
ENDROOT
BRANCH   4   8
ATOM      8  C   UNL     1       1.495   7.878  20.266  0.00  0.00    +0.000 A 
ATOM      9  C   UNL     1       0.966   8.285  21.500  0.00  0.00    +0.000 A 
ATOM     10  C   UNL     1       0.620   9.623  21.726  0.00  0.00    +0.000 A 
ATOM     11  C   UNL     1       0.761  10.554  20.694  0.00  0.00    +0.000 A 
ATOM     12  C   UNL     1       1.172  10.108  19.434  0.00  0.00    +0.000 A 
ATOM     13  C   UNL     1       1.570   8.794  19.214  0.00  0.00    +0.000 A 
ATOM     14  N   UNL     1       1.148  11.003  18.335  0.00  0.00    +0.000 N 
ATOM     15  C   UNL     1       1.912  12.136  18.545  0.00  0.00    +0.000 C 
ATOM     16  O   UNL     1       2.873  12.408  17.828  0.00  0.00    +0.000 OA
ATOM     17  C   UNL     1       1.434  13.070  19.643  0.00  0.00    +0.000 C 
ATOM     18  S   UNL     1       0.415  12.285  20.957  0.00  0.00    +0.000 S 
ATOM     19  H   UNL     1       0.184  11.342  18.301  0.00  0.00    +0.000 HD
ENDBRANCH   4   8
BRANCH   1  24
ATOM     20  C   UNL     1       6.584   5.090  15.819  0.00  0.00    +0.000 A 
ATOM     21  C   UNL     1       7.458   5.788  16.657  0.00  0.00    +0.000 A 
ATOM     22  C   UNL     1       7.129   6.000  17.995  0.00  0.00    +0.000 A 
ATOM     23  C   UNL     1       5.923   5.512  18.500  0.00  0.00    +0.000 A 
ATOM     24  C   UNL     1       5.039   4.795  17.681  0.00  0.00    +0.000 A 
ATOM     25  C   UNL     1       5.389   4.580  16.342  0.00  0.00    +0.000 A 
BRANCH  20  27
ATOM     26  C   UNL     1       5.596   3.883  13.546  0.00  0.00    +0.000 C 
ATOM     27  S   UNL     1       7.044   4.813  14.118  0.00  0.00    +0.000 S 
ENDBRANCH  20  27
ENDBRANCH   1  24
TORSDOF 3
ENDMDL
MODEL 7
REMARK VINA RESULT:      -7.4      1.620      2.434
REMARK  Name = 
REMARK  4 active torsions:
REMARK  status: ('A' for Active; 'I' for Inactive)
REMARK    1  A    between atoms: C_1  and  S_2
REMARK    2  A    between atoms: S_2  and  C_3
REMARK    3  A    between atoms: C_7  and  N_8
REMARK    4  A    between atoms: C_11  and  C_12
REMARK                            x       y       z     vdW  Elec       q    Type
REMARK                         _______ _______ _______ _____ _____    ______ ____
ROOT
ATOM      1  N   UNL     1       3.549   3.675  17.518  0.00  0.00    +0.000 N 
ATOM      2  C   UNL     1       2.930   4.416  18.468  0.00  0.00    +0.000 A 
ATOM      3  N   UNL     1       2.761   5.717  18.411  0.00  0.00    +0.000 NA
ATOM      4  C   UNL     1       2.102   6.169  19.535  0.00  0.00    +0.000 A 
ATOM      5  C   UNL     1       1.775   5.192  20.459  0.00  0.00    +0.000 A 
ATOM      6  S   UNL     1       2.262   3.661  19.869  0.00  0.00    +0.000 S 
ATOM      7  H   UNL     1       3.554   2.670  17.654  0.00  0.00    +0.000 HD
ENDROOT
BRANCH   4   8
ATOM      8  C   UNL     1       1.749   7.565  19.676  0.00  0.00    +0.000 A 
ATOM      9  C   UNL     1       1.719   8.396  18.546  0.00  0.00    +0.000 A 
ATOM     10  C   UNL     1       1.278   9.722  18.643  0.00  0.00    +0.000 A 
ATOM     11  C   UNL     1       0.908  10.235  19.888  0.00  0.00    +0.000 A 
ATOM     12  C   UNL     1       1.062   9.432  21.022  0.00  0.00    +0.000 A 
ATOM     13  C   UNL     1       1.446   8.098  20.930  0.00  0.00    +0.000 A 
ATOM     14  N   UNL     1       0.863   9.995  22.308  0.00  0.00    +0.000 N 
ATOM     15  C   UNL     1      -0.395  10.545  22.466  0.00  0.00    +0.000 C 
ATOM     16  O   UNL     1      -1.182  10.124  23.313  0.00  0.00    +0.000 OA
ATOM     17  C   UNL     1      -0.707  11.759  21.608  0.00  0.00    +0.000 C 
ATOM     18  S   UNL     1       0.261  11.890  20.050  0.00  0.00    +0.000 S 
ATOM     19  H   UNL     1       1.502  10.792  22.341  0.00  0.00    +0.000 HD
ENDBRANCH   4   8
BRANCH   1  24
ATOM     20  C   UNL     1       6.620   5.605  16.718  0.00  0.00    +0.000 A 
ATOM     21  C   UNL     1       6.946   5.097  15.458  0.00  0.00    +0.000 A 
ATOM     22  C   UNL     1       6.162   4.101  14.878  0.00  0.00    +0.000 A 
ATOM     23  C   UNL     1       5.048   3.610  15.558  0.00  0.00    +0.000 A 
ATOM     24  C   UNL     1       4.694   4.116  16.817  0.00  0.00    +0.000 A 
ATOM     25  C   UNL     1       5.484   5.125  17.381  0.00  0.00    +0.000 A 
BRANCH  20  27
ATOM     26  C   UNL     1       7.923   6.204  19.073  0.00  0.00    +0.000 C 
ATOM     27  S   UNL     1       7.628   6.898  17.423  0.00  0.00    +0.000 S 
ENDBRANCH  20  27
ENDBRANCH   1  24
TORSDOF 3
ENDMDL
MODEL 8
REMARK VINA RESULT:      -7.3      2.056      2.793
REMARK  Name = 
REMARK  4 active torsions:
REMARK  status: ('A' for Active; 'I' for Inactive)
REMARK    1  A    between atoms: C_1  and  S_2
REMARK    2  A    between atoms: S_2  and  C_3
REMARK    3  A    between atoms: C_7  and  N_8
REMARK    4  A    between atoms: C_11  and  C_12
REMARK                            x       y       z     vdW  Elec       q    Type
REMARK                         _______ _______ _______ _____ _____    ______ ____
ROOT
ATOM      1  N   UNL     1       3.408   3.908  18.455  0.00  0.00    +0.000 N 
ATOM      2  C   UNL     1       2.749   4.834  19.192  0.00  0.00    +0.000 A 
ATOM      3  N   UNL     1       2.647   6.105  18.880  0.00  0.00    +0.000 NA
ATOM      4  C   UNL     1       1.920   6.781  19.837  0.00  0.00    +0.000 A 
ATOM      5  C   UNL     1       1.473   6.007  20.894  0.00  0.00    +0.000 A 
ATOM      6  S   UNL     1       1.935   4.378  20.644  0.00  0.00    +0.000 S 
ATOM      7  H   UNL     1       3.355   2.948  18.775  0.00  0.00    +0.000 HD
ENDROOT
BRANCH   4   8
ATOM      8  C   UNL     1       1.622   8.189  19.686  0.00  0.00    +0.000 A 
ATOM      9  C   UNL     1       1.808   8.812  18.443  0.00  0.00    +0.000 A 
ATOM     10  C   UNL     1       1.428  10.145  18.244  0.00  0.00    +0.000 A 
ATOM     11  C   UNL     1       0.897  10.876  19.311  0.00  0.00    +0.000 A 
ATOM     12  C   UNL     1       0.833  10.277  20.573  0.00  0.00    +0.000 A 
ATOM     13  C   UNL     1       1.157   8.939  20.768  0.00  0.00    +0.000 A 
ATOM     14  N   UNL     1       0.468  11.059  21.698  0.00  0.00    +0.000 N 
ATOM     15  C   UNL     1      -0.770  11.658  21.558  0.00  0.00    +0.000 C 
ATOM     16  O   UNL     1      -1.698  11.410  22.326  0.00  0.00    +0.000 OA
ATOM     17  C   UNL     1      -0.882  12.713  20.471  0.00  0.00    +0.000 C 
ATOM     18  S   UNL     1       0.319  12.549  19.088  0.00  0.00    +0.000 S 
ATOM     19  H   UNL     1       1.134  11.833  21.700  0.00  0.00    +0.000 HD
ENDBRANCH   4   8
BRANCH   1  24
ATOM     20  C   UNL     1       6.791   5.294  17.790  0.00  0.00    +0.000 A 
ATOM     21  C   UNL     1       7.041   4.807  16.504  0.00  0.00    +0.000 A 
ATOM     22  C   UNL     1       6.101   4.003  15.862  0.00  0.00    +0.000 A 
ATOM     23  C   UNL     1       4.905   3.684  16.505  0.00  0.00    +0.000 A 
ATOM     24  C   UNL     1       4.626   4.174  17.789  0.00  0.00    +0.000 A 
ATOM     25  C   UNL     1       5.575   4.991  18.416  0.00  0.00    +0.000 A 
BRANCH  20  27
ATOM     26  C   UNL     1       7.729   7.883  17.660  0.00  0.00    +0.000 C 
ATOM     27  S   UNL     1       8.002   6.341  18.576  0.00  0.00    +0.000 S 
ENDBRANCH  20  27
ENDBRANCH   1  24
TORSDOF 3
ENDMDL
MODEL 9
REMARK VINA RESULT:      -7.3      3.440      8.806
REMARK  Name = 
REMARK  4 active torsions:
REMARK  status: ('A' for Active; 'I' for Inactive)
REMARK    1  A    between atoms: C_1  and  S_2
REMARK    2  A    between atoms: S_2  and  C_3
REMARK    3  A    between atoms: C_7  and  N_8
REMARK    4  A    between atoms: C_11  and  C_12
REMARK                            x       y       z     vdW  Elec       q    Type
REMARK                         _______ _______ _______ _____ _____    ______ ____
ROOT
ATOM      1  N   UNL     1      -0.612  11.164  19.614  0.00  0.00    +0.000 N 
ATOM      2  C   UNL     1       0.083  10.191  20.249  0.00  0.00    +0.000 A 
ATOM      3  N   UNL     1       0.579   9.123  19.666  0.00  0.00    +0.000 NA
ATOM      4  C   UNL     1       1.225   8.326  20.588  0.00  0.00    +0.000 A 
ATOM      5  C   UNL     1       1.209   8.798  21.889  0.00  0.00    +0.000 A 
ATOM      6  S   UNL     1       0.408  10.309  21.940  0.00  0.00    +0.000 S 
ATOM      7  H   UNL     1      -0.883  11.969  20.168  0.00  0.00    +0.000 HD
ENDROOT
BRANCH   4   8
ATOM      8  C   UNL     1       1.904   7.117  20.176  0.00  0.00    +0.000 A 
ATOM      9  C   UNL     1       1.446   5.870  20.627  0.00  0.00    +0.000 A 
ATOM     10  C   UNL     1       2.021   4.682  20.159  0.00  0.00    +0.000 A 
ATOM     11  C   UNL     1       3.093   4.742  19.265  0.00  0.00    +0.000 A 
ATOM     12  C   UNL     1       3.616   5.992  18.922  0.00  0.00    +0.000 A 
ATOM     13  C   UNL     1       3.019   7.177  19.338  0.00  0.00    +0.000 A 
ATOM     14  N   UNL     1       4.812   6.064  18.162  0.00  0.00    +0.000 N 
ATOM     15  C   UNL     1       4.720   5.404  16.951  0.00  0.00    +0.000 C 
ATOM     16  O   UNL     1       4.849   5.998  15.882  0.00  0.00    +0.000 OA
ATOM     17  C   UNL     1       4.555   3.896  17.022  0.00  0.00    +0.000 C 
ATOM     18  S   UNL     1       3.804   3.258  18.574  0.00  0.00    +0.000 S 
ATOM     19  H   UNL     1       5.491   5.524  18.702  0.00  0.00    +0.000 HD
ENDBRANCH   4   8
BRANCH   1  24
ATOM     20  C   UNL     1      -3.762  11.263  17.646  0.00  0.00    +0.000 A 
ATOM     21  C   UNL     1      -3.464  10.383  16.602  0.00  0.00    +0.000 A 
ATOM     22  C   UNL     1      -2.214   9.770  16.535  0.00  0.00    +0.000 A 
ATOM     23  C   UNL     1      -1.257  10.036  17.515  0.00  0.00    +0.000 A 
ATOM     24  C   UNL     1      -1.540  10.903  18.579  0.00  0.00    +0.000 A 
ATOM     25  C   UNL     1      -2.804  11.502  18.640  0.00  0.00    +0.000 A 
BRANCH  20  27
ATOM     26  C   UNL     1      -6.285  10.723  18.618  0.00  0.00    +0.000 C 
ATOM     27  S   UNL     1      -5.379  12.012  17.719  0.00  0.00    +0.000 S 
ENDBRANCH  20  27
ENDBRANCH   1  24
TORSDOF 3
ENDMDL
