MODEL 1
REMARK VINA RESULT:      -8.0      0.000      0.000
REMARK  Name = 
REMARK  6 active torsions:
REMARK  status: ('A' for Active; 'I' for Inactive)
REMARK    1  A    between atoms: C_1  and  O_2
REMARK    2  A    between atoms: O_2  and  C_3
REMARK    3  A    between atoms: C_6  and  O_7
REMARK    4  A    between atoms: O_7  and  C_8
REMARK    5  A    between atoms: C_9  and  N_10
REMARK    6  A    between atoms: C_21  and  C_22
REMARK                            x       y       z     vdW  Elec       q    Type
REMARK                         _______ _______ _______ _____ _____    ______ ____
ROOT
ATOM      1  N   UNL     1       3.313   6.239  18.754  0.00  0.00    +0.000 N 
ATOM      2  C   UNL     1       2.603   7.422  18.587  0.00  0.00    +0.000 C 
ATOM      3  O   UNL     1       2.590   8.084  17.555  0.00  0.00    +0.000 OA
ATOM      4  N   UNL     1       1.861   7.714  19.718  0.00  0.00    +0.000 N 
ATOM      5  C   UNL     1       1.091   8.843  19.769  0.00  0.00    +0.000 A 
ATOM      6  N   UNL     1       0.797   9.703  18.832  0.00  0.00    +0.000 NA
ATOM      7  N   UNL     1      -0.008  10.719  19.298  0.00  0.00    +0.000 NA
ATOM      8  C   UNL     1      -0.295  10.622  20.581  0.00  0.00    +0.000 A 
ATOM      9  N   UNL     1      -1.109  11.487  21.257  0.00  0.00    +0.000 N 
ATOM     10  C   UNL     1      -0.946  11.751  22.680  0.00  0.00    +0.000 C 
ATOM     11  C   UNL     1      -2.332  11.906  23.299  0.00  0.00    +0.000 C 
ATOM     12  C   UNL     1      -3.148  13.001  22.594  0.00  0.00    +0.000 C 
ATOM     13  C   UNL     1      -4.571  13.033  23.147  0.00  0.00    +0.000 C 
ATOM     14  C   UNL     1      -3.160  12.786  21.070  0.00  0.00    +0.000 C 
ATOM     15  C   UNL     1      -1.751  12.572  20.509  0.00  0.00    +0.000 C 
ATOM     16  S   UNL     1       0.402   9.190  21.289  0.00  0.00    +0.000 S 
ATOM     17  H   UNL     1       2.826   5.544  19.300  0.00  0.00    +0.000 HD
ATOM     18  H   UNL     1       2.009   7.207  20.574  0.00  0.00    +0.000 HD
ENDROOT
BRANCH   1  23
ATOM     19  C   UNL     1       6.547   6.196  16.950  0.00  0.00    +0.000 A 
ATOM     20  C   UNL     1       6.475   4.999  16.244  0.00  0.00    +0.000 A 
ATOM     21  C   UNL     1       5.342   4.191  16.333  0.00  0.00    +0.000 A 
ATOM     22  C   UNL     1       4.251   4.576  17.121  0.00  0.00    +0.000 A 
ATOM     23  C   UNL     1       4.340   5.751  17.897  0.00  0.00    +0.000 A 
ATOM     24  C   UNL     1       5.485   6.564  17.780  0.00  0.00    +0.000 A 
BRANCH  19  26
ATOM     25  C   UNL     1       7.903   8.064  17.527  0.00  0.00    +0.000 C 
ATOM     26  O   UNL     1       7.695   6.906  16.734  0.00  0.00    +0.000 OA
ENDBRANCH  19  26
BRANCH  22  27
ATOM     27  O   UNL     1       3.068   3.889  17.124  0.00  0.00    +0.000 OA
ATOM     28  C   UNL     1       3.047   2.597  17.713  0.00  0.00    +0.000 C 
ENDBRANCH  22  27
ENDBRANCH   1  23
TORSDOF 3
ENDMDL
MODEL 2
REMARK VINA RESULT:      -7.8      1.527      2.345
REMARK  Name = 
REMARK  6 active torsions:
REMARK  status: ('A' for Active; 'I' for Inactive)
REMARK    1  A    between atoms: C_1  and  O_2
REMARK    2  A    between atoms: O_2  and  C_3
REMARK    3  A    between atoms: C_6  and  O_7
REMARK    4  A    between atoms: O_7  and  C_8
REMARK    5  A    between atoms: C_9  and  N_10
REMARK    6  A    between atoms: C_21  and  C_22
REMARK                            x       y       z     vdW  Elec       q    Type
REMARK                         _______ _______ _______ _____ _____    ______ ____
ROOT
ATOM      1  N   UNL     1       3.888   5.840  18.662  0.00  0.00    +0.000 N 
ATOM      2  C   UNL     1       3.212   7.043  18.489  0.00  0.00    +0.000 C 
ATOM      3  O   UNL     1       3.269   7.730  17.475  0.00  0.00    +0.000 OA
ATOM      4  N   UNL     1       2.418   7.322  19.587  0.00  0.00    +0.000 N 
ATOM      5  C   UNL     1       1.669   8.466  19.626  0.00  0.00    +0.000 A 
ATOM      6  N   UNL     1       1.443   9.356  18.697  0.00  0.00    +0.000 NA
ATOM      7  N   UNL     1       0.636  10.377  19.147  0.00  0.00    +0.000 NA
ATOM      8  C   UNL     1       0.278  10.254  20.409  0.00  0.00    +0.000 A 
ATOM      9  N   UNL     1      -0.553  11.119  21.064  0.00  0.00    +0.000 N 
ATOM     10  C   UNL     1      -0.462  11.344  22.500  0.00  0.00    +0.000 C 
ATOM     11  C   UNL     1      -1.875  11.513  23.049  0.00  0.00    +0.000 C 
ATOM     12  C   UNL     1      -2.629  12.644  22.330  0.00  0.00    +0.000 C 
ATOM     13  C   UNL     1      -4.079  12.693  22.807  0.00  0.00    +0.000 C 
ATOM     14  C   UNL     1      -2.564  12.467  20.802  0.00  0.00    +0.000 C 
ATOM     15  C   UNL     1      -1.131  12.237  20.312  0.00  0.00    +0.000 C 
ATOM     16  S   UNL     1       0.907   8.789  21.116  0.00  0.00    +0.000 S 
ATOM     17  H   UNL     1       3.359   5.143  19.163  0.00  0.00    +0.000 HD
ATOM     18  H   UNL     1       2.509   6.791  20.435  0.00  0.00    +0.000 HD
ENDROOT
BRANCH   1  23
ATOM     19  C   UNL     1       5.555   4.458  15.658  0.00  0.00    +0.000 A 
ATOM     20  C   UNL     1       6.875   4.339  16.081  0.00  0.00    +0.000 A 
ATOM     21  C   UNL     1       7.237   4.694  17.380  0.00  0.00    +0.000 A 
ATOM     22  C   UNL     1       6.278   5.160  18.287  0.00  0.00    +0.000 A 
ATOM     23  C   UNL     1       4.949   5.352  17.849  0.00  0.00    +0.000 A 
ATOM     24  C   UNL     1       4.599   4.971  16.538  0.00  0.00    +0.000 A 
BRANCH  19  26
ATOM     25  C   UNL     1       6.461   3.967  13.513  0.00  0.00    +0.000 C 
ATOM     26  O   UNL     1       5.337   4.032  14.378  0.00  0.00    +0.000 OA
ENDBRANCH  19  26
BRANCH  22  27
ATOM     27  O   UNL     1       6.560   5.381  19.607  0.00  0.00    +0.000 OA
ATOM     28  C   UNL     1       7.919   5.552  19.980  0.00  0.00    +0.000 C 
ENDBRANCH  22  27
ENDBRANCH   1  23
TORSDOF 3
ENDMDL
MODEL 3
REMARK VINA RESULT:      -7.5      1.138      1.147
REMARK  Name = 
REMARK  6 active torsions:
REMARK  status: ('A' for Active; 'I' for Inactive)
REMARK    1  A    between atoms: C_1  and  O_2
REMARK    2  A    between atoms: O_2  and  C_3
REMARK    3  A    between atoms: C_6  and  O_7
REMARK    4  A    between atoms: O_7  and  C_8
REMARK    5  A    between atoms: C_9  and  N_10
REMARK    6  A    between atoms: C_21  and  C_22
REMARK                            x       y       z     vdW  Elec       q    Type
REMARK                         _______ _______ _______ _____ _____    ______ ____
ROOT
ATOM      1  N   UNL     1       2.985   6.122  19.876  0.00  0.00    +0.000 N 
ATOM      2  C   UNL     1       2.276   7.257  19.502  0.00  0.00    +0.000 C 
ATOM      3  O   UNL     1       2.202   7.681  18.353  0.00  0.00    +0.000 OA
ATOM      4  N   UNL     1       1.611   7.801  20.586  0.00  0.00    +0.000 N 
ATOM      5  C   UNL     1       0.856   8.932  20.439  0.00  0.00    +0.000 A 
ATOM      6  N   UNL     1       0.509   9.577  19.358  0.00  0.00    +0.000 NA
ATOM      7  N   UNL     1      -0.256  10.686  19.642  0.00  0.00    +0.000 NA
ATOM      8  C   UNL     1      -0.460  10.874  20.930  0.00  0.00    +0.000 A 
ATOM      9  N   UNL     1      -1.222  11.882  21.452  0.00  0.00    +0.000 N 
ATOM     10  C   UNL     1      -0.965  12.442  22.772  0.00  0.00    +0.000 C 
ATOM     11  C   UNL     1      -2.307  12.757  23.427  0.00  0.00    +0.000 C 
ATOM     12  C   UNL     1      -3.157  13.693  22.553  0.00  0.00    +0.000 C 
ATOM     13  C   UNL     1      -4.542  13.874  23.172  0.00  0.00    +0.000 C 
ATOM     14  C   UNL     1      -3.269  13.155  21.115  0.00  0.00    +0.000 C 
ATOM     15  C   UNL     1      -1.901  12.795  20.528  0.00  0.00    +0.000 C 
ATOM     16  S   UNL     1       0.269   9.612  21.887  0.00  0.00    +0.000 S 
ATOM     17  H   UNL     1       2.529   5.572  20.588  0.00  0.00    +0.000 HD
ATOM     18  H   UNL     1       1.810   7.487  21.520  0.00  0.00    +0.000 HD
ENDROOT
BRANCH   1  23
ATOM     19  C   UNL     1       6.327   5.206  18.568  0.00  0.00    +0.000 A 
ATOM     20  C   UNL     1       6.016   4.240  17.616  0.00  0.00    +0.000 A 
ATOM     21  C   UNL     1       4.690   3.886  17.372  0.00  0.00    +0.000 A 
ATOM     22  C   UNL     1       3.646   4.508  18.067  0.00  0.00    +0.000 A 
ATOM     23  C   UNL     1       3.950   5.439  19.084  0.00  0.00    +0.000 A 
ATOM     24  C   UNL     1       5.296   5.796  19.303  0.00  0.00    +0.000 A 
BRANCH  19  26
ATOM     25  C   UNL     1       8.055   6.841  18.540  0.00  0.00    +0.000 C 
ATOM     26  O   UNL     1       7.661   5.483  18.669  0.00  0.00    +0.000 OA
ENDBRANCH  19  26
BRANCH  22  27
ATOM     27  O   UNL     1       2.330   4.298  17.759  0.00  0.00    +0.000 OA
ATOM     28  C   UNL     1       1.734   3.076  18.170  0.00  0.00    +0.000 C 
ENDBRANCH  22  27
ENDBRANCH   1  23
TORSDOF 3
ENDMDL
MODEL 4
REMARK VINA RESULT:      -7.5      1.690      3.453
REMARK  Name = 
REMARK  6 active torsions:
REMARK  status: ('A' for Active; 'I' for Inactive)
REMARK    1  A    between atoms: C_1  and  O_2
REMARK    2  A    between atoms: O_2  and  C_3
REMARK    3  A    between atoms: C_6  and  O_7
REMARK    4  A    between atoms: O_7  and  C_8
REMARK    5  A    between atoms: C_9  and  N_10
REMARK    6  A    between atoms: C_21  and  C_22
REMARK                            x       y       z     vdW  Elec       q    Type
REMARK                         _______ _______ _______ _____ _____    ______ ____
ROOT
ATOM      1  N   UNL     1       2.824   7.233  17.947  0.00  0.00    +0.000 N 
ATOM      2  C   UNL     1       2.193   7.688  19.099  0.00  0.00    +0.000 C 
ATOM      3  O   UNL     1       2.189   7.091  20.170  0.00  0.00    +0.000 OA
ATOM      4  N   UNL     1       1.632   8.935  18.891  0.00  0.00    +0.000 N 
ATOM      5  C   UNL     1       0.953   9.566  19.897  0.00  0.00    +0.000 A 
ATOM      6  N   UNL     1       0.833   9.248  21.158  0.00  0.00    +0.000 NA
ATOM      7  N   UNL     1       0.048  10.148  21.844  0.00  0.00    +0.000 NA
ATOM      8  C   UNL     1      -0.427  11.120  21.091  0.00  0.00    +0.000 A 
ATOM      9  N   UNL     1      -1.195  12.151  21.555  0.00  0.00    +0.000 N 
ATOM     10  C   UNL     1      -2.176  12.824  20.716  0.00  0.00    +0.000 C 
ATOM     11  C   UNL     1      -2.161  14.311  21.061  0.00  0.00    +0.000 C 
ATOM     12  C   UNL     1      -2.416  14.547  22.558  0.00  0.00    +0.000 C 
ATOM     13  C   UNL     1      -2.257  16.029  22.889  0.00  0.00    +0.000 C 
ATOM     14  C   UNL     1      -1.471  13.691  23.420  0.00  0.00    +0.000 C 
ATOM     15  C   UNL     1      -1.477  12.220  22.992  0.00  0.00    +0.000 C 
ATOM     16  S   UNL     1       0.134  10.991  19.446  0.00  0.00    +0.000 S 
ATOM     17  H   UNL     1       3.263   7.962  17.407  0.00  0.00    +0.000 HD
ATOM     18  H   UNL     1       1.557   9.317  17.964  0.00  0.00    +0.000 HD
ENDROOT
BRANCH   1  23
ATOM     19  C   UNL     1       2.726   3.544  17.629  0.00  0.00    +0.000 A 
ATOM     20  C   UNL     1       4.054   3.237  17.351  0.00  0.00    +0.000 A 
ATOM     21  C   UNL     1       5.016   4.244  17.284  0.00  0.00    +0.000 A 
ATOM     22  C   UNL     1       4.667   5.580  17.512  0.00  0.00    +0.000 A 
ATOM     23  C   UNL     1       3.312   5.914  17.726  0.00  0.00    +0.000 A 
ATOM     24  C   UNL     1       2.357   4.880  17.808  0.00  0.00    +0.000 A 
BRANCH  19  26
ATOM     25  C   UNL     1       0.953   2.433  18.761  0.00  0.00    +0.000 C 
ATOM     26  O   UNL     1       1.904   2.456  17.708  0.00  0.00    +0.000 OA
ENDBRANCH  19  26
BRANCH  22  27
ATOM     27  O   UNL     1       5.597   6.579  17.600  0.00  0.00    +0.000 OA
ATOM     28  C   UNL     1       6.958   6.210  17.768  0.00  0.00    +0.000 C 
ENDBRANCH  22  27
ENDBRANCH   1  23
TORSDOF 3
ENDMDL
MODEL 5
REMARK VINA RESULT:      -7.4      6.588      8.891
REMARK  Name = 
REMARK  6 active torsions:
REMARK  status: ('A' for Active; 'I' for Inactive)
REMARK    1  A    between atoms: C_1  and  O_2
REMARK    2  A    between atoms: O_2  and  C_3
REMARK    3  A    between atoms: C_6  and  O_7
REMARK    4  A    between atoms: O_7  and  C_8
REMARK    5  A    between atoms: C_9  and  N_10
REMARK    6  A    between atoms: C_21  and  C_22
REMARK                            x       y       z     vdW  Elec       q    Type
REMARK                         _______ _______ _______ _____ _____    ______ ____
ROOT
ATOM      1  N   UNL     1       7.641   6.789  18.166  0.00  0.00    +0.000 N 
ATOM      2  C   UNL     1       7.637   8.132  17.807  0.00  0.00    +0.000 C 
ATOM      3  O   UNL     1       6.831   8.642  17.036  0.00  0.00    +0.000 OA
ATOM      4  N   UNL     1       8.620   8.826  18.489  0.00  0.00    +0.000 N 
ATOM      5  C   UNL     1       8.795  10.166  18.278  0.00  0.00    +0.000 A 
ATOM      6  N   UNL     1       8.070  11.012  17.597  0.00  0.00    +0.000 NA
ATOM      7  N   UNL     1       8.600  12.283  17.623  0.00  0.00    +0.000 NA
ATOM      8  C   UNL     1       9.722  12.376  18.306  0.00  0.00    +0.000 A 
ATOM      9  N   UNL     1      10.409  13.541  18.507  0.00  0.00    +0.000 N 
ATOM     10  C   UNL     1      11.853  13.566  18.695  0.00  0.00    +0.000 C 
ATOM     11  C   UNL     1      12.182  14.636  19.731  0.00  0.00    +0.000 C 
ATOM     12  C   UNL     1      11.625  16.009  19.323  0.00  0.00    +0.000 C 
ATOM     13  C   UNL     1      11.852  17.022  20.444  0.00  0.00    +0.000 C 
ATOM     14  C   UNL     1      10.130  15.915  18.967  0.00  0.00    +0.000 C 
ATOM     15  C   UNL     1       9.846  14.785  17.973  0.00  0.00    +0.000 C 
ATOM     16  S   UNL     1      10.170  10.849  19.017  0.00  0.00    +0.000 S 
ATOM     17  H   UNL     1       7.873   6.626  19.134  0.00  0.00    +0.000 HD
ATOM     18  H   UNL     1       9.328   8.337  19.008  0.00  0.00    +0.000 HD
ENDROOT
BRANCH   1  23
ATOM     19  C   UNL     1       6.667   4.479  15.440  0.00  0.00    +0.000 A 
ATOM     20  C   UNL     1       5.638   3.750  16.026  0.00  0.00    +0.000 A 
ATOM     21  C   UNL     1       5.228   4.023  17.330  0.00  0.00    +0.000 A 
ATOM     22  C   UNL     1       5.834   5.046  18.069  0.00  0.00    +0.000 A 
ATOM     23  C   UNL     1       6.926   5.746  17.512  0.00  0.00    +0.000 A 
ATOM     24  C   UNL     1       7.313   5.468  16.186  0.00  0.00    +0.000 A 
BRANCH  19  26
ATOM     25  C   UNL     1       5.830   3.752  13.335  0.00  0.00    +0.000 C 
ATOM     26  O   UNL     1       6.932   4.134  14.145  0.00  0.00    +0.000 OA
ENDBRANCH  19  26
BRANCH  22  27
ATOM     27  O   UNL     1       5.370   5.443  19.293  0.00  0.00    +0.000 OA
ATOM     28  C   UNL     1       3.968   5.418  19.516  0.00  0.00    +0.000 C 
ENDBRANCH  22  27
ENDBRANCH   1  23
TORSDOF 3
ENDMDL
MODEL 6
REMARK VINA RESULT:      -7.2      1.736      1.918
REMARK  Name = 
REMARK  6 active torsions:
REMARK  status: ('A' for Active; 'I' for Inactive)
REMARK    1  A    between atoms: C_1  and  O_2
REMARK    2  A    between atoms: O_2  and  C_3
REMARK    3  A    between atoms: C_6  and  O_7
REMARK    4  A    between atoms: O_7  and  C_8
REMARK    5  A    between atoms: C_9  and  N_10
REMARK    6  A    between atoms: C_21  and  C_22
REMARK                            x       y       z     vdW  Elec       q    Type
REMARK                         _______ _______ _______ _____ _____    ______ ____
ROOT
ATOM      1  N   UNL     1       2.445   6.154  20.183  0.00  0.00    +0.000 N 
ATOM      2  C   UNL     1       1.951   7.366  19.713  0.00  0.00    +0.000 C 
ATOM      3  O   UNL     1       1.983   7.720  18.539  0.00  0.00    +0.000 OA
ATOM      4  N   UNL     1       1.358   8.084  20.736  0.00  0.00    +0.000 N 
ATOM      5  C   UNL     1       0.810   9.313  20.492  0.00  0.00    +0.000 A 
ATOM      6  N   UNL     1       0.610   9.935  19.361  0.00  0.00    +0.000 NA
ATOM      7  N   UNL     1       0.038  11.174  19.549  0.00  0.00    +0.000 NA
ATOM      8  C   UNL     1      -0.169  11.477  20.814  0.00  0.00    +0.000 A 
ATOM      9  N   UNL     1      -0.762  12.631  21.244  0.00  0.00    +0.000 N 
ATOM     10  C   UNL     1      -0.452  13.226  22.537  0.00  0.00    +0.000 C 
ATOM     11  C   UNL     1      -1.739  13.804  23.118  0.00  0.00    +0.000 C 
ATOM     12  C   UNL     1      -2.391  14.811  22.157  0.00  0.00    +0.000 C 
ATOM     13  C   UNL     1      -3.742  15.263  22.709  0.00  0.00    +0.000 C 
ATOM     14  C   UNL     1      -2.552  14.206  20.751  0.00  0.00    +0.000 C 
ATOM     15  C   UNL     1      -1.249  13.583  20.241  0.00  0.00    +0.000 C 
ATOM     16  S   UNL     1       0.307  10.177  21.873  0.00  0.00    +0.000 S 
ATOM     17  H   UNL     1       1.881   5.737  20.907  0.00  0.00    +0.000 HD
ATOM     18  H   UNL     1       1.473   7.803  21.694  0.00  0.00    +0.000 HD
ENDROOT
BRANCH   1  23
ATOM     19  C   UNL     1       5.612   4.770  18.853  0.00  0.00    +0.000 A 
ATOM     20  C   UNL     1       5.170   3.671  18.124  0.00  0.00    +0.000 A 
ATOM     21  C   UNL     1       3.810   3.378  18.038  0.00  0.00    +0.000 A 
ATOM     22  C   UNL     1       2.863   4.192  18.670  0.00  0.00    +0.000 A 
ATOM     23  C   UNL     1       3.302   5.268  19.471  0.00  0.00    +0.000 A 
ATOM     24  C   UNL     1       4.680   5.559  19.531  0.00  0.00    +0.000 A 
BRANCH  19  26
ATOM     25  C   UNL     1       7.636   4.610  17.613  0.00  0.00    +0.000 C 
ATOM     26  O   UNL     1       6.965   4.961  18.813  0.00  0.00    +0.000 OA
ENDBRANCH  19  26
BRANCH  22  27
ATOM     27  O   UNL     1       1.517   4.027  18.494  0.00  0.00    +0.000 OA
ATOM     28  C   UNL     1       0.948   2.771  18.833  0.00  0.00    +0.000 C 
ENDBRANCH  22  27
ENDBRANCH   1  23
TORSDOF 3
ENDMDL
MODEL 7
REMARK VINA RESULT:      -7.1      1.585      2.123
REMARK  Name = 
REMARK  6 active torsions:
REMARK  status: ('A' for Active; 'I' for Inactive)
REMARK    1  A    between atoms: C_1  and  O_2
REMARK    2  A    between atoms: O_2  and  C_3
REMARK    3  A    between atoms: C_6  and  O_7
REMARK    4  A    between atoms: O_7  and  C_8
REMARK    5  A    between atoms: C_9  and  N_10
REMARK    6  A    between atoms: C_21  and  C_22
REMARK                            x       y       z     vdW  Elec       q    Type
REMARK                         _______ _______ _______ _____ _____    ______ ____
ROOT
ATOM      1  N   UNL     1       3.072   7.300  17.683  0.00  0.00    +0.000 N 
ATOM      2  C   UNL     1       2.428   7.681  18.856  0.00  0.00    +0.000 C 
ATOM      3  O   UNL     1       2.511   7.076  19.920  0.00  0.00    +0.000 OA
ATOM      4  N   UNL     1       1.741   8.867  18.676  0.00  0.00    +0.000 N 
ATOM      5  C   UNL     1       1.030   9.419  19.706  0.00  0.00    +0.000 A 
ATOM      6  N   UNL     1       0.975   9.079  20.967  0.00  0.00    +0.000 NA
ATOM      7  N   UNL     1       0.122   9.890  21.682  0.00  0.00    +0.000 NA
ATOM      8  C   UNL     1      -0.466  10.817  20.952  0.00  0.00    +0.000 A 
ATOM      9  N   UNL     1      -1.320  11.762  21.448  0.00  0.00    +0.000 N 
ATOM     10  C   UNL     1      -2.384  12.343  20.641  0.00  0.00    +0.000 C 
ATOM     11  C   UNL     1      -2.507  13.820  21.002  0.00  0.00    +0.000 C 
ATOM     12  C   UNL     1      -2.745  14.016  22.508  0.00  0.00    +0.000 C 
ATOM     13  C   UNL     1      -2.725  15.504  22.852  0.00  0.00    +0.000 C 
ATOM     14  C   UNL     1      -1.699  13.251  23.337  0.00  0.00    +0.000 C 
ATOM     15  C   UNL     1      -1.570  11.791  22.892  0.00  0.00    +0.000 C 
ATOM     16  S   UNL     1       0.062  10.759  19.292  0.00  0.00    +0.000 S 
ATOM     17  H   UNL     1       3.422   8.074  17.141  0.00  0.00    +0.000 HD
ATOM     18  H   UNL     1       1.605   9.248  17.756  0.00  0.00    +0.000 HD
ENDROOT
BRANCH   1  23
ATOM     19  C   UNL     1       5.689   4.897  16.640  0.00  0.00    +0.000 A 
ATOM     20  C   UNL     1       5.065   3.672  16.852  0.00  0.00    +0.000 A 
ATOM     21  C   UNL     1       3.754   3.615  17.324  0.00  0.00    +0.000 A 
ATOM     22  C   UNL     1       3.037   4.790  17.578  0.00  0.00    +0.000 A 
ATOM     23  C   UNL     1       3.681   6.038  17.435  0.00  0.00    +0.000 A 
ATOM     24  C   UNL     1       5.000   6.075  16.939  0.00  0.00    +0.000 A 
BRANCH  19  26
ATOM     25  C   UNL     1       7.094   4.828  14.721  0.00  0.00    +0.000 C 
ATOM     26  O   UNL     1       6.954   4.801  16.133  0.00  0.00    +0.000 OA
ENDBRANCH  19  26
BRANCH  22  27
ATOM     27  O   UNL     1       1.708   4.784  17.902  0.00  0.00    +0.000 OA
ATOM     28  C   UNL     1       1.173   3.614  18.503  0.00  0.00    +0.000 C 
ENDBRANCH  22  27
ENDBRANCH   1  23
TORSDOF 3
ENDMDL
MODEL 8
REMARK VINA RESULT:      -7.1      1.383      1.505
REMARK  Name = 
REMARK  6 active torsions:
REMARK  status: ('A' for Active; 'I' for Inactive)
REMARK    1  A    between atoms: C_1  and  O_2
REMARK    2  A    between atoms: O_2  and  C_3
REMARK    3  A    between atoms: C_6  and  O_7
REMARK    4  A    between atoms: O_7  and  C_8
REMARK    5  A    between atoms: C_9  and  N_10
REMARK    6  A    between atoms: C_21  and  C_22
REMARK                            x       y       z     vdW  Elec       q    Type
REMARK                         _______ _______ _______ _____ _____    ______ ____
ROOT
ATOM      1  N   UNL     1       2.977   6.406  19.482  0.00  0.00    +0.000 N 
ATOM      2  C   UNL     1       2.158   7.467  19.110  0.00  0.00    +0.000 C 
ATOM      3  O   UNL     1       1.771   7.676  17.966  0.00  0.00    +0.000 OA
ATOM      4  N   UNL     1       1.786   8.210  20.216  0.00  0.00    +0.000 N 
ATOM      5  C   UNL     1       0.982   9.308  20.073  0.00  0.00    +0.000 A 
ATOM      6  N   UNL     1       0.342   9.752  19.025  0.00  0.00    +0.000 NA
ATOM      7  N   UNL     1      -0.355  10.908  19.297  0.00  0.00    +0.000 NA
ATOM      8  C   UNL     1      -0.219  11.330  20.538  0.00  0.00    +0.000 A 
ATOM      9  N   UNL     1      -0.848  12.428  21.052  0.00  0.00    +0.000 N 
ATOM     10  C   UNL     1      -0.271  13.215  22.134  0.00  0.00    +0.000 C 
ATOM     11  C   UNL     1      -1.402  13.667  23.053  0.00  0.00    +0.000 C 
ATOM     12  C   UNL     1      -2.482  14.443  22.282  0.00  0.00    +0.000 C 
ATOM     13  C   UNL     1      -3.659  14.757  23.202  0.00  0.00    +0.000 C 
ATOM     14  C   UNL     1      -2.951  13.654  21.046  0.00  0.00    +0.000 C 
ATOM     15  C   UNL     1      -1.775  13.170  20.192  0.00  0.00    +0.000 C 
ATOM     16  S   UNL     1       0.776  10.251  21.478  0.00  0.00    +0.000 S 
ATOM     17  H   UNL     1       2.742   6.003  20.375  0.00  0.00    +0.000 HD
ATOM     18  H   UNL     1       2.233   8.068  21.104  0.00  0.00    +0.000 HD
ENDROOT
BRANCH   1  23
ATOM     19  C   UNL     1       5.439   5.514  16.863  0.00  0.00    +0.000 A 
ATOM     20  C   UNL     1       5.279   4.135  16.766  0.00  0.00    +0.000 A 
ATOM     21  C   UNL     1       4.335   3.474  17.551  0.00  0.00    +0.000 A 
ATOM     22  C   UNL     1       3.520   4.186  18.439  0.00  0.00    +0.000 A 
ATOM     23  C   UNL     1       3.720   5.574  18.598  0.00  0.00    +0.000 A 
ATOM     24  C   UNL     1       4.667   6.227  17.783  0.00  0.00    +0.000 A 
BRANCH  19  26
ATOM     25  C   UNL     1       6.950   5.144  15.063  0.00  0.00    +0.000 C 
ATOM     26  O   UNL     1       6.366   6.032  16.004  0.00  0.00    +0.000 OA
ENDBRANCH  19  26
BRANCH  22  27
ATOM     27  O   UNL     1       2.487   3.602  19.119  0.00  0.00    +0.000 OA
ATOM     28  C   UNL     1       1.316   3.263  18.391  0.00  0.00    +0.000 C 
ENDBRANCH  22  27
ENDBRANCH   1  23
TORSDOF 3
ENDMDL
MODEL 9
REMARK VINA RESULT:      -7.0      2.999     10.348
REMARK  Name = 
REMARK  6 active torsions:
REMARK  status: ('A' for Active; 'I' for Inactive)
REMARK    1  A    between atoms: C_1  and  O_2
REMARK    2  A    between atoms: O_2  and  C_3
REMARK    3  A    between atoms: C_6  and  O_7
REMARK    4  A    between atoms: O_7  and  C_8
REMARK    5  A    between atoms: C_9  and  N_10
REMARK    6  A    between atoms: C_21  and  C_22
REMARK                            x       y       z     vdW  Elec       q    Type
REMARK                         _______ _______ _______ _____ _____    ______ ____
ROOT
ATOM      1  N   UNL     1      -0.548  11.506  20.436  0.00  0.00    +0.000 N 
ATOM      2  C   UNL     1       0.129  10.295  20.534  0.00  0.00    +0.000 C 
ATOM      3  O   UNL     1       0.069   9.544  21.502  0.00  0.00    +0.000 OA
ATOM      4  N   UNL     1       0.821  10.022  19.368  0.00  0.00    +0.000 N 
ATOM      5  C   UNL     1       1.563   8.879  19.254  0.00  0.00    +0.000 A 
ATOM      6  N   UNL     1       1.648   7.848  20.053  0.00  0.00    +0.000 NA
ATOM      7  N   UNL     1       2.525   6.899  19.578  0.00  0.00    +0.000 NA
ATOM      8  C   UNL     1       3.102   7.231  18.440  0.00  0.00    +0.000 A 
ATOM      9  N   UNL     1       3.975   6.434  17.756  0.00  0.00    +0.000 N 
ATOM     10  C   UNL     1       5.024   6.983  16.907  0.00  0.00    +0.000 C 
ATOM     11  C   UNL     1       5.168   6.084  15.683  0.00  0.00    +0.000 C 
ATOM     12  C   UNL     1       5.446   4.626  16.081  0.00  0.00    +0.000 C 
ATOM     13  C   UNL     1       5.447   3.735  14.840  0.00  0.00    +0.000 C 
ATOM     14  C   UNL     1       4.416   4.128  17.109  0.00  0.00    +0.000 C 
ATOM     15  C   UNL     1       4.263   5.097  18.286  0.00  0.00    +0.000 C 
ATOM     16  S   UNL     1       2.530   8.771  17.856  0.00  0.00    +0.000 S 
ATOM     17  H   UNL     1      -0.906  11.699  19.513  0.00  0.00    +0.000 HD
ATOM     18  H   UNL     1       0.936  10.728  18.662  0.00  0.00    +0.000 HD
ENDROOT
BRANCH   1  23
ATOM     19  C   UNL     1      -3.269  12.596  22.698  0.00  0.00    +0.000 A 
ATOM     20  C   UNL     1      -2.613  13.490  23.539  0.00  0.00    +0.000 A 
ATOM     21  C   UNL     1      -1.259  13.768  23.359  0.00  0.00    +0.000 A 
ATOM     22  C   UNL     1      -0.538  13.166  22.321  0.00  0.00    +0.000 A 
ATOM     23  C   UNL     1      -1.173  12.204  21.506  0.00  0.00    +0.000 A 
ATOM     24  C   UNL     1      -2.547  11.950  21.691  0.00  0.00    +0.000 A 
BRANCH  19  26
ATOM     25  C   UNL     1      -5.028  12.670  24.299  0.00  0.00    +0.000 C 
ATOM     26  O   UNL     1      -4.602  12.454  22.962  0.00  0.00    +0.000 OA
ENDBRANCH  19  26
BRANCH  22  27
ATOM     27  O   UNL     1       0.749  13.517  22.020  0.00  0.00    +0.000 OA
ATOM     28  C   UNL     1       1.006  14.866  21.661  0.00  0.00    +0.000 C 
ENDBRANCH  22  27
ENDBRANCH   1  23
TORSDOF 3
ENDMDL
