MODEL 1
REMARK VINA RESULT:      -8.4      0.000      0.000
REMARK  Name = 
REMARK  7 active torsions:
REMARK  status: ('A' for Active; 'I' for Inactive)
REMARK    1  A    between atoms: C_1  and  C_2
REMARK    2  A    between atoms: C_2  and  C_3
REMARK    3  A    between atoms: C_3  and  C_4
REMARK    4  A    between atoms: C_9  and  N_10
REMARK    5  A    between atoms: N_13  and  C_14
REMARK    6  A    between atoms: C_14  and  C_15
REMARK    7  A    between atoms: C_14  and  C_16
REMARK                            x       y       z     vdW  Elec       q    Type
REMARK                         _______ _______ _______ _____ _____    ______ ____
ROOT
ATOM      1  N   UNL     1       6.219   5.088  17.787  0.00  0.00    +0.000 N 
ATOM      2  C   UNL     1       5.119   5.469  18.532  0.00  0.00    +0.000 C 
ATOM      3  O   UNL     1       5.245   5.779  19.718  0.00  0.00    +0.000 OA
ATOM      4  N   UNL     1       3.945   5.489  17.864  0.00  0.00    +0.000 N 
ATOM      5  H   UNL     1       7.085   5.111  18.302  0.00  0.00    +0.000 HD
ATOM      6  H   UNL     1       4.035   5.285  16.874  0.00  0.00    +0.000 HD
ENDROOT
BRANCH   1  12
ATOM      7  C   UNL     1       6.407   3.781  12.418  0.00  0.00    +0.000 A 
ATOM      8  N   UNL     1       7.356   4.623  11.989  0.00  0.00    +0.000 NA
ATOM      9  N   UNL     1       7.743   5.271  13.103  0.00  0.00    +0.000 N 
ATOM     10  C   UNL     1       7.064   4.904  14.234  0.00  0.00    +0.000 A 
ATOM     11  C   UNL     1       7.123   5.341  15.564  0.00  0.00    +0.000 A 
ATOM     12  C   UNL     1       6.245   4.701  16.434  0.00  0.00    +0.000 A 
ATOM     13  N   UNL     1       5.400   3.719  16.035  0.00  0.00    +0.000 NA
ATOM     14  C   UNL     1       5.355   3.316  14.745  0.00  0.00    +0.000 A 
ATOM     15  C   UNL     1       6.190   3.910  13.810  0.00  0.00    +0.000 A 
ATOM     16  H   UNL     1       8.478   5.965  13.016  0.00  0.00    +0.000 HD
BRANCH   7  17
ATOM     17  C   UNL     1       5.685   2.874  11.469  0.00  0.00    +0.000 C 
BRANCH  17  19
ATOM     18  C   UNL     1       3.682   3.785  10.240  0.00  0.00    +0.000 C 
ATOM     19  C   UNL     1       4.169   3.071  11.491  0.00  0.00    +0.000 C 
ENDBRANCH  17  19
ENDBRANCH   7  17
ENDBRANCH   1  12
BRANCH   4  20
ATOM     20  C   UNL     1       2.638   5.910  18.317  0.00  0.00    +0.000 C 
ATOM     21  C   UNL     1       2.708   7.180  19.166  0.00  0.00    +0.000 C 
BRANCH  20  22
ATOM     22  C   UNL     1       2.026   4.762  19.114  0.00  0.00    +0.000 A 
ATOM     23  C   UNL     1       1.461   3.667  18.448  0.00  0.00    +0.000 A 
ATOM     24  C   UNL     1       0.941   2.589  19.169  0.00  0.00    +0.000 A 
ATOM     25  C   UNL     1       0.987   2.587  20.562  0.00  0.00    +0.000 A 
ATOM     26  C   UNL     1       1.554   3.664  21.239  0.00  0.00    +0.000 A 
ATOM     27  C   UNL     1       2.070   4.742  20.521  0.00  0.00    +0.000 A 
ENDBRANCH  20  22
ENDBRANCH   4  20
TORSDOF 5
ENDMDL
MODEL 2
REMARK VINA RESULT:      -8.1      0.816      1.487
REMARK  Name = 
REMARK  7 active torsions:
REMARK  status: ('A' for Active; 'I' for Inactive)
REMARK    1  A    between atoms: C_1  and  C_2
REMARK    2  A    between atoms: C_2  and  C_3
REMARK    3  A    between atoms: C_3  and  C_4
REMARK    4  A    between atoms: C_9  and  N_10
REMARK    5  A    between atoms: N_13  and  C_14
REMARK    6  A    between atoms: C_14  and  C_15
REMARK    7  A    between atoms: C_14  and  C_16
REMARK                            x       y       z     vdW  Elec       q    Type
REMARK                         _______ _______ _______ _____ _____    ______ ____
ROOT
ATOM      1  N   UNL     1       6.256   5.013  17.906  0.00  0.00    +0.000 N 
ATOM      2  C   UNL     1       5.101   5.362  18.580  0.00  0.00    +0.000 C 
ATOM      3  O   UNL     1       5.128   5.591  19.790  0.00  0.00    +0.000 OA
ATOM      4  N   UNL     1       3.989   5.445  17.818  0.00  0.00    +0.000 N 
ATOM      5  H   UNL     1       7.075   4.988  18.492  0.00  0.00    +0.000 HD
ATOM      6  H   UNL     1       4.160   5.305  16.827  0.00  0.00    +0.000 HD
ENDROOT
BRANCH   1  12
ATOM      7  C   UNL     1       6.865   4.067  12.493  0.00  0.00    +0.000 A 
ATOM      8  N   UNL     1       7.759   5.011  12.173  0.00  0.00    +0.000 NA
ATOM      9  N   UNL     1       8.023   5.618  13.344  0.00  0.00    +0.000 N 
ATOM     10  C   UNL     1       7.315   5.125  14.408  0.00  0.00    +0.000 A 
ATOM     11  C   UNL     1       7.260   5.481  15.762  0.00  0.00    +0.000 A 
ATOM     12  C   UNL     1       6.393   4.716  16.538  0.00  0.00    +0.000 A 
ATOM     13  N   UNL     1       5.661   3.693  16.030  0.00  0.00    +0.000 NA
ATOM     14  C   UNL     1       5.726   3.369  14.719  0.00  0.00    +0.000 A 
ATOM     15  C   UNL     1       6.558   4.089  13.874  0.00  0.00    +0.000 A 
ATOM     16  H   UNL     1       8.699   6.375  13.345  0.00  0.00    +0.000 HD
BRANCH   7  17
ATOM     17  C   UNL     1       6.280   3.164  11.450  0.00  0.00    +0.000 C 
BRANCH  17  19
ATOM     18  C   UNL     1       6.228   0.669  11.101  0.00  0.00    +0.000 C 
ATOM     19  C   UNL     1       7.110   1.902  11.219  0.00  0.00    +0.000 C 
ENDBRANCH  17  19
ENDBRANCH   7  17
ENDBRANCH   1  12
BRANCH   4  20
ATOM     20  C   UNL     1       2.651   5.856  18.186  0.00  0.00    +0.000 C 
ATOM     21  C   UNL     1       2.660   7.102  19.074  0.00  0.00    +0.000 C 
BRANCH  20  22
ATOM     22  C   UNL     1       1.983   4.687  18.904  0.00  0.00    +0.000 A 
ATOM     23  C   UNL     1       1.814   4.720  20.294  0.00  0.00    +0.000 A 
ATOM     24  C   UNL     1       1.162   3.676  20.954  0.00  0.00    +0.000 A 
ATOM     25  C   UNL     1       0.662   2.592  20.234  0.00  0.00    +0.000 A 
ATOM     26  C   UNL     1       0.813   2.549  18.851  0.00  0.00    +0.000 A 
ATOM     27  C   UNL     1       1.468   3.588  18.190  0.00  0.00    +0.000 A 
ENDBRANCH  20  22
ENDBRANCH   4  20
TORSDOF 5
ENDMDL
MODEL 3
REMARK VINA RESULT:      -8.0      1.166      2.372
REMARK  Name = 
REMARK  7 active torsions:
REMARK  status: ('A' for Active; 'I' for Inactive)
REMARK    1  A    between atoms: C_1  and  C_2
REMARK    2  A    between atoms: C_2  and  C_3
REMARK    3  A    between atoms: C_3  and  C_4
REMARK    4  A    between atoms: C_9  and  N_10
REMARK    5  A    between atoms: N_13  and  C_14
REMARK    6  A    between atoms: C_14  and  C_15
REMARK    7  A    between atoms: C_14  and  C_16
REMARK                            x       y       z     vdW  Elec       q    Type
REMARK                         _______ _______ _______ _____ _____    ______ ____
ROOT
ATOM      1  N   UNL     1       6.395   4.416  18.153  0.00  0.00    +0.000 N 
ATOM      2  C   UNL     1       5.289   4.491  18.977  0.00  0.00    +0.000 C 
ATOM      3  O   UNL     1       5.425   4.613  20.196  0.00  0.00    +0.000 OA
ATOM      4  N   UNL     1       4.094   4.440  18.350  0.00  0.00    +0.000 N 
ATOM      5  H   UNL     1       7.272   4.486  18.644  0.00  0.00    +0.000 HD
ATOM      6  H   UNL     1       4.164   4.422  17.337  0.00  0.00    +0.000 HD
ENDROOT
BRANCH   1  12
ATOM      7  C   UNL     1       6.546   4.066  12.637  0.00  0.00    +0.000 A 
ATOM      8  N   UNL     1       7.480   4.982  12.354  0.00  0.00    +0.000 NA
ATOM      9  N   UNL     1       7.870   5.431  13.560  0.00  0.00    +0.000 N 
ATOM     10  C   UNL     1       7.207   4.864  14.616  0.00  0.00    +0.000 A 
ATOM     11  C   UNL     1       7.274   5.064  16.001  0.00  0.00    +0.000 A 
ATOM     12  C   UNL     1       6.413   4.270  16.753  0.00  0.00    +0.000 A 
ATOM     13  N   UNL     1       5.574   3.362  16.195  0.00  0.00    +0.000 NA
ATOM     14  C   UNL     1       5.522   3.189  14.855  0.00  0.00    +0.000 A 
ATOM     15  C   UNL     1       6.341   3.947  14.032  0.00  0.00    +0.000 A 
ATOM     16  H   UNL     1       8.597   6.139  13.591  0.00  0.00    +0.000 HD
BRANCH   7  17
ATOM     17  C   UNL     1       5.825   3.328  11.550  0.00  0.00    +0.000 C 
BRANCH  17  19
ATOM     18  C   UNL     1       3.594   3.564  10.402  0.00  0.00    +0.000 C 
ATOM     19  C   UNL     1       4.306   3.339  11.726  0.00  0.00    +0.000 C 
ENDBRANCH  17  19
ENDBRANCH   7  17
ENDBRANCH   1  12
BRANCH   4  20
ATOM     20  C   UNL     1       2.762   4.570  18.898  0.00  0.00    +0.000 C 
ATOM     21  C   UNL     1       1.718   3.852  18.041  0.00  0.00    +0.000 C 
BRANCH  20  22
ATOM     22  C   UNL     1       2.441   6.058  19.004  0.00  0.00    +0.000 A 
ATOM     23  C   UNL     1       2.518   6.875  17.869  0.00  0.00    +0.000 A 
ATOM     24  C   UNL     1       2.182   8.229  17.946  0.00  0.00    +0.000 A 
ATOM     25  C   UNL     1       1.756   8.781  19.154  0.00  0.00    +0.000 A 
ATOM     26  C   UNL     1       1.666   7.979  20.289  0.00  0.00    +0.000 A 
ATOM     27  C   UNL     1       2.005   6.629  20.215  0.00  0.00    +0.000 A 
ENDBRANCH  20  22
ENDBRANCH   4  20
TORSDOF 5
ENDMDL
MODEL 4
REMARK VINA RESULT:      -7.9      1.385      1.902
REMARK  Name = 
REMARK  7 active torsions:
REMARK  status: ('A' for Active; 'I' for Inactive)
REMARK    1  A    between atoms: C_1  and  C_2
REMARK    2  A    between atoms: C_2  and  C_3
REMARK    3  A    between atoms: C_3  and  C_4
REMARK    4  A    between atoms: C_9  and  N_10
REMARK    5  A    between atoms: N_13  and  C_14
REMARK    6  A    between atoms: C_14  and  C_15
REMARK    7  A    between atoms: C_14  and  C_16
REMARK                            x       y       z     vdW  Elec       q    Type
REMARK                         _______ _______ _______ _____ _____    ______ ____
ROOT
ATOM      1  N   UNL     1       6.617   5.233  17.831  0.00  0.00    +0.000 N 
ATOM      2  C   UNL     1       6.144   4.603  18.967  0.00  0.00    +0.000 C 
ATOM      3  O   UNL     1       6.342   5.092  20.080  0.00  0.00    +0.000 OA
ATOM      4  N   UNL     1       5.457   3.460  18.752  0.00  0.00    +0.000 N 
ATOM      5  H   UNL     1       7.099   6.098  18.018  0.00  0.00    +0.000 HD
ATOM      6  H   UNL     1       5.317   3.246  17.770  0.00  0.00    +0.000 HD
ENDROOT
BRANCH   1  12
ATOM      7  C   UNL     1       6.197   3.761  12.518  0.00  0.00    +0.000 A 
ATOM      8  N   UNL     1       7.196   4.473  11.982  0.00  0.00    +0.000 NA
ATOM      9  N   UNL     1       7.748   5.104  13.035  0.00  0.00    +0.000 N 
ATOM     10  C   UNL     1       7.130   4.851  14.231  0.00  0.00    +0.000 A 
ATOM     11  C   UNL     1       7.352   5.315  15.534  0.00  0.00    +0.000 A 
ATOM     12  C   UNL     1       6.484   4.807  16.497  0.00  0.00    +0.000 A 
ATOM     13  N   UNL     1       5.501   3.920  16.205  0.00  0.00    +0.000 NA
ATOM     14  C   UNL     1       5.301   3.488  14.939  0.00  0.00    +0.000 A 
ATOM     15  C   UNL     1       6.116   3.954  13.918  0.00  0.00    +0.000 A 
ATOM     16  H   UNL     1       8.548   5.703  12.863  0.00  0.00    +0.000 HD
BRANCH   7  17
ATOM     17  C   UNL     1       5.298   2.919  11.667  0.00  0.00    +0.000 C 
BRANCH  17  19
ATOM     18  C   UNL     1       3.384   3.484  10.127  0.00  0.00    +0.000 C 
ATOM     19  C   UNL     1       3.877   3.474  11.566  0.00  0.00    +0.000 C 
ENDBRANCH  17  19
ENDBRANCH   7  17
ENDBRANCH   1  12
BRANCH   4  20
ATOM     20  C   UNL     1       4.771   2.609  19.699  0.00  0.00    +0.000 C 
ATOM     21  C   UNL     1       4.744   1.150  19.241  0.00  0.00    +0.000 C 
BRANCH  20  22
ATOM     22  C   UNL     1       3.353   3.147  19.870  0.00  0.00    +0.000 A 
ATOM     23  C   UNL     1       2.745   3.866  18.834  0.00  0.00    +0.000 A 
ATOM     24  C   UNL     1       1.431   4.322  18.963  0.00  0.00    +0.000 A 
ATOM     25  C   UNL     1       0.706   4.058  20.124  0.00  0.00    +0.000 A 
ATOM     26  C   UNL     1       1.293   3.337  21.160  0.00  0.00    +0.000 A 
ATOM     27  C   UNL     1       2.606   2.885  21.035  0.00  0.00    +0.000 A 
ENDBRANCH  20  22
ENDBRANCH   4  20
TORSDOF 5
ENDMDL
MODEL 5
REMARK VINA RESULT:      -7.8      0.342      1.035
REMARK  Name = 
REMARK  7 active torsions:
REMARK  status: ('A' for Active; 'I' for Inactive)
REMARK    1  A    between atoms: C_1  and  C_2
REMARK    2  A    between atoms: C_2  and  C_3
REMARK    3  A    between atoms: C_3  and  C_4
REMARK    4  A    between atoms: C_9  and  N_10
REMARK    5  A    between atoms: N_13  and  C_14
REMARK    6  A    between atoms: C_14  and  C_15
REMARK    7  A    between atoms: C_14  and  C_16
REMARK                            x       y       z     vdW  Elec       q    Type
REMARK                         _______ _______ _______ _____ _____    ______ ____
ROOT
ATOM      1  N   UNL     1       6.339   5.029  17.872  0.00  0.00    +0.000 N 
ATOM      2  C   UNL     1       5.265   5.388  18.664  0.00  0.00    +0.000 C 
ATOM      3  O   UNL     1       5.431   5.670  19.852  0.00  0.00    +0.000 OA
ATOM      4  N   UNL     1       4.068   5.419  18.039  0.00  0.00    +0.000 N 
ATOM      5  H   UNL     1       7.223   5.044  18.357  0.00  0.00    +0.000 HD
ATOM      6  H   UNL     1       4.123   5.240  17.042  0.00  0.00    +0.000 HD
ENDROOT
BRANCH   1  12
ATOM      7  C   UNL     1       6.357   3.846  12.471  0.00  0.00    +0.000 A 
ATOM      8  N   UNL     1       7.351   4.636  12.046  0.00  0.00    +0.000 NA
ATOM      9  N   UNL     1       7.797   5.231  13.168  0.00  0.00    +0.000 N 
ATOM     10  C   UNL     1       7.114   4.880  14.301  0.00  0.00    +0.000 A 
ATOM     11  C   UNL     1       7.222   5.279  15.640  0.00  0.00    +0.000 A 
ATOM     12  C   UNL     1       6.319   4.675  16.511  0.00  0.00    +0.000 A 
ATOM     13  N   UNL     1       5.406   3.759  16.103  0.00  0.00    +0.000 NA
ATOM     14  C   UNL     1       5.315   3.391  14.804  0.00  0.00    +0.000 A 
ATOM     15  C   UNL     1       6.172   3.954  13.870  0.00  0.00    +0.000 A 
ATOM     16  H   UNL     1       8.574   5.878  13.085  0.00  0.00    +0.000 HD
BRANCH   7  17
ATOM     17  C   UNL     1       5.563   3.011  11.514  0.00  0.00    +0.000 C 
BRANCH  17  19
ATOM     18  C   UNL     1       3.391   2.739  10.266  0.00  0.00    +0.000 C 
ATOM     19  C   UNL     1       4.104   3.453  11.404  0.00  0.00    +0.000 C 
ENDBRANCH  17  19
ENDBRANCH   7  17
ENDBRANCH   1  12
BRANCH   4  20
ATOM     20  C   UNL     1       2.776   5.823  18.548  0.00  0.00    +0.000 C 
ATOM     21  C   UNL     1       2.865   7.102  19.382  0.00  0.00    +0.000 C 
BRANCH  20  22
ATOM     22  C   UNL     1       2.220   4.673  19.382  0.00  0.00    +0.000 A 
ATOM     23  C   UNL     1       2.441   4.638  20.764  0.00  0.00    +0.000 A 
ATOM     24  C   UNL     1       1.897   3.614  21.543  0.00  0.00    +0.000 A 
ATOM     25  C   UNL     1       1.119   2.619  20.953  0.00  0.00    +0.000 A 
ATOM     26  C   UNL     1       0.882   2.645  19.581  0.00  0.00    +0.000 A 
ATOM     27  C   UNL     1       1.428   3.664  18.801  0.00  0.00    +0.000 A 
ENDBRANCH  20  22
ENDBRANCH   4  20
TORSDOF 5
ENDMDL
MODEL 6
REMARK VINA RESULT:      -7.7      0.589      1.047
REMARK  Name = 
REMARK  7 active torsions:
REMARK  status: ('A' for Active; 'I' for Inactive)
REMARK    1  A    between atoms: C_1  and  C_2
REMARK    2  A    between atoms: C_2  and  C_3
REMARK    3  A    between atoms: C_3  and  C_4
REMARK    4  A    between atoms: C_9  and  N_10
REMARK    5  A    between atoms: N_13  and  C_14
REMARK    6  A    between atoms: C_14  and  C_15
REMARK    7  A    between atoms: C_14  and  C_16
REMARK                            x       y       z     vdW  Elec       q    Type
REMARK                         _______ _______ _______ _____ _____    ______ ____
ROOT
ATOM      1  N   UNL     1       6.269   5.059  17.814  0.00  0.00    +0.000 N 
ATOM      2  C   UNL     1       5.202   5.423  18.612  0.00  0.00    +0.000 C 
ATOM      3  O   UNL     1       5.378   5.714  19.796  0.00  0.00    +0.000 OA
ATOM      4  N   UNL     1       4.000   5.449  17.996  0.00  0.00    +0.000 N 
ATOM      5  H   UNL     1       7.157   5.078  18.290  0.00  0.00    +0.000 HD
ATOM      6  H   UNL     1       4.046   5.261  17.000  0.00  0.00    +0.000 HD
ENDROOT
BRANCH   1  12
ATOM      7  C   UNL     1       6.253   3.829  12.423  0.00  0.00    +0.000 A 
ATOM      8  N   UNL     1       7.282   4.570  11.995  0.00  0.00    +0.000 NA
ATOM      9  N   UNL     1       7.750   5.153  13.113  0.00  0.00    +0.000 N 
ATOM     10  C   UNL     1       7.048   4.844  14.247  0.00  0.00    +0.000 A 
ATOM     11  C   UNL     1       7.170   5.249  15.583  0.00  0.00    +0.000 A 
ATOM     12  C   UNL     1       6.238   4.694  16.455  0.00  0.00    +0.000 A 
ATOM     13  N   UNL     1       5.286   3.817  16.051  0.00  0.00    +0.000 NA
ATOM     14  C   UNL     1       5.183   3.442  14.756  0.00  0.00    +0.000 A 
ATOM     15  C   UNL     1       6.067   3.957  13.820  0.00  0.00    +0.000 A 
ATOM     16  H   UNL     1       8.556   5.764  13.028  0.00  0.00    +0.000 HD
BRANCH   7  17
ATOM     17  C   UNL     1       5.425   3.022  11.470  0.00  0.00    +0.000 C 
BRANCH  17  19
ATOM     18  C   UNL     1       7.381   1.503  11.003  0.00  0.00    +0.000 C 
ATOM     19  C   UNL     1       5.900   1.575  11.343  0.00  0.00    +0.000 C 
ENDBRANCH  17  19
ENDBRANCH   7  17
ENDBRANCH   1  12
BRANCH   4  20
ATOM     20  C   UNL     1       2.711   5.856  18.513  0.00  0.00    +0.000 C 
ATOM     21  C   UNL     1       2.800   7.162  19.304  0.00  0.00    +0.000 C 
BRANCH  20  22
ATOM     22  C   UNL     1       2.181   4.728  19.393  0.00  0.00    +0.000 A 
ATOM     23  C   UNL     1       1.471   3.665  18.819  0.00  0.00    +0.000 A 
ATOM     24  C   UNL     1       1.022   2.605  19.610  0.00  0.00    +0.000 A 
ATOM     25  C   UNL     1       1.285   2.587  20.979  0.00  0.00    +0.000 A 
ATOM     26  C   UNL     1       1.997   3.631  21.562  0.00  0.00    +0.000 A 
ATOM     27  C   UNL     1       2.442   4.693  20.776  0.00  0.00    +0.000 A 
ENDBRANCH  20  22
ENDBRANCH   4  20
TORSDOF 5
ENDMDL
MODEL 7
REMARK VINA RESULT:      -7.7      1.215      2.709
REMARK  Name = 
REMARK  7 active torsions:
REMARK  status: ('A' for Active; 'I' for Inactive)
REMARK    1  A    between atoms: C_1  and  C_2
REMARK    2  A    between atoms: C_2  and  C_3
REMARK    3  A    between atoms: C_3  and  C_4
REMARK    4  A    between atoms: C_9  and  N_10
REMARK    5  A    between atoms: N_13  and  C_14
REMARK    6  A    between atoms: C_14  and  C_15
REMARK    7  A    between atoms: C_14  and  C_16
REMARK                            x       y       z     vdW  Elec       q    Type
REMARK                         _______ _______ _______ _____ _____    ______ ____
ROOT
ATOM      1  N   UNL     1       6.726   4.850  17.949  0.00  0.00    +0.000 N 
ATOM      2  C   UNL     1       5.725   4.899  18.901  0.00  0.00    +0.000 C 
ATOM      3  O   UNL     1       5.992   5.152  20.076  0.00  0.00    +0.000 OA
ATOM      4  N   UNL     1       4.475   4.673  18.440  0.00  0.00    +0.000 N 
ATOM      5  H   UNL     1       7.643   5.052  18.315  0.00  0.00    +0.000 HD
ATOM      6  H   UNL     1       4.425   4.563  17.432  0.00  0.00    +0.000 HD
ENDROOT
BRANCH   1  12
ATOM      7  C   UNL     1       6.285   3.966  12.509  0.00  0.00    +0.000 A 
ATOM      8  N   UNL     1       7.232   4.791  12.044  0.00  0.00    +0.000 NA
ATOM      9  N   UNL     1       7.767   5.329  13.155  0.00  0.00    +0.000 N 
ATOM     10  C   UNL     1       7.188   4.907  14.322  0.00  0.00    +0.000 A 
ATOM     11  C   UNL     1       7.409   5.234  15.667  0.00  0.00    +0.000 A 
ATOM     12  C   UNL     1       6.590   4.571  16.577  0.00  0.00    +0.000 A 
ATOM     13  N   UNL     1       5.653   3.667  16.199  0.00  0.00    +0.000 NA
ATOM     14  C   UNL     1       5.453   3.370  14.894  0.00  0.00    +0.000 A 
ATOM     15  C   UNL     1       6.221   3.994  13.923  0.00  0.00    +0.000 A 
ATOM     16  H   UNL     1       8.529   5.990  13.042  0.00  0.00    +0.000 HD
BRANCH   7  17
ATOM     17  C   UNL     1       5.418   3.174  11.579  0.00  0.00    +0.000 C 
BRANCH  17  19
ATOM     18  C   UNL     1       7.149   1.451  10.955  0.00  0.00    +0.000 C 
ATOM     19  C   UNL     1       5.770   1.687  11.553  0.00  0.00    +0.000 C 
ENDBRANCH  17  19
ENDBRANCH   7  17
ENDBRANCH   1  12
BRANCH   4  20
ATOM     20  C   UNL     1       3.213   4.728  19.143  0.00  0.00    +0.000 C 
ATOM     21  C   UNL     1       2.192   3.747  18.563  0.00  0.00    +0.000 C 
BRANCH  20  22
ATOM     22  C   UNL     1       2.692   6.159  19.060  0.00  0.00    +0.000 A 
ATOM     23  C   UNL     1       2.073   6.747  20.171  0.00  0.00    +0.000 A 
ATOM     24  C   UNL     1       1.635   8.072  20.120  0.00  0.00    +0.000 A 
ATOM     25  C   UNL     1       1.817   8.830  18.964  0.00  0.00    +0.000 A 
ATOM     26  C   UNL     1       2.438   8.263  17.854  0.00  0.00    +0.000 A 
ATOM     27  C   UNL     1       2.873   6.939  17.902  0.00  0.00    +0.000 A 
ENDBRANCH  20  22
ENDBRANCH   4  20
TORSDOF 5
ENDMDL
MODEL 8
REMARK VINA RESULT:      -7.5      1.461      2.107
REMARK  Name = 
REMARK  7 active torsions:
REMARK  status: ('A' for Active; 'I' for Inactive)
REMARK    1  A    between atoms: C_1  and  C_2
REMARK    2  A    between atoms: C_2  and  C_3
REMARK    3  A    between atoms: C_3  and  C_4
REMARK    4  A    between atoms: C_9  and  N_10
REMARK    5  A    between atoms: N_13  and  C_14
REMARK    6  A    between atoms: C_14  and  C_15
REMARK    7  A    between atoms: C_14  and  C_16
REMARK                            x       y       z     vdW  Elec       q    Type
REMARK                         _______ _______ _______ _____ _____    ______ ____
ROOT
ATOM      1  N   UNL     1       6.438   5.237  17.925  0.00  0.00    +0.000 N 
ATOM      2  C   UNL     1       5.968   4.549  19.028  0.00  0.00    +0.000 C 
ATOM      3  O   UNL     1       6.119   5.008  20.161  0.00  0.00    +0.000 OA
ATOM      4  N   UNL     1       5.337   3.386  18.759  0.00  0.00    +0.000 N 
ATOM      5  H   UNL     1       6.878   6.115  18.152  0.00  0.00    +0.000 HD
ATOM      6  H   UNL     1       5.228   3.199  17.767  0.00  0.00    +0.000 HD
ENDROOT
BRANCH   1  12
ATOM      7  C   UNL     1       6.222   3.920  12.560  0.00  0.00    +0.000 A 
ATOM      8  N   UNL     1       7.277   4.599  12.093  0.00  0.00    +0.000 NA
ATOM      9  N   UNL     1       7.803   5.176  13.189  0.00  0.00    +0.000 N 
ATOM     10  C   UNL     1       7.115   4.922  14.345  0.00  0.00    +0.000 A 
ATOM     11  C   UNL     1       7.291   5.343  15.670  0.00  0.00    +0.000 A 
ATOM     12  C   UNL     1       6.354   4.851  16.574  0.00  0.00    +0.000 A 
ATOM     13  N   UNL     1       5.348   4.018  16.210  0.00  0.00    +0.000 NA
ATOM     14  C   UNL     1       5.193   3.628  14.925  0.00  0.00    +0.000 A 
ATOM     15  C   UNL     1       6.079   4.081  13.958  0.00  0.00    +0.000 A 
ATOM     16  H   UNL     1       8.636   5.743  13.073  0.00  0.00    +0.000 HD
BRANCH   7  17
ATOM     17  C   UNL     1       5.330   3.142  11.642  0.00  0.00    +0.000 C 
BRANCH  17  19
ATOM     18  C   UNL     1       7.043   1.451  10.896  0.00  0.00    +0.000 C 
ATOM     19  C   UNL     1       5.695   1.659  11.568  0.00  0.00    +0.000 C 
ENDBRANCH  17  19
ENDBRANCH   7  17
ENDBRANCH   1  12
BRANCH   4  20
ATOM     20  C   UNL     1       4.667   2.474  19.661  0.00  0.00    +0.000 C 
ATOM     21  C   UNL     1       4.620   1.050  19.103  0.00  0.00    +0.000 C 
BRANCH  20  22
ATOM     22  C   UNL     1       3.258   3.005  19.903  0.00  0.00    +0.000 A 
ATOM     23  C   UNL     1       2.514   3.535  18.840  0.00  0.00    +0.000 A 
ATOM     24  C   UNL     1       1.206   3.980  19.043  0.00  0.00    +0.000 A 
ATOM     25  C   UNL     1       0.621   3.895  20.305  0.00  0.00    +0.000 A 
ATOM     26  C   UNL     1       1.344   3.363  21.370  0.00  0.00    +0.000 A 
ATOM     27  C   UNL     1       2.651   2.921  21.171  0.00  0.00    +0.000 A 
ENDBRANCH  20  22
ENDBRANCH   4  20
TORSDOF 5
ENDMDL
MODEL 9
REMARK VINA RESULT:      -7.5      3.817      7.914
REMARK  Name = 
REMARK  7 active torsions:
REMARK  status: ('A' for Active; 'I' for Inactive)
REMARK    1  A    between atoms: C_1  and  C_2
REMARK    2  A    between atoms: C_2  and  C_3
REMARK    3  A    between atoms: C_3  and  C_4
REMARK    4  A    between atoms: C_9  and  N_10
REMARK    5  A    between atoms: N_13  and  C_14
REMARK    6  A    between atoms: C_14  and  C_15
REMARK    7  A    between atoms: C_14  and  C_16
REMARK                            x       y       z     vdW  Elec       q    Type
REMARK                         _______ _______ _______ _____ _____    ______ ____
ROOT
ATOM      1  N   UNL     1       3.733   7.609  17.281  0.00  0.00    +0.000 N 
ATOM      2  C   UNL     1       4.093   6.282  17.151  0.00  0.00    +0.000 C 
ATOM      3  O   UNL     1       4.985   5.949  16.369  0.00  0.00    +0.000 OA
ATOM      4  N   UNL     1       3.419   5.419  17.942  0.00  0.00    +0.000 N 
ATOM      5  H   UNL     1       4.273   8.234  16.702  0.00  0.00    +0.000 HD
ATOM      6  H   UNL     1       2.776   5.870  18.585  0.00  0.00    +0.000 HD
ENDROOT
BRANCH   1  12
ATOM      7  C   UNL     1      -0.150   9.941  20.452  0.00  0.00    +0.000 A 
ATOM      8  N   UNL     1      -0.578  10.919  19.644  0.00  0.00    +0.000 NA
ATOM      9  N   UNL     1       0.146  10.754  18.522  0.00  0.00    +0.000 N 
ATOM     10  C   UNL     1       1.048   9.725  18.579  0.00  0.00    +0.000 A 
ATOM     11  C   UNL     1       1.999   9.242  17.671  0.00  0.00    +0.000 A 
ATOM     12  C   UNL     1       2.739   8.150  18.117  0.00  0.00    +0.000 A 
ATOM     13  N   UNL     1       2.552   7.584  19.335  0.00  0.00    +0.000 NA
ATOM     14  C   UNL     1       1.631   8.070  20.198  0.00  0.00    +0.000 A 
ATOM     15  C   UNL     1       0.858   9.162  19.835  0.00  0.00    +0.000 A 
ATOM     16  H   UNL     1      -0.023  11.390  17.751  0.00  0.00    +0.000 HD
BRANCH   7  17
ATOM     17  C   UNL     1      -0.695   9.782  21.838  0.00  0.00    +0.000 C 
BRANCH  17  19
ATOM     18  C   UNL     1      -1.929  11.607  23.063  0.00  0.00    +0.000 C 
ATOM     19  C   UNL     1      -0.566  11.051  22.680  0.00  0.00    +0.000 C 
ENDBRANCH  17  19
ENDBRANCH   7  17
ENDBRANCH   1  12
BRANCH   4  20
ATOM     20  C   UNL     1       3.599   3.993  18.110  0.00  0.00    +0.000 C 
ATOM     21  C   UNL     1       3.077   3.206  16.908  0.00  0.00    +0.000 C 
BRANCH  20  22
ATOM     22  C   UNL     1       2.873   3.576  19.385  0.00  0.00    +0.000 A 
ATOM     23  C   UNL     1       1.535   3.941  19.583  0.00  0.00    +0.000 A 
ATOM     24  C   UNL     1       0.848   3.524  20.725  0.00  0.00    +0.000 A 
ATOM     25  C   UNL     1       1.484   2.731  21.679  0.00  0.00    +0.000 A 
ATOM     26  C   UNL     1       2.811   2.351  21.493  0.00  0.00    +0.000 A 
ATOM     27  C   UNL     1       3.500   2.770  20.355  0.00  0.00    +0.000 A 
ENDBRANCH  20  22
ENDBRANCH   4  20
TORSDOF 5
ENDMDL
