MODEL 1
REMARK VINA RESULT:      -9.3      0.000      0.000
REMARK  Name = 
REMARK  7 active torsions:
REMARK  status: ('A' for Active; 'I' for Inactive)
REMARK    1  A    between atoms: C_1  and  O_2
REMARK    2  A    between atoms: O_2  and  C_3
REMARK    3  A    between atoms: C_6  and  N_7
REMARK    4  A    between atoms: C_9  and  C_10
REMARK    5  A    between atoms: C_18  and  C_20
REMARK    6  A    between atoms: C_23  and  C_24
REMARK    7  A    between atoms: C_25  and  C_26
REMARK                            x       y       z     vdW  Elec       q    Type
REMARK                         _______ _______ _______ _____ _____    ______ ____
ROOT
ATOM      1  N   UNL     1       4.352   4.458  18.728  0.00  0.00    +0.000 N 
ATOM      2  N   UNL     1       4.361   3.268  19.461  0.00  0.00    +0.000 NA
ATOM      3  C   UNL     1       3.345   3.489  20.309  0.00  0.00    +0.000 A 
ATOM      4  C   UNL     1       2.910   2.508  21.320  0.00  0.00    +0.000 C 
ATOM      5  C   UNL     1       2.712   4.747  20.170  0.00  0.00    +0.000 A 
ATOM      6  S   UNL     1       1.469   5.753  20.754  0.00  0.00    +0.000 S 
ATOM      7  C   UNL     1       2.051   7.018  19.661  0.00  0.00    +0.000 A 
ATOM      8  N   UNL     1       1.431   8.236  19.670  0.00  0.00    +0.000 N 
ATOM      9  C   UNL     1       1.799   9.241  18.658  0.00  0.00    +0.000 C 
ATOM     10  C   UNL     1       0.654  10.272  18.487  0.00  0.00    +0.000 C 
ATOM     11  N   UNL     1       0.202  10.834  19.772  0.00  0.00    +0.000 N 
ATOM     12  C   UNL     1      -0.237  12.160  19.797  0.00  0.00    +0.000 C 
ATOM     13  O   UNL     1      -0.282  12.853  18.781  0.00  0.00    +0.000 OA
ATOM     14  C   UNL     1      -0.140   9.803  20.759  0.00  0.00    +0.000 C 
ATOM     15  C   UNL     1       1.039   8.838  20.963  0.00  0.00    +0.000 C 
ATOM     16  N   UNL     1       3.030   6.641  18.841  0.00  0.00    +0.000 NA
ATOM     17  C   UNL     1       3.387   5.369  19.172  0.00  0.00    +0.000 A 
ENDROOT
BRANCH  12  18
ATOM     18  C   UNL     1      -0.655  12.800  21.078  0.00  0.00    +0.000 A 
ATOM     19  C   UNL     1       0.096  13.872  21.569  0.00  0.00    +0.000 A 
ATOM     20  C   UNL     1      -0.268  14.497  22.765  0.00  0.00    +0.000 A 
ATOM     21  C   UNL     1      -1.395  14.074  23.488  0.00  0.00    +0.000 A 
ATOM     22  C   UNL     1      -1.778  14.814  24.740  0.00  0.00    +0.000 C 
ATOM     23  C   UNL     1      -2.135  12.971  23.019  0.00  0.00    +0.000 A 
ATOM     24  C   UNL     1      -3.375  12.458  23.697  0.00  0.00    +0.000 C 
ATOM     25  C   UNL     1      -1.723  12.319  21.841  0.00  0.00    +0.000 A 
ENDBRANCH  12  18
BRANCH   1  29
ATOM     26  C   UNL     1       6.993   4.907  15.426  0.00  0.00    +0.000 A 
ATOM     27  C   UNL     1       5.626   4.741  15.226  0.00  0.00    +0.000 A 
ATOM     28  C   UNL     1       4.767   4.581  16.318  0.00  0.00    +0.000 A 
ATOM     29  C   UNL     1       5.270   4.569  17.635  0.00  0.00    +0.000 A 
ATOM     30  C   UNL     1       6.648   4.696  17.830  0.00  0.00    +0.000 A 
ATOM     31  C   UNL     1       7.503   4.863  16.725  0.00  0.00    +0.000 A 
BRANCH  26  33
ATOM     32  C   UNL     1       7.124   4.610  13.082  0.00  0.00    +0.000 C 
ATOM     33  O   UNL     1       7.733   5.064  14.285  0.00  0.00    +0.000 OA
ENDBRANCH  26  33
ENDBRANCH   1  29
TORSDOF 3
ENDMDL
MODEL 2
REMARK VINA RESULT:      -8.8      0.410      1.284
REMARK  Name = 
REMARK  7 active torsions:
REMARK  status: ('A' for Active; 'I' for Inactive)
REMARK    1  A    between atoms: C_1  and  O_2
REMARK    2  A    between atoms: O_2  and  C_3
REMARK    3  A    between atoms: C_6  and  N_7
REMARK    4  A    between atoms: C_9  and  C_10
REMARK    5  A    between atoms: C_18  and  C_20
REMARK    6  A    between atoms: C_23  and  C_24
REMARK    7  A    between atoms: C_25  and  C_26
REMARK                            x       y       z     vdW  Elec       q    Type
REMARK                         _______ _______ _______ _____ _____    ______ ____
ROOT
ATOM      1  N   UNL     1       4.270   4.390  18.809  0.00  0.00    +0.000 N 
ATOM      2  N   UNL     1       4.238   3.223  19.578  0.00  0.00    +0.000 NA
ATOM      3  C   UNL     1       3.238   3.509  20.425  0.00  0.00    +0.000 A 
ATOM      4  C   UNL     1       2.773   2.576  21.469  0.00  0.00    +0.000 C 
ATOM      5  C   UNL     1       2.653   4.785  20.253  0.00  0.00    +0.000 A 
ATOM      6  S   UNL     1       1.454   5.856  20.814  0.00  0.00    +0.000 S 
ATOM      7  C   UNL     1       2.076   7.064  19.679  0.00  0.00    +0.000 A 
ATOM      8  N   UNL     1       1.504   8.305  19.656  0.00  0.00    +0.000 N 
ATOM      9  C   UNL     1       1.902   9.264  18.611  0.00  0.00    +0.000 C 
ATOM     10  C   UNL     1       0.797  10.333  18.417  0.00  0.00    +0.000 C 
ATOM     11  N   UNL     1       0.377  10.951  19.687  0.00  0.00    +0.000 N 
ATOM     12  C   UNL     1      -0.010  12.293  19.675  0.00  0.00    +0.000 C 
ATOM     13  O   UNL     1      -0.036  12.956  18.639  0.00  0.00    +0.000 OA
ATOM     14  C   UNL     1       0.003   9.964  20.707  0.00  0.00    +0.000 C 
ATOM     15  C   UNL     1       1.145   8.960  20.933  0.00  0.00    +0.000 C 
ATOM     16  N   UNL     1       3.034   6.625  18.865  0.00  0.00    +0.000 NA
ATOM     17  C   UNL     1       3.344   5.351  19.233  0.00  0.00    +0.000 A 
ENDROOT
BRANCH  12  18
ATOM     18  C   UNL     1      -0.393  12.987  20.939  0.00  0.00    +0.000 A 
ATOM     19  C   UNL     1      -1.399  12.431  21.733  0.00  0.00    +0.000 A 
ATOM     20  C   UNL     1      -1.781  13.053  22.925  0.00  0.00    +0.000 A 
ATOM     21  C   UNL     1      -1.158  14.236  23.355  0.00  0.00    +0.000 A 
ATOM     22  C   UNL     1      -1.565  14.837  24.671  0.00  0.00    +0.000 C 
ATOM     23  C   UNL     1      -0.169  14.823  22.541  0.00  0.00    +0.000 A 
ATOM     24  C   UNL     1       0.583  16.068  22.922  0.00  0.00    +0.000 C 
ATOM     25  C   UNL     1       0.166  14.212  21.318  0.00  0.00    +0.000 A 
ENDBRANCH  12  18
BRANCH   1  29
ATOM     26  C   UNL     1       6.892   4.627  15.471  0.00  0.00    +0.000 A 
ATOM     27  C   UNL     1       5.532   4.390  15.292  0.00  0.00    +0.000 A 
ATOM     28  C   UNL     1       4.680   4.301  16.398  0.00  0.00    +0.000 A 
ATOM     29  C   UNL     1       5.182   4.432  17.707  0.00  0.00    +0.000 A 
ATOM     30  C   UNL     1       6.555   4.630  17.885  0.00  0.00    +0.000 A 
ATOM     31  C   UNL     1       7.403   4.725  16.767  0.00  0.00    +0.000 A 
BRANCH  26  33
ATOM     32  C   UNL     1       6.945   4.339  13.122  0.00  0.00    +0.000 C 
ATOM     33  O   UNL     1       7.625   4.703  14.318  0.00  0.00    +0.000 OA
ENDBRANCH  26  33
ENDBRANCH   1  29
TORSDOF 3
ENDMDL
MODEL 3
REMARK VINA RESULT:      -8.4      0.924      1.295
REMARK  Name = 
REMARK  7 active torsions:
REMARK  status: ('A' for Active; 'I' for Inactive)
REMARK    1  A    between atoms: C_1  and  O_2
REMARK    2  A    between atoms: O_2  and  C_3
REMARK    3  A    between atoms: C_6  and  N_7
REMARK    4  A    between atoms: C_9  and  C_10
REMARK    5  A    between atoms: C_18  and  C_20
REMARK    6  A    between atoms: C_23  and  C_24
REMARK    7  A    between atoms: C_25  and  C_26
REMARK                            x       y       z     vdW  Elec       q    Type
REMARK                         _______ _______ _______ _____ _____    ______ ____
ROOT
ATOM      1  N   UNL     1       4.768   4.381  17.779  0.00  0.00    +0.000 N 
ATOM      2  N   UNL     1       5.058   3.269  18.574  0.00  0.00    +0.000 NA
ATOM      3  C   UNL     1       4.211   3.464  19.596  0.00  0.00    +0.000 A 
ATOM      4  C   UNL     1       4.100   2.541  20.740  0.00  0.00    +0.000 C 
ATOM      5  C   UNL     1       3.425   4.637  19.506  0.00  0.00    +0.000 A 
ATOM      6  S   UNL     1       2.215   5.565  20.265  0.00  0.00    +0.000 S 
ATOM      7  C   UNL     1       2.420   6.777  18.991  0.00  0.00    +0.000 A 
ATOM      8  N   UNL     1       1.680   7.925  19.046  0.00  0.00    +0.000 N 
ATOM      9  C   UNL     1       1.722   8.865  17.913  0.00  0.00    +0.000 C 
ATOM     10  C   UNL     1       0.456   9.760  17.913  0.00  0.00    +0.000 C 
ATOM     11  N   UNL     1       0.208  10.388  19.223  0.00  0.00    +0.000 N 
ATOM     12  C   UNL     1      -0.367  11.662  19.248  0.00  0.00    +0.000 C 
ATOM     13  O   UNL     1      -0.691  12.253  18.218  0.00  0.00    +0.000 OA
ATOM     14  C   UNL     1       0.188   9.422  20.327  0.00  0.00    +0.000 C 
ATOM     15  C   UNL     1       1.486   8.599  20.348  0.00  0.00    +0.000 C 
ATOM     16  N   UNL     1       3.254   6.426  18.014  0.00  0.00    +0.000 NA
ATOM     17  C   UNL     1       3.812   5.229  18.351  0.00  0.00    +0.000 A 
ENDROOT
BRANCH  12  18
ATOM     18  C   UNL     1      -0.592  12.371  20.541  0.00  0.00    +0.000 A 
ATOM     19  C   UNL     1       0.272  13.411  20.896  0.00  0.00    +0.000 A 
ATOM     20  C   UNL     1       0.089  14.098  22.099  0.00  0.00    +0.000 A 
ATOM     21  C   UNL     1      -0.967  13.771  22.966  0.00  0.00    +0.000 A 
ATOM     22  C   UNL     1      -1.155  14.576  24.222  0.00  0.00    +0.000 C 
ATOM     23  C   UNL     1      -1.818  12.699  22.633  0.00  0.00    +0.000 A 
ATOM     24  C   UNL     1      -2.997  12.288  23.472  0.00  0.00    +0.000 C 
ATOM     25  C   UNL     1      -1.588  11.983  21.443  0.00  0.00    +0.000 A 
ENDBRANCH  12  18
BRANCH   1  29
ATOM     26  C   UNL     1       6.861   4.611  14.086  0.00  0.00    +0.000 A 
ATOM     27  C   UNL     1       7.427   5.108  15.256  0.00  0.00    +0.000 A 
ATOM     28  C   UNL     1       6.724   5.039  16.464  0.00  0.00    +0.000 A 
ATOM     29  C   UNL     1       5.431   4.483  16.514  0.00  0.00    +0.000 A 
ATOM     30  C   UNL     1       4.850   4.020  15.330  0.00  0.00    +0.000 A 
ATOM     31  C   UNL     1       5.567   4.088  14.121  0.00  0.00    +0.000 A 
BRANCH  26  33
ATOM     32  C   UNL     1       8.479   5.874  12.907  0.00  0.00    +0.000 C 
ATOM     33  O   UNL     1       7.644   4.724  12.968  0.00  0.00    +0.000 OA
ENDBRANCH  26  33
ENDBRANCH   1  29
TORSDOF 3
ENDMDL
MODEL 4
REMARK VINA RESULT:      -8.0      1.300      1.981
REMARK  Name = 
REMARK  7 active torsions:
REMARK  status: ('A' for Active; 'I' for Inactive)
REMARK    1  A    between atoms: C_1  and  O_2
REMARK    2  A    between atoms: O_2  and  C_3
REMARK    3  A    between atoms: C_6  and  N_7
REMARK    4  A    between atoms: C_9  and  C_10
REMARK    5  A    between atoms: C_18  and  C_20
REMARK    6  A    between atoms: C_23  and  C_24
REMARK    7  A    between atoms: C_25  and  C_26
REMARK                            x       y       z     vdW  Elec       q    Type
REMARK                         _______ _______ _______ _____ _____    ______ ____
ROOT
ATOM      1  N   UNL     1       3.468   5.363  18.861  0.00  0.00    +0.000 N 
ATOM      2  N   UNL     1       3.464   4.185  19.612  0.00  0.00    +0.000 NA
ATOM      3  C   UNL     1       2.569   4.496  20.561  0.00  0.00    +0.000 A 
ATOM      4  C   UNL     1       2.172   3.565  21.633  0.00  0.00    +0.000 C 
ATOM      5  C   UNL     1       2.026   5.799  20.467  0.00  0.00    +0.000 A 
ATOM      6  S   UNL     1       0.938   6.909  21.164  0.00  0.00    +0.000 S 
ATOM      7  C   UNL     1       1.493   8.111  19.988  0.00  0.00    +0.000 A 
ATOM      8  N   UNL     1       0.976   9.375  20.041  0.00  0.00    +0.000 N 
ATOM      9  C   UNL     1       1.308  10.335  18.975  0.00  0.00    +0.000 C 
ATOM     10  C   UNL     1       0.236  11.453  18.910  0.00  0.00    +0.000 C 
ATOM     11  N   UNL     1      -0.025  12.064  20.225  0.00  0.00    +0.000 N 
ATOM     12  C   UNL     1      -0.353  13.421  20.271  0.00  0.00    +0.000 C 
ATOM     13  O   UNL     1      -0.455  14.104  19.253  0.00  0.00    +0.000 OA
ATOM     14  C   UNL     1      -0.336  11.075  21.264  0.00  0.00    +0.000 C 
ATOM     15  C   UNL     1       0.778  10.020  21.357  0.00  0.00    +0.000 C 
ATOM     16  N   UNL     1       2.343   7.647  19.074  0.00  0.00    +0.000 NA
ATOM     17  C   UNL     1       2.633   6.354  19.390  0.00  0.00    +0.000 A 
ENDROOT
BRANCH  12  18
ATOM     18  C   UNL     1      -0.575  14.107  21.578  0.00  0.00    +0.000 A 
ATOM     19  C   UNL     1      -1.606  13.658  22.406  0.00  0.00    +0.000 A 
ATOM     20  C   UNL     1      -1.840  14.276  23.638  0.00  0.00    +0.000 A 
ATOM     21  C   UNL     1      -1.042  15.346  24.073  0.00  0.00    +0.000 A 
ATOM     22  C   UNL     1      -1.298  15.941  25.431  0.00  0.00    +0.000 C 
ATOM     23  C   UNL     1      -0.024  15.829  23.227  0.00  0.00    +0.000 A 
ATOM     24  C   UNL     1       0.908  16.945  23.610  0.00  0.00    +0.000 C 
ATOM     25  C   UNL     1       0.164  15.229  21.968  0.00  0.00    +0.000 A 
ENDBRANCH  12  18
BRANCH   1  29
ATOM     26  C   UNL     1       5.734   5.338  15.264  0.00  0.00    +0.000 A 
ATOM     27  C   UNL     1       5.419   4.148  15.914  0.00  0.00    +0.000 A 
ATOM     28  C   UNL     1       4.684   4.168  17.104  0.00  0.00    +0.000 A 
ATOM     29  C   UNL     1       4.265   5.388  17.672  0.00  0.00    +0.000 A 
ATOM     30  C   UNL     1       4.618   6.582  17.037  0.00  0.00    +0.000 A 
ATOM     31  C   UNL     1       5.352   6.552  15.837  0.00  0.00    +0.000 A 
BRANCH  26  33
ATOM     32  C   UNL     1       6.411   3.904  13.506  0.00  0.00    +0.000 C 
ATOM     33  O   UNL     1       6.448   5.195  14.105  0.00  0.00    +0.000 OA
ENDBRANCH  26  33
ENDBRANCH   1  29
TORSDOF 3
ENDMDL
MODEL 5
REMARK VINA RESULT:      -7.9      3.865     11.288
REMARK  Name = 
REMARK  7 active torsions:
REMARK  status: ('A' for Active; 'I' for Inactive)
REMARK    1  A    between atoms: C_1  and  O_2
REMARK    2  A    between atoms: O_2  and  C_3
REMARK    3  A    between atoms: C_6  and  N_7
REMARK    4  A    between atoms: C_9  and  C_10
REMARK    5  A    between atoms: C_18  and  C_20
REMARK    6  A    between atoms: C_23  and  C_24
REMARK    7  A    between atoms: C_25  and  C_26
REMARK                            x       y       z     vdW  Elec       q    Type
REMARK                         _______ _______ _______ _____ _____    ______ ____
ROOT
ATOM      1  N   UNL     1      -4.469  13.480  21.719  0.00  0.00    +0.000 N 
ATOM      2  N   UNL     1      -4.927  13.617  23.032  0.00  0.00    +0.000 NA
ATOM      3  C   UNL     1      -3.988  12.928  23.698  0.00  0.00    +0.000 A 
ATOM      4  C   UNL     1      -3.992  12.770  25.165  0.00  0.00    +0.000 C 
ATOM      5  C   UNL     1      -2.982  12.350  22.889  0.00  0.00    +0.000 A 
ATOM      6  S   UNL     1      -1.555  11.422  22.891  0.00  0.00    +0.000 S 
ATOM      7  C   UNL     1      -1.592  11.457  21.121  0.00  0.00    +0.000 A 
ATOM      8  N   UNL     1      -0.626  10.784  20.427  0.00  0.00    +0.000 N 
ATOM      9  C   UNL     1      -0.552  10.937  18.964  0.00  0.00    +0.000 C 
ATOM     10  C   UNL     1       0.870  10.579  18.460  0.00  0.00    +0.000 C 
ATOM     11  N   UNL     1       1.337   9.275  18.965  0.00  0.00    +0.000 N 
ATOM     12  C   UNL     1       2.165   8.505  18.144  0.00  0.00    +0.000 C 
ATOM     13  O   UNL     1       2.531   8.895  17.036  0.00  0.00    +0.000 OA
ATOM     14  C   UNL     1       1.232   9.156  20.424  0.00  0.00    +0.000 C 
ATOM     15  C   UNL     1      -0.204   9.444  20.889  0.00  0.00    +0.000 C 
ATOM     16  N   UNL     1      -2.548  12.222  20.598  0.00  0.00    +0.000 NA
ATOM     17  C   UNL     1      -3.319  12.687  21.620  0.00  0.00    +0.000 A 
ENDROOT
BRANCH  12  18
ATOM     18  C   UNL     1       2.625   7.154  18.579  0.00  0.00    +0.000 A 
ATOM     19  C   UNL     1       3.853   6.679  18.111  0.00  0.00    +0.000 A 
ATOM     20  C   UNL     1       4.315   5.419  18.499  0.00  0.00    +0.000 A 
ATOM     21  C   UNL     1       3.568   4.612  19.373  0.00  0.00    +0.000 A 
ATOM     22  C   UNL     1       4.134   3.288  19.806  0.00  0.00    +0.000 C 
ATOM     23  C   UNL     1       2.312   5.068  19.819  0.00  0.00    +0.000 A 
ATOM     24  C   UNL     1       1.448   4.300  20.781  0.00  0.00    +0.000 C 
ATOM     25  C   UNL     1       1.837   6.317  19.376  0.00  0.00    +0.000 A 
ENDBRANCH  12  18
BRANCH   1  29
ATOM     26  C   UNL     1      -6.462  15.612  18.628  0.00  0.00    +0.000 A 
ATOM     27  C   UNL     1      -5.738  16.288  19.606  0.00  0.00    +0.000 A 
ATOM     28  C   UNL     1      -5.097  15.578  20.626  0.00  0.00    +0.000 A 
ATOM     29  C   UNL     1      -5.184  14.173  20.692  0.00  0.00    +0.000 A 
ATOM     30  C   UNL     1      -5.944  13.500  19.730  0.00  0.00    +0.000 A 
ATOM     31  C   UNL     1      -6.581  14.223  18.704  0.00  0.00    +0.000 A 
BRANCH  26  33
ATOM     32  C   UNL     1      -7.229  15.812  16.398  0.00  0.00    +0.000 C 
ATOM     33  O   UNL     1      -7.038  16.409  17.676  0.00  0.00    +0.000 OA
ENDBRANCH  26  33
ENDBRANCH   1  29
TORSDOF 3
ENDMDL
MODEL 6
REMARK VINA RESULT:      -7.7      3.838     11.356
REMARK  Name = 
REMARK  7 active torsions:
REMARK  status: ('A' for Active; 'I' for Inactive)
REMARK    1  A    between atoms: C_1  and  O_2
REMARK    2  A    between atoms: O_2  and  C_3
REMARK    3  A    between atoms: C_6  and  N_7
REMARK    4  A    between atoms: C_9  and  C_10
REMARK    5  A    between atoms: C_18  and  C_20
REMARK    6  A    between atoms: C_23  and  C_24
REMARK    7  A    between atoms: C_25  and  C_26
REMARK                            x       y       z     vdW  Elec       q    Type
REMARK                         _______ _______ _______ _____ _____    ______ ____
ROOT
ATOM      1  N   UNL     1      -4.376  13.538  21.693  0.00  0.00    +0.000 N 
ATOM      2  N   UNL     1      -4.838  13.727  22.998  0.00  0.00    +0.000 NA
ATOM      3  C   UNL     1      -3.916  13.042  23.692  0.00  0.00    +0.000 A 
ATOM      4  C   UNL     1      -3.930  12.932  25.163  0.00  0.00    +0.000 C 
ATOM      5  C   UNL     1      -2.918  12.418  22.907  0.00  0.00    +0.000 A 
ATOM      6  S   UNL     1      -1.510  11.462  22.947  0.00  0.00    +0.000 S 
ATOM      7  C   UNL     1      -1.538  11.440  21.177  0.00  0.00    +0.000 A 
ATOM      8  N   UNL     1      -0.582  10.726  20.510  0.00  0.00    +0.000 N 
ATOM      9  C   UNL     1      -0.498  10.829  19.043  0.00  0.00    +0.000 C 
ATOM     10  C   UNL     1       0.919  10.426  18.560  0.00  0.00    +0.000 C 
ATOM     11  N   UNL     1       1.357   9.131  19.109  0.00  0.00    +0.000 N 
ATOM     12  C   UNL     1       2.174   8.318  18.318  0.00  0.00    +0.000 C 
ATOM     13  O   UNL     1       2.553   8.664  17.200  0.00  0.00    +0.000 OA
ATOM     14  C   UNL     1       1.243   9.061  20.571  0.00  0.00    +0.000 C 
ATOM     15  C   UNL     1      -0.189   9.394  21.018  0.00  0.00    +0.000 C 
ATOM     16  N   UNL     1      -2.476  12.206  20.624  0.00  0.00    +0.000 NA
ATOM     17  C   UNL     1      -3.242  12.720  21.626  0.00  0.00    +0.000 A 
ENDROOT
BRANCH  12  18
ATOM     18  C   UNL     1       2.604   6.973  18.799  0.00  0.00    +0.000 A 
ATOM     19  C   UNL     1       1.886   6.368  19.834  0.00  0.00    +0.000 A 
ATOM     20  C   UNL     1       2.260   5.107  20.308  0.00  0.00    +0.000 A 
ATOM     21  C   UNL     1       3.350   4.419  19.750  0.00  0.00    +0.000 A 
ATOM     22  C   UNL     1       3.679   3.042  20.256  0.00  0.00    +0.000 C 
ATOM     23  C   UNL     1       4.101   5.039  18.732  0.00  0.00    +0.000 A 
ATOM     24  C   UNL     1       5.264   4.378  18.044  0.00  0.00    +0.000 C 
ATOM     25  C   UNL     1       3.743   6.331  18.304  0.00  0.00    +0.000 A 
ENDBRANCH  12  18
BRANCH   1  29
ATOM     26  C   UNL     1      -6.575  15.458  18.603  0.00  0.00    +0.000 A 
ATOM     27  C   UNL     1      -6.529  14.070  18.685  0.00  0.00    +0.000 A 
ATOM     28  C   UNL     1      -5.792  13.447  19.698  0.00  0.00    +0.000 A 
ATOM     29  C   UNL     1      -5.073  14.211  20.640  0.00  0.00    +0.000 A 
ATOM     30  C   UNL     1      -5.090  15.604  20.530  0.00  0.00    +0.000 A 
ATOM     31  C   UNL     1      -5.839  16.221  19.511  0.00  0.00    +0.000 A 
BRANCH  26  33
ATOM     32  C   UNL     1      -7.258  15.245  16.346  0.00  0.00    +0.000 C 
ATOM     33  O   UNL     1      -7.334  15.954  17.578  0.00  0.00    +0.000 OA
ENDBRANCH  26  33
ENDBRANCH   1  29
TORSDOF 3
ENDMDL
MODEL 7
REMARK VINA RESULT:      -7.4      3.385     11.691
REMARK  Name = 
REMARK  7 active torsions:
REMARK  status: ('A' for Active; 'I' for Inactive)
REMARK    1  A    between atoms: C_1  and  O_2
REMARK    2  A    between atoms: O_2  and  C_3
REMARK    3  A    between atoms: C_6  and  N_7
REMARK    4  A    between atoms: C_9  and  C_10
REMARK    5  A    between atoms: C_18  and  C_20
REMARK    6  A    between atoms: C_23  and  C_24
REMARK    7  A    between atoms: C_25  and  C_26
REMARK                            x       y       z     vdW  Elec       q    Type
REMARK                         _______ _______ _______ _____ _____    ______ ____
ROOT
ATOM      1  N   UNL     1      -0.353  15.646  21.624  0.00  0.00    +0.000 N 
ATOM      2  N   UNL     1      -0.562  16.753  20.797  0.00  0.00    +0.000 NA
ATOM      3  C   UNL     1      -0.496  16.178  19.587  0.00  0.00    +0.000 A 
ATOM      4  C   UNL     1      -0.670  16.925  18.328  0.00  0.00    +0.000 C 
ATOM      5  C   UNL     1      -0.238  14.787  19.599  0.00  0.00    +0.000 A 
ATOM      6  S   UNL     1      -0.025  13.401  18.633  0.00  0.00    +0.000 S 
ATOM      7  C   UNL     1       0.340  12.493  20.108  0.00  0.00    +0.000 A 
ATOM      8  N   UNL     1       0.674  11.172  20.005  0.00  0.00    +0.000 N 
ATOM      9  C   UNL     1       0.822  10.367  21.230  0.00  0.00    +0.000 C 
ATOM     10  C   UNL     1       0.645   8.862  20.906  0.00  0.00    +0.000 C 
ATOM     11  N   UNL     1       1.487   8.422  19.779  0.00  0.00    +0.000 N 
ATOM     12  C   UNL     1       1.991   7.120  19.798  0.00  0.00    +0.000 C 
ATOM     13  O   UNL     1       1.732   6.332  20.706  0.00  0.00    +0.000 OA
ATOM     14  C   UNL     1       1.323   9.257  18.583  0.00  0.00    +0.000 C 
ATOM     15  C   UNL     1       1.576  10.736  18.917  0.00  0.00    +0.000 C 
ATOM     16  N   UNL     1       0.184  13.178  21.239  0.00  0.00    +0.000 NA
ATOM     17  C   UNL     1      -0.120  14.465  20.910  0.00  0.00    +0.000 A 
ENDROOT
BRANCH  12  18
ATOM     18  C   UNL     1       2.893   6.637  18.712  0.00  0.00    +0.000 A 
ATOM     19  C   UNL     1       3.628   7.574  17.982  0.00  0.00    +0.000 A 
ATOM     20  C   UNL     1       4.485   7.157  16.960  0.00  0.00    +0.000 A 
ATOM     21  C   UNL     1       4.635   5.794  16.653  0.00  0.00    +0.000 A 
ATOM     22  C   UNL     1       5.610   5.391  15.582  0.00  0.00    +0.000 C 
ATOM     23  C   UNL     1       3.869   4.846  17.359  0.00  0.00    +0.000 A 
ATOM     24  C   UNL     1       3.978   3.363  17.134  0.00  0.00    +0.000 C 
ATOM     25  C   UNL     1       2.972   5.288  18.350  0.00  0.00    +0.000 A 
ENDBRANCH  12  18
BRANCH   1  29
ATOM     26  C   UNL     1      -0.636  16.403  25.798  0.00  0.00    +0.000 A 
ATOM     27  C   UNL     1       0.262  17.112  25.006  0.00  0.00    +0.000 A 
ATOM     28  C   UNL     1       0.356  16.847  23.636  0.00  0.00    +0.000 A 
ATOM     29  C   UNL     1      -0.440  15.850  23.038  0.00  0.00    +0.000 A 
ATOM     30  C   UNL     1      -1.312  15.112  23.844  0.00  0.00    +0.000 A 
ATOM     31  C   UNL     1      -1.405  15.390  25.220  0.00  0.00    +0.000 A 
BRANCH  26  33
ATOM     32  C   UNL     1       0.615  17.088  27.687  0.00  0.00    +0.000 C 
ATOM     33  O   UNL     1      -0.647  16.754  27.121  0.00  0.00    +0.000 OA
ENDBRANCH  26  33
ENDBRANCH   1  29
TORSDOF 3
ENDMDL
MODEL 8
REMARK VINA RESULT:      -7.3      1.188      1.207
REMARK  Name = 
REMARK  7 active torsions:
REMARK  status: ('A' for Active; 'I' for Inactive)
REMARK    1  A    between atoms: C_1  and  O_2
REMARK    2  A    between atoms: O_2  and  C_3
REMARK    3  A    between atoms: C_6  and  N_7
REMARK    4  A    between atoms: C_9  and  C_10
REMARK    5  A    between atoms: C_18  and  C_20
REMARK    6  A    between atoms: C_23  and  C_24
REMARK    7  A    between atoms: C_25  and  C_26
REMARK                            x       y       z     vdW  Elec       q    Type
REMARK                         _______ _______ _______ _____ _____    ______ ____
ROOT
ATOM      1  N   UNL     1       3.807   4.889  18.757  0.00  0.00    +0.000 N 
ATOM      2  N   UNL     1       3.775   3.777  19.604  0.00  0.00    +0.000 NA
ATOM      3  C   UNL     1       2.846   4.166  20.491  0.00  0.00    +0.000 A 
ATOM      4  C   UNL     1       2.410   3.326  21.622  0.00  0.00    +0.000 C 
ATOM      5  C   UNL     1       2.309   5.455  20.269  0.00  0.00    +0.000 A 
ATOM      6  S   UNL     1       1.198   6.617  20.831  0.00  0.00    +0.000 S 
ATOM      7  C   UNL     1       1.796   7.717  19.580  0.00  0.00    +0.000 A 
ATOM      8  N   UNL     1       1.279   8.981  19.509  0.00  0.00    +0.000 N 
ATOM      9  C   UNL     1       1.650   9.849  18.379  0.00  0.00    +0.000 C 
ATOM     10  C   UNL     1       0.583  10.956  18.182  0.00  0.00    +0.000 C 
ATOM     11  N   UNL     1       0.276  11.674  19.431  0.00  0.00    +0.000 N 
ATOM     12  C   UNL     1      -0.052  13.030  19.352  0.00  0.00    +0.000 C 
ATOM     13  O   UNL     1      -0.117  13.625  18.277  0.00  0.00    +0.000 OA
ATOM     14  C   UNL     1      -0.074  10.775  20.537  0.00  0.00    +0.000 C 
ATOM     15  C   UNL     1       1.035   9.733  20.758  0.00  0.00    +0.000 C 
ATOM     16  N   UNL     1       2.678   7.180  18.739  0.00  0.00    +0.000 NA
ATOM     17  C   UNL     1       2.955   5.919  19.172  0.00  0.00    +0.000 A 
ENDROOT
BRANCH  12  18
ATOM     18  C   UNL     1      -0.320  13.822  20.588  0.00  0.00    +0.000 A 
ATOM     19  C   UNL     1       0.765  14.315  21.318  0.00  0.00    +0.000 A 
ATOM     20  C   UNL     1       0.552  15.063  22.479  0.00  0.00    +0.000 A 
ATOM     21  C   UNL     1      -0.749  15.346  22.928  0.00  0.00    +0.000 A 
ATOM     22  C   UNL     1      -0.928  16.202  24.151  0.00  0.00    +0.000 C 
ATOM     23  C   UNL     1      -1.847  14.821  22.218  0.00  0.00    +0.000 A 
ATOM     24  C   UNL     1      -3.278  15.090  22.593  0.00  0.00    +0.000 C 
ATOM     25  C   UNL     1      -1.612  14.025  21.081  0.00  0.00    +0.000 A 
ENDBRANCH  12  18
BRANCH   1  29
ATOM     26  C   UNL     1       6.172   4.648  15.233  0.00  0.00    +0.000 A 
ATOM     27  C   UNL     1       5.294   3.623  15.571  0.00  0.00    +0.000 A 
ATOM     28  C   UNL     1       4.530   3.706  16.740  0.00  0.00    +0.000 A 
ATOM     29  C   UNL     1       4.646   4.816  17.600  0.00  0.00    +0.000 A 
ATOM     30  C   UNL     1       5.558   5.825  17.277  0.00  0.00    +0.000 A 
ATOM     31  C   UNL     1       6.318   5.735  16.096  0.00  0.00    +0.000 A 
BRANCH  26  33
ATOM     32  C   UNL     1       7.726   5.523  13.676  0.00  0.00    +0.000 C 
ATOM     33  O   UNL     1       6.859   4.462  14.064  0.00  0.00    +0.000 OA
ENDBRANCH  26  33
ENDBRANCH   1  29
TORSDOF 3
ENDMDL
MODEL 9
REMARK VINA RESULT:      -7.2      3.298     11.640
REMARK  Name = 
REMARK  7 active torsions:
REMARK  status: ('A' for Active; 'I' for Inactive)
REMARK    1  A    between atoms: C_1  and  O_2
REMARK    2  A    between atoms: O_2  and  C_3
REMARK    3  A    between atoms: C_6  and  N_7
REMARK    4  A    between atoms: C_9  and  C_10
REMARK    5  A    between atoms: C_18  and  C_20
REMARK    6  A    between atoms: C_23  and  C_24
REMARK    7  A    between atoms: C_25  and  C_26
REMARK                            x       y       z     vdW  Elec       q    Type
REMARK                         _______ _______ _______ _____ _____    ______ ____
ROOT
ATOM      1  N   UNL     1      -0.200  15.426  21.470  0.00  0.00    +0.000 N 
ATOM      2  N   UNL     1      -0.359  16.519  20.615  0.00  0.00    +0.000 NA
ATOM      3  C   UNL     1      -0.270  15.917  19.419  0.00  0.00    +0.000 A 
ATOM      4  C   UNL     1      -0.390  16.640  18.140  0.00  0.00    +0.000 C 
ATOM      5  C   UNL     1      -0.045  14.521  19.467  0.00  0.00    +0.000 A 
ATOM      6  S   UNL     1       0.166  13.110  18.537  0.00  0.00    +0.000 S 
ATOM      7  C   UNL     1       0.466  12.226  20.040  0.00  0.00    +0.000 A 
ATOM      8  N   UNL     1       0.772  10.896  19.975  0.00  0.00    +0.000 N 
ATOM      9  C   UNL     1       0.866  10.115  21.220  0.00  0.00    +0.000 C 
ATOM     10  C   UNL     1       0.664   8.607  20.922  0.00  0.00    +0.000 C 
ATOM     11  N   UNL     1       1.529   8.125  19.830  0.00  0.00    +0.000 N 
ATOM     12  C   UNL     1       2.003   6.812  19.891  0.00  0.00    +0.000 C 
ATOM     13  O   UNL     1       1.698   6.049  20.807  0.00  0.00    +0.000 OA
ATOM     14  C   UNL     1       1.419   8.938  18.613  0.00  0.00    +0.000 C 
ATOM     15  C   UNL     1       1.696  10.417  18.924  0.00  0.00    +0.000 C 
ATOM     16  N   UNL     1       0.291  12.939  21.152  0.00  0.00    +0.000 NA
ATOM     17  C   UNL     1       0.027  14.224  20.788  0.00  0.00    +0.000 A 
ENDROOT
BRANCH  12  18
ATOM     18  C   UNL     1       2.925   6.286  18.843  0.00  0.00    +0.000 A 
ATOM     19  C   UNL     1       2.585   5.104  18.181  0.00  0.00    +0.000 A 
ATOM     20  C   UNL     1       3.425   4.583  17.192  0.00  0.00    +0.000 A 
ATOM     21  C   UNL     1       4.615   5.240  16.835  0.00  0.00    +0.000 A 
ATOM     22  C   UNL     1       5.457   4.671  15.727  0.00  0.00    +0.000 C 
ATOM     23  C   UNL     1       4.982   6.412  17.524  0.00  0.00    +0.000 A 
ATOM     24  C   UNL     1       6.215   7.210  17.198  0.00  0.00    +0.000 C 
ATOM     25  C   UNL     1       4.151   6.893  18.553  0.00  0.00    +0.000 A 
ENDBRANCH  12  18
BRANCH   1  29
ATOM     26  C   UNL     1      -0.599  16.275  25.616  0.00  0.00    +0.000 A 
ATOM     27  C   UNL     1       0.288  16.998  24.824  0.00  0.00    +0.000 A 
ATOM     28  C   UNL     1       0.421  16.702  23.464  0.00  0.00    +0.000 A 
ATOM     29  C   UNL     1      -0.324  15.661  22.876  0.00  0.00    +0.000 A 
ATOM     30  C   UNL     1      -1.185  14.911  23.683  0.00  0.00    +0.000 A 
ATOM     31  C   UNL     1      -1.317  15.220  25.050  0.00  0.00    +0.000 A 
BRANCH  26  33
ATOM     32  C   UNL     1       0.020  17.872  27.251  0.00  0.00    +0.000 C 
ATOM     33  O   UNL     1      -0.652  16.659  26.929  0.00  0.00    +0.000 OA
ENDBRANCH  26  33
ENDBRANCH   1  29
TORSDOF 3
ENDMDL
