MODEL 1
REMARK VINA RESULT:      -6.9      0.000      0.000
REMARK  Name = 
REMARK  9 active torsions:
REMARK  status: ('A' for Active; 'I' for Inactive)
REMARK    1  A    between atoms: N_1  and  C_2
REMARK    2  A    between atoms: C_2  and  C_3
REMARK    3  A    between atoms: C_3  and  C_4
REMARK    4  A    between atoms: C_4  and  C_5
REMARK    5  A    between atoms: C_5  and  N_6
REMARK    6  A    between atoms: N_6  and  C_7
REMARK    7  A    between atoms: N_6  and  C_22
REMARK    8  A    between atoms: C_7  and  C_8
REMARK    9  A    between atoms: C_14  and  C_16
REMARK                            x       y       z     vdW  Elec       q    Type
REMARK                         _______ _______ _______ _____ _____    ______ ____
ROOT
ATOM      1  N   UNL     1      -3.395  11.928  18.407  0.00  0.00    +0.000 NA
ENDROOT
BRANCH   1   2
ATOM      2  C   UNL     1      -4.840  12.346  18.538  0.00  0.00    +0.000 C 
ATOM      3  C   UNL     1      -5.879  11.413  17.867  0.00  0.00    +0.000 C 
ATOM      4  C   UNL     1      -6.306  10.244  18.744  0.00  0.00    +0.000 C 
ATOM      5  C   UNL     1      -6.880  10.697  20.078  0.00  0.00    +0.000 C 
ATOM      6  C   UNL     1      -6.315  11.981  20.616  0.00  0.00    +0.000 A 
ATOM      7  C   UNL     1      -6.887  12.486  21.798  0.00  0.00    +0.000 A 
ATOM      8  C   UNL     1      -6.538  13.747  22.253  0.00  0.00    +0.000 A 
ATOM      9  C   UNL     1      -5.600  14.453  21.524  0.00  0.00    +0.000 A 
ATOM     10  N   UNL     1      -4.995  13.987  20.404  0.00  0.00    +0.000 NA
ATOM     11  C   UNL     1      -5.350  12.752  19.944  0.00  0.00    +0.000 A 
ENDBRANCH   1   2
BRANCH   1  12
ATOM     12  C   UNL     1      -3.216  10.752  17.514  0.00  0.00    +0.000 C 
BRANCH  12  13
ATOM     13  C   UNL     1      -2.659  10.906  16.092  0.00  0.00    +0.000 C 
BRANCH  13  14
ATOM     14  C   UNL     1      -2.839   9.710  15.150  0.00  0.00    +0.000 C 
BRANCH  14  15
ATOM     15  C   UNL     1      -3.342  10.029  13.738  0.00  0.00    +0.000 C 
BRANCH  15  16
ATOM     16  N   UNL     1      -2.426   9.572  12.695  0.00  0.00    +0.000 NA
ATOM     17  H   UNL     1      -1.505   9.420  13.111  0.00  0.00    +0.000 HD
ATOM     18  H   UNL     1      -2.289  10.326  12.020  0.00  0.00    +0.000 HD
ENDBRANCH  15  16
ENDBRANCH  14  15
ENDBRANCH  13  14
ENDBRANCH  12  13
ENDBRANCH   1  12
BRANCH   1  19
ATOM     19  C   UNL     1      -2.724  11.629  19.710  0.00  0.00    +0.000 C 
BRANCH  19  20
ATOM     20  C   UNL     1      -1.305  12.267  19.941  0.00  0.00    +0.000 C 
ATOM     21  C   UNL     1      -1.429  13.815  20.034  0.00  0.00    +0.000 C 
ATOM     22  N   UNL     1      -2.017  14.308  21.287  0.00  0.00    +0.000 NA
ATOM     23  C   UNL     1      -1.233  13.783  22.410  0.00  0.00    +0.000 C 
ATOM     24  C   UNL     1      -1.061  12.248  22.409  0.00  0.00    +0.000 C 
ATOM     25  N   UNL     1      -0.589  11.686  21.119  0.00  0.00    +0.000 N 
ATOM     26  C   UNL     1       0.298  10.569  21.214  0.00  0.00    +0.000 C 
ATOM     27  O   UNL     1       0.650  10.209  22.348  0.00  0.00    +0.000 OA
ATOM     28  H   UNL     1      -2.982  13.980  21.348  0.00  0.00    +0.000 HD
BRANCH  26  29
ATOM     29  C   UNL     1       0.906   9.726  20.091  0.00  0.00    +0.000 A 
ATOM     30  C   UNL     1       0.993  10.034  18.735  0.00  0.00    +0.000 A 
ATOM     31  C   UNL     1       1.575   9.147  17.800  0.00  0.00    +0.000 A 
ATOM     32  C   UNL     1       2.105   7.924  18.196  0.00  0.00    +0.000 A 
ATOM     33  C   UNL     1       2.066   7.589  19.539  0.00  0.00    +0.000 A 
ATOM     34  C   UNL     1       1.482   8.472  20.466  0.00  0.00    +0.000 A 
ENDBRANCH  26  29
ENDBRANCH  19  20
ENDBRANCH   1  19
TORSDOF 9
ENDMDL
MODEL 2
REMARK VINA RESULT:      -6.8      3.211      7.901
REMARK  Name = 
REMARK  9 active torsions:
REMARK  status: ('A' for Active; 'I' for Inactive)
REMARK    1  A    between atoms: N_1  and  C_2
REMARK    2  A    between atoms: C_2  and  C_3
REMARK    3  A    between atoms: C_3  and  C_4
REMARK    4  A    between atoms: C_4  and  C_5
REMARK    5  A    between atoms: C_5  and  N_6
REMARK    6  A    between atoms: N_6  and  C_7
REMARK    7  A    between atoms: N_6  and  C_22
REMARK    8  A    between atoms: C_7  and  C_8
REMARK    9  A    between atoms: C_14  and  C_16
REMARK                            x       y       z     vdW  Elec       q    Type
REMARK                         _______ _______ _______ _____ _____    ______ ____
ROOT
ATOM      1  N   UNL     1       1.475   8.454  19.143  0.00  0.00    +0.000 NA
ENDROOT
BRANCH   1   2
ATOM      2  C   UNL     1       2.445   7.366  19.537  0.00  0.00    +0.000 C 
ATOM      3  C   UNL     1       2.011   6.466  20.720  0.00  0.00    +0.000 C 
ATOM      4  C   UNL     1       1.124   5.299  20.305  0.00  0.00    +0.000 C 
ATOM      5  C   UNL     1       1.782   4.411  19.261  0.00  0.00    +0.000 C 
ATOM      6  C   UNL     1       2.729   5.112  18.328  0.00  0.00    +0.000 A 
ATOM      7  C   UNL     1       3.431   4.311  17.410  0.00  0.00    +0.000 A 
ATOM      8  C   UNL     1       4.445   4.861  16.643  0.00  0.00    +0.000 A 
ATOM      9  C   UNL     1       4.702   6.210  16.798  0.00  0.00    +0.000 A 
ATOM     10  N   UNL     1       4.022   7.026  17.640  0.00  0.00    +0.000 NA
ATOM     11  C   UNL     1       3.035   6.481  18.409  0.00  0.00    +0.000 A 
ENDBRANCH   1   2
BRANCH   1  12
ATOM     12  C   UNL     1       1.982   9.298  18.028  0.00  0.00    +0.000 C 
BRANCH  12  13
ATOM     13  C   UNL     1       1.556  10.765  17.880  0.00  0.00    +0.000 C 
BRANCH  13  14
ATOM     14  C   UNL     1       2.675  11.814  17.925  0.00  0.00    +0.000 C 
BRANCH  14  15
ATOM     15  C   UNL     1       2.282  13.200  18.447  0.00  0.00    +0.000 C 
BRANCH  15  16
ATOM     16  N   UNL     1       0.835  13.377  18.548  0.00  0.00    +0.000 NA
ATOM     17  H   UNL     1       0.403  12.463  18.698  0.00  0.00    +0.000 HD
ATOM     18  H   UNL     1       0.476  13.692  17.646  0.00  0.00    +0.000 HD
ENDBRANCH  15  16
ENDBRANCH  14  15
ENDBRANCH  13  14
ENDBRANCH  12  13
ENDBRANCH   1  12
BRANCH   1  19
ATOM     19  C   UNL     1       1.078   9.358  20.267  0.00  0.00    +0.000 C 
BRANCH  19  20
ATOM     20  C   UNL     1      -0.433   9.332  20.699  0.00  0.00    +0.000 C 
ATOM     21  C   UNL     1      -0.583   8.607  22.067  0.00  0.00    +0.000 C 
ATOM     22  N   UNL     1      -0.113   9.382  23.224  0.00  0.00    +0.000 NA
ATOM     23  C   UNL     1      -0.815  10.670  23.241  0.00  0.00    +0.000 C 
ATOM     24  C   UNL     1      -0.718  11.471  21.924  0.00  0.00    +0.000 C 
ATOM     25  N   UNL     1      -1.061  10.691  20.708  0.00  0.00    +0.000 N 
ATOM     26  C   UNL     1      -1.741  11.411  19.678  0.00  0.00    +0.000 C 
ATOM     27  O   UNL     1      -2.047  12.592  19.907  0.00  0.00    +0.000 OA
ATOM     28  H   UNL     1       0.893   9.531  23.134  0.00  0.00    +0.000 HD
BRANCH  26  29
ATOM     29  C   UNL     1      -2.172  10.930  18.291  0.00  0.00    +0.000 A 
ATOM     30  C   UNL     1      -1.570   9.961  17.492  0.00  0.00    +0.000 A 
ATOM     31  C   UNL     1      -2.073   9.623  16.214  0.00  0.00    +0.000 A 
ATOM     32  C   UNL     1      -3.210  10.236  15.699  0.00  0.00    +0.000 A 
ATOM     33  C   UNL     1      -3.857  11.186  16.471  0.00  0.00    +0.000 A 
ATOM     34  C   UNL     1      -3.351  11.522  17.740  0.00  0.00    +0.000 A 
ENDBRANCH  26  29
ENDBRANCH  19  20
ENDBRANCH   1  19
TORSDOF 9
ENDMDL
MODEL 3
REMARK VINA RESULT:      -6.7      2.805      6.755
REMARK  Name = 
REMARK  9 active torsions:
REMARK  status: ('A' for Active; 'I' for Inactive)
REMARK    1  A    between atoms: N_1  and  C_2
REMARK    2  A    between atoms: C_2  and  C_3
REMARK    3  A    between atoms: C_3  and  C_4
REMARK    4  A    between atoms: C_4  and  C_5
REMARK    5  A    between atoms: C_5  and  N_6
REMARK    6  A    between atoms: N_6  and  C_7
REMARK    7  A    between atoms: N_6  and  C_22
REMARK    8  A    between atoms: C_7  and  C_8
REMARK    9  A    between atoms: C_14  and  C_16
REMARK                            x       y       z     vdW  Elec       q    Type
REMARK                         _______ _______ _______ _____ _____    ______ ____
ROOT
ATOM      1  N   UNL     1      -0.483  11.261  19.462  0.00  0.00    +0.000 NA
ENDROOT
BRANCH   1   2
ATOM      2  C   UNL     1       0.812  10.694  19.993  0.00  0.00    +0.000 C 
ATOM      3  C   UNL     1       0.897  10.519  21.529  0.00  0.00    +0.000 C 
ATOM      4  C   UNL     1       0.307   9.206  22.027  0.00  0.00    +0.000 C 
ATOM      5  C   UNL     1       0.961   7.993  21.383  0.00  0.00    +0.000 C 
ATOM      6  C   UNL     1       1.464   8.204  19.983  0.00  0.00    +0.000 A 
ATOM      7  C   UNL     1       2.162   7.138  19.387  0.00  0.00    +0.000 A 
ATOM      8  C   UNL     1       2.803   7.322  18.173  0.00  0.00    +0.000 A 
ATOM      9  C   UNL     1       2.698   8.564  17.576  0.00  0.00    +0.000 A 
ATOM     10  N   UNL     1       2.002   9.605  18.096  0.00  0.00    +0.000 NA
ATOM     11  C   UNL     1       1.384   9.431  19.301  0.00  0.00    +0.000 A 
ENDBRANCH   1   2
BRANCH   1  12
ATOM     12  C   UNL     1      -1.126  10.376  18.455  0.00  0.00    +0.000 C 
BRANCH  12  13
ATOM     13  C   UNL     1      -1.999  10.948  17.329  0.00  0.00    +0.000 C 
BRANCH  13  14
ATOM     14  C   UNL     1      -2.538   9.947  16.300  0.00  0.00    +0.000 C 
BRANCH  14  15
ATOM     15  C   UNL     1      -3.393  10.531  15.171  0.00  0.00    +0.000 C 
BRANCH  15  16
ATOM     16  N   UNL     1      -2.861  10.228  13.844  0.00  0.00    +0.000 NA
ATOM     17  H   UNL     1      -3.576  10.442  13.147  0.00  0.00    +0.000 HD
ATOM     18  H   UNL     1      -2.713   9.221  13.768  0.00  0.00    +0.000 HD
ENDBRANCH  15  16
ENDBRANCH  14  15
ENDBRANCH  13  14
ENDBRANCH  12  13
ENDBRANCH   1  12
BRANCH   1  19
ATOM     19  C   UNL     1      -0.355  12.627  18.867  0.00  0.00    +0.000 C 
BRANCH  19  20
ATOM     20  C   UNL     1      -1.094  13.798  19.613  0.00  0.00    +0.000 C 
ATOM     21  C   UNL     1      -2.335  13.246  20.371  0.00  0.00    +0.000 C 
ATOM     22  N   UNL     1      -2.019  12.476  21.583  0.00  0.00    +0.000 NA
ATOM     23  C   UNL     1      -1.201  13.312  22.467  0.00  0.00    +0.000 C 
ATOM     24  C   UNL     1       0.063  13.903  21.805  0.00  0.00    +0.000 C 
ATOM     25  N   UNL     1      -0.187  14.582  20.509  0.00  0.00    +0.000 N 
ATOM     26  C   UNL     1       0.613  15.737  20.247  0.00  0.00    +0.000 C 
ATOM     27  O   UNL     1       1.390  16.113  21.138  0.00  0.00    +0.000 OA
ATOM     28  H   UNL     1      -1.502  11.638  21.314  0.00  0.00    +0.000 HD
BRANCH  26  29
ATOM     29  C   UNL     1       0.654  16.616  18.995  0.00  0.00    +0.000 A 
ATOM     30  C   UNL     1       1.755  16.932  18.203  0.00  0.00    +0.000 A 
ATOM     31  C   UNL     1       1.648  17.775  17.072  0.00  0.00    +0.000 A 
ATOM     32  C   UNL     1       0.427  18.318  16.687  0.00  0.00    +0.000 A 
ATOM     33  C   UNL     1      -0.700  18.006  17.430  0.00  0.00    +0.000 A 
ATOM     34  C   UNL     1      -0.588  17.171  18.556  0.00  0.00    +0.000 A 
ENDBRANCH  26  29
ENDBRANCH  19  20
ENDBRANCH   1  19
TORSDOF 9
ENDMDL
MODEL 4
REMARK VINA RESULT:      -6.6      3.089      6.698
REMARK  Name = 
REMARK  9 active torsions:
REMARK  status: ('A' for Active; 'I' for Inactive)
REMARK    1  A    between atoms: N_1  and  C_2
REMARK    2  A    between atoms: C_2  and  C_3
REMARK    3  A    between atoms: C_3  and  C_4
REMARK    4  A    between atoms: C_4  and  C_5
REMARK    5  A    between atoms: C_5  and  N_6
REMARK    6  A    between atoms: N_6  and  C_7
REMARK    7  A    between atoms: N_6  and  C_22
REMARK    8  A    between atoms: C_7  and  C_8
REMARK    9  A    between atoms: C_14  and  C_16
REMARK                            x       y       z     vdW  Elec       q    Type
REMARK                         _______ _______ _______ _____ _____    ______ ____
ROOT
ATOM      1  N   UNL     1      -0.652  14.227  20.207  0.00  0.00    +0.000 NA
ENDROOT
BRANCH   1   2
ATOM      2  C   UNL     1      -0.004  15.585  20.335  0.00  0.00    +0.000 C 
ATOM      3  C   UNL     1       1.329  15.630  21.120  0.00  0.00    +0.000 C 
ATOM      4  C   UNL     1       2.550  15.307  20.269  0.00  0.00    +0.000 C 
ATOM      5  C   UNL     1       2.684  16.234  19.071  0.00  0.00    +0.000 C 
ATOM      6  C   UNL     1       1.389  16.749  18.510  0.00  0.00    +0.000 A 
ATOM      7  C   UNL     1       1.473  17.684  17.463  0.00  0.00    +0.000 A 
ATOM      8  C   UNL     1       0.331  18.330  17.018  0.00  0.00    +0.000 A 
ATOM      9  C   UNL     1      -0.868  17.995  17.617  0.00  0.00    +0.000 A 
ATOM     10  N   UNL     1      -0.998  17.069  18.600  0.00  0.00    +0.000 NA
ATOM     11  C   UNL     1       0.128  16.445  19.051  0.00  0.00    +0.000 A 
ENDBRANCH   1   2
BRANCH   1  12
ATOM     12  C   UNL     1      -0.448  13.618  18.866  0.00  0.00    +0.000 C 
BRANCH  12  13
ATOM     13  C   UNL     1       0.625  12.546  18.630  0.00  0.00    +0.000 C 
BRANCH  13  14
ATOM     14  C   UNL     1       1.214  11.877  19.878  0.00  0.00    +0.000 C 
BRANCH  14  15
ATOM     15  C   UNL     1       0.362  10.779  20.524  0.00  0.00    +0.000 C 
BRANCH  15  16
ATOM     16  N   UNL     1       0.546  10.699  21.972  0.00  0.00    +0.000 NA
ATOM     17  H   UNL     1       1.368  11.249  22.228  0.00  0.00    +0.000 HD
ATOM     18  H   UNL     1       0.783   9.739  22.223  0.00  0.00    +0.000 HD
ENDBRANCH  15  16
ENDBRANCH  14  15
ENDBRANCH  13  14
ENDBRANCH  12  13
ENDBRANCH   1  12
BRANCH   1  19
ATOM     19  C   UNL     1      -2.118  14.217  20.505  0.00  0.00    +0.000 C 
BRANCH  19  20
ATOM     20  C   UNL     1      -2.753  12.833  20.897  0.00  0.00    +0.000 C 
ATOM     21  C   UNL     1      -2.685  12.636  22.439  0.00  0.00    +0.000 C 
ATOM     22  N   UNL     1      -3.635  13.455  23.204  0.00  0.00    +0.000 NA
ATOM     23  C   UNL     1      -4.988  13.188  22.707  0.00  0.00    +0.000 C 
ATOM     24  C   UNL     1      -5.159  13.365  21.182  0.00  0.00    +0.000 C 
ATOM     25  N   UNL     1      -4.141  12.657  20.367  0.00  0.00    +0.000 N 
ATOM     26  C   UNL     1      -4.605  12.110  19.130  0.00  0.00    +0.000 C 
ATOM     27  O   UNL     1      -5.816  12.209  18.875  0.00  0.00    +0.000 OA
ATOM     28  H   UNL     1      -3.400  14.440  23.071  0.00  0.00    +0.000 HD
BRANCH  26  29
ATOM     29  C   UNL     1      -3.811  11.389  18.039  0.00  0.00    +0.000 A 
ATOM     30  C   UNL     1      -2.621  10.677  18.171  0.00  0.00    +0.000 A 
ATOM     31  C   UNL     1      -1.985  10.067  17.065  0.00  0.00    +0.000 A 
ATOM     32  C   UNL     1      -2.530  10.137  15.788  0.00  0.00    +0.000 A 
ATOM     33  C   UNL     1      -3.728  10.811  15.615  0.00  0.00    +0.000 A 
ATOM     34  C   UNL     1      -4.355  11.420  16.718  0.00  0.00    +0.000 A 
ENDBRANCH  26  29
ENDBRANCH  19  20
ENDBRANCH   1  19
TORSDOF 9
ENDMDL
MODEL 5
REMARK VINA RESULT:      -6.5      2.925      6.935
REMARK  Name = 
REMARK  9 active torsions:
REMARK  status: ('A' for Active; 'I' for Inactive)
REMARK    1  A    between atoms: N_1  and  C_2
REMARK    2  A    between atoms: C_2  and  C_3
REMARK    3  A    between atoms: C_3  and  C_4
REMARK    4  A    between atoms: C_4  and  C_5
REMARK    5  A    between atoms: C_5  and  N_6
REMARK    6  A    between atoms: N_6  and  C_7
REMARK    7  A    between atoms: N_6  and  C_22
REMARK    8  A    between atoms: C_7  and  C_8
REMARK    9  A    between atoms: C_14  and  C_16
REMARK                            x       y       z     vdW  Elec       q    Type
REMARK                         _______ _______ _______ _____ _____    ______ ____
ROOT
ATOM      1  N   UNL     1      -0.322  11.305  19.222  0.00  0.00    +0.000 NA
ENDROOT
BRANCH   1   2
ATOM      2  C   UNL     1       0.930  10.714  19.824  0.00  0.00    +0.000 C 
ATOM      3  C   UNL     1       0.965  10.629  21.370  0.00  0.00    +0.000 C 
ATOM      4  C   UNL     1       0.302   9.377  21.928  0.00  0.00    +0.000 C 
ATOM      5  C   UNL     1       0.916   8.099  21.377  0.00  0.00    +0.000 C 
ATOM      6  C   UNL     1       1.466   8.201  19.982  0.00  0.00    +0.000 A 
ATOM      7  C   UNL     1       2.129   7.070  19.472  0.00  0.00    +0.000 A 
ATOM      8  C   UNL     1       2.810   7.151  18.269  0.00  0.00    +0.000 A 
ATOM      9  C   UNL     1       2.780   8.357  17.596  0.00  0.00    +0.000 A 
ATOM     10  N   UNL     1       2.119   9.458  18.032  0.00  0.00    +0.000 NA
ATOM     11  C   UNL     1       1.461   9.386  19.226  0.00  0.00    +0.000 A 
ENDBRANCH   1   2
BRANCH   1  12
ATOM     12  C   UNL     1      -0.861  10.487  18.102  0.00  0.00    +0.000 C 
BRANCH  12  13
ATOM     13  C   UNL     1      -2.286   9.918  18.142  0.00  0.00    +0.000 C 
BRANCH  13  14
ATOM     14  C   UNL     1      -3.304  10.545  17.181  0.00  0.00    +0.000 C 
BRANCH  14  15
ATOM     15  C   UNL     1      -4.642  10.971  17.796  0.00  0.00    +0.000 C 
BRANCH  15  16
ATOM     16  N   UNL     1      -5.497  11.684  16.849  0.00  0.00    +0.000 NA
ATOM     17  H   UNL     1      -6.473  11.500  17.086  0.00  0.00    +0.000 HD
ATOM     18  H   UNL     1      -5.371  11.280  15.920  0.00  0.00    +0.000 HD
ENDBRANCH  15  16
ENDBRANCH  14  15
ENDBRANCH  13  14
ENDBRANCH  12  13
ENDBRANCH   1  12
BRANCH   1  19
ATOM     19  C   UNL     1      -0.164  12.711  18.737  0.00  0.00    +0.000 C 
BRANCH  19  20
ATOM     20  C   UNL     1      -1.052  13.806  19.435  0.00  0.00    +0.000 C 
ATOM     21  C   UNL     1      -2.263  13.135  20.145  0.00  0.00    +0.000 C 
ATOM     22  N   UNL     1      -1.925  12.412  21.379  0.00  0.00    +0.000 NA
ATOM     23  C   UNL     1      -1.238  13.335  22.288  0.00  0.00    +0.000 C 
ATOM     24  C   UNL     1      -0.013  14.048  21.674  0.00  0.00    +0.000 C 
ATOM     25  N   UNL     1      -0.273  14.687  20.360  0.00  0.00    +0.000 N 
ATOM     26  C   UNL     1       0.416  15.915  20.119  0.00  0.00    +0.000 C 
ATOM     27  O   UNL     1       1.110  16.377  21.038  0.00  0.00    +0.000 OA
ATOM     28  H   UNL     1      -1.313  11.629  21.144  0.00  0.00    +0.000 HD
BRANCH  26  29
ATOM     29  C   UNL     1       0.423  16.783  18.858  0.00  0.00    +0.000 A 
ATOM     30  C   UNL     1      -0.653  17.432  18.256  0.00  0.00    +0.000 A 
ATOM     31  C   UNL     1      -0.502  18.197  17.076  0.00  0.00    +0.000 A 
ATOM     32  C   UNL     1       0.738  18.350  16.466  0.00  0.00    +0.000 A 
ATOM     33  C   UNL     1       1.840  17.745  17.047  0.00  0.00    +0.000 A 
ATOM     34  C   UNL     1       1.686  16.982  18.218  0.00  0.00    +0.000 A 
ENDBRANCH  26  29
ENDBRANCH  19  20
ENDBRANCH   1  19
TORSDOF 9
ENDMDL
MODEL 6
REMARK VINA RESULT:      -6.5      2.608      6.953
REMARK  Name = 
REMARK  9 active torsions:
REMARK  status: ('A' for Active; 'I' for Inactive)
REMARK    1  A    between atoms: N_1  and  C_2
REMARK    2  A    between atoms: C_2  and  C_3
REMARK    3  A    between atoms: C_3  and  C_4
REMARK    4  A    between atoms: C_4  and  C_5
REMARK    5  A    between atoms: C_5  and  N_6
REMARK    6  A    between atoms: N_6  and  C_7
REMARK    7  A    between atoms: N_6  and  C_22
REMARK    8  A    between atoms: C_7  and  C_8
REMARK    9  A    between atoms: C_14  and  C_16
REMARK                            x       y       z     vdW  Elec       q    Type
REMARK                         _______ _______ _______ _____ _____    ______ ____
ROOT
ATOM      1  N   UNL     1      -1.621  13.344  21.129  0.00  0.00    +0.000 NA
ENDROOT
BRANCH   1   2
ATOM      2  C   UNL     1      -1.026  13.201  19.748  0.00  0.00    +0.000 C 
ATOM      3  C   UNL     1       0.495  13.470  19.634  0.00  0.00    +0.000 C 
ATOM      4  C   UNL     1       1.356  12.255  19.955  0.00  0.00    +0.000 C 
ATOM      5  C   UNL     1       1.026  11.060  19.072  0.00  0.00    +0.000 C 
ATOM      6  C   UNL     1      -0.403  10.974  18.618  0.00  0.00    +0.000 A 
ATOM      7  C   UNL     1      -0.728   9.939  17.722  0.00  0.00    +0.000 A 
ATOM      8  C   UNL     1      -1.978   9.904  17.127  0.00  0.00    +0.000 A 
ATOM      9  C   UNL     1      -2.878  10.893  17.473  0.00  0.00    +0.000 A 
ATOM     10  N   UNL     1      -2.620  11.883  18.363  0.00  0.00    +0.000 NA
ATOM     11  C   UNL     1      -1.383  11.930  18.937  0.00  0.00    +0.000 A 
ENDBRANCH   1   2
BRANCH   1  12
ATOM     12  C   UNL     1      -1.819  12.035  21.806  0.00  0.00    +0.000 C 
BRANCH  12  13
ATOM     13  C   UNL     1      -0.750  11.449  22.739  0.00  0.00    +0.000 C 
BRANCH  13  14
ATOM     14  C   UNL     1      -0.737   9.924  22.897  0.00  0.00    +0.000 C 
BRANCH  14  15
ATOM     15  C   UNL     1       0.319   9.168  22.083  0.00  0.00    +0.000 C 
BRANCH  15  16
ATOM     16  N   UNL     1       1.667   9.320  22.627  0.00  0.00    +0.000 NA
ATOM     17  H   UNL     1       1.644  10.028  23.364  0.00  0.00    +0.000 HD
ATOM     18  H   UNL     1       2.273   9.711  21.905  0.00  0.00    +0.000 HD
ENDBRANCH  15  16
ENDBRANCH  14  15
ENDBRANCH  13  14
ENDBRANCH  12  13
ENDBRANCH   1  12
BRANCH   1  19
ATOM     19  C   UNL     1      -2.919  14.086  21.161  0.00  0.00    +0.000 C 
BRANCH  19  20
ATOM     20  C   UNL     1      -3.987  13.601  22.209  0.00  0.00    +0.000 C 
ATOM     21  C   UNL     1      -3.478  13.878  23.653  0.00  0.00    +0.000 C 
ATOM     22  N   UNL     1      -3.511  15.291  24.054  0.00  0.00    +0.000 NA
ATOM     23  C   UNL     1      -4.878  15.794  23.881  0.00  0.00    +0.000 C 
ATOM     24  C   UNL     1      -5.471  15.572  22.472  0.00  0.00    +0.000 C 
ATOM     25  N   UNL     1      -5.346  14.181  21.969  0.00  0.00    +0.000 N 
ATOM     26  C   UNL     1      -6.436  13.706  21.177  0.00  0.00    +0.000 C 
ATOM     27  O   UNL     1      -7.415  14.456  21.035  0.00  0.00    +0.000 OA
ATOM     28  H   UNL     1      -2.866  15.816  23.461  0.00  0.00    +0.000 HD
BRANCH  26  29
ATOM     29  C   UNL     1      -6.591  12.363  20.461  0.00  0.00    +0.000 A 
ATOM     30  C   UNL     1      -6.046  11.973  19.240  0.00  0.00    +0.000 A 
ATOM     31  C   UNL     1      -6.285  10.693  18.686  0.00  0.00    +0.000 A 
ATOM     32  C   UNL     1      -7.069   9.754  19.346  0.00  0.00    +0.000 A 
ATOM     33  C   UNL     1      -7.608  10.089  20.577  0.00  0.00    +0.000 A 
ATOM     34  C   UNL     1      -7.371  11.364  21.123  0.00  0.00    +0.000 A 
ENDBRANCH  26  29
ENDBRANCH  19  20
ENDBRANCH   1  19
TORSDOF 9
ENDMDL
MODEL 7
REMARK VINA RESULT:      -6.4      2.550      5.682
REMARK  Name = 
REMARK  9 active torsions:
REMARK  status: ('A' for Active; 'I' for Inactive)
REMARK    1  A    between atoms: N_1  and  C_2
REMARK    2  A    between atoms: C_2  and  C_3
REMARK    3  A    between atoms: C_3  and  C_4
REMARK    4  A    between atoms: C_4  and  C_5
REMARK    5  A    between atoms: C_5  and  N_6
REMARK    6  A    between atoms: N_6  and  C_7
REMARK    7  A    between atoms: N_6  and  C_22
REMARK    8  A    between atoms: C_7  and  C_8
REMARK    9  A    between atoms: C_14  and  C_16
REMARK                            x       y       z     vdW  Elec       q    Type
REMARK                         _______ _______ _______ _____ _____    ______ ____
ROOT
ATOM      1  N   UNL     1      -1.267  12.090  22.260  0.00  0.00    +0.000 NA
ENDROOT
BRANCH   1   2
ATOM      2  C   UNL     1      -1.853  13.058  23.259  0.00  0.00    +0.000 C 
ATOM      3  C   UNL     1      -1.293  14.501  23.214  0.00  0.00    +0.000 C 
ATOM      4  C   UNL     1      -1.982  15.393  22.190  0.00  0.00    +0.000 C 
ATOM      5  C   UNL     1      -3.484  15.483  22.415  0.00  0.00    +0.000 C 
ATOM      6  C   UNL     1      -4.116  14.260  23.018  0.00  0.00    +0.000 A 
ATOM      7  C   UNL     1      -5.485  14.338  23.331  0.00  0.00    +0.000 A 
ATOM      8  C   UNL     1      -6.091  13.317  24.047  0.00  0.00    +0.000 A 
ATOM      9  C   UNL     1      -5.311  12.233  24.399  0.00  0.00    +0.000 A 
ATOM     10  N   UNL     1      -3.999  12.100  24.080  0.00  0.00    +0.000 NA
ATOM     11  C   UNL     1      -3.396  13.112  23.391  0.00  0.00    +0.000 A 
ENDBRANCH   1   2
BRANCH   1  12
ATOM     12  C   UNL     1      -1.014  10.746  22.844  0.00  0.00    +0.000 C 
BRANCH  12  13
ATOM     13  C   UNL     1       0.265   9.961  22.520  0.00  0.00    +0.000 C 
BRANCH  13  14
ATOM     14  C   UNL     1       0.098   8.696  21.670  0.00  0.00    +0.000 C 
BRANCH  14  15
ATOM     15  C   UNL     1       1.298   8.300  20.802  0.00  0.00    +0.000 C 
BRANCH  15  16
ATOM     16  N   UNL     1       1.611   6.875  20.888  0.00  0.00    +0.000 NA
ATOM     17  H   UNL     1       2.493   6.703  20.402  0.00  0.00    +0.000 HD
ATOM     18  H   UNL     1       0.913   6.350  20.359  0.00  0.00    +0.000 HD
ENDBRANCH  15  16
ENDBRANCH  14  15
ENDBRANCH  13  14
ENDBRANCH  12  13
ENDBRANCH   1  12
BRANCH   1  19
ATOM     19  C   UNL     1      -0.001  12.563  21.618  0.00  0.00    +0.000 C 
BRANCH  19  20
ATOM     20  C   UNL     1      -0.106  13.079  20.137  0.00  0.00    +0.000 C 
ATOM     21  C   UNL     1       1.074  14.044  19.825  0.00  0.00    +0.000 C 
ATOM     22  N   UNL     1       2.376  13.384  19.658  0.00  0.00    +0.000 NA
ATOM     23  C   UNL     1       2.252  12.363  18.612  0.00  0.00    +0.000 C 
ATOM     24  C   UNL     1       1.108  11.350  18.837  0.00  0.00    +0.000 C 
ATOM     25  N   UNL     1      -0.207  11.970  19.137  0.00  0.00    +0.000 N 
ATOM     26  C   UNL     1      -1.349  11.297  18.602  0.00  0.00    +0.000 C 
ATOM     27  O   UNL     1      -1.148  10.306  17.884  0.00  0.00    +0.000 OA
ATOM     28  H   UNL     1       2.640  12.950  20.543  0.00  0.00    +0.000 HD
BRANCH  26  29
ATOM     29  C   UNL     1      -2.832  11.630  18.779  0.00  0.00    +0.000 A 
ATOM     30  C   UNL     1      -3.427  12.399  19.776  0.00  0.00    +0.000 A 
ATOM     31  C   UNL     1      -4.824  12.615  19.825  0.00  0.00    +0.000 A 
ATOM     32  C   UNL     1      -5.673  12.076  18.864  0.00  0.00    +0.000 A 
ATOM     33  C   UNL     1      -5.121  11.327  17.839  0.00  0.00    +0.000 A 
ATOM     34  C   UNL     1      -3.731  11.112  17.796  0.00  0.00    +0.000 A 
ENDBRANCH  26  29
ENDBRANCH  19  20
ENDBRANCH   1  19
TORSDOF 9
ENDMDL
MODEL 8
REMARK VINA RESULT:      -6.4      2.458      6.463
REMARK  Name = 
REMARK  9 active torsions:
REMARK  status: ('A' for Active; 'I' for Inactive)
REMARK    1  A    between atoms: N_1  and  C_2
REMARK    2  A    between atoms: C_2  and  C_3
REMARK    3  A    between atoms: C_3  and  C_4
REMARK    4  A    between atoms: C_4  and  C_5
REMARK    5  A    between atoms: C_5  and  N_6
REMARK    6  A    between atoms: N_6  and  C_7
REMARK    7  A    between atoms: N_6  and  C_22
REMARK    8  A    between atoms: C_7  and  C_8
REMARK    9  A    between atoms: C_14  and  C_16
REMARK                            x       y       z     vdW  Elec       q    Type
REMARK                         _______ _______ _______ _____ _____    ______ ____
ROOT
ATOM      1  N   UNL     1      -1.514  11.969  20.463  0.00  0.00    +0.000 NA
ENDROOT
BRANCH   1   2
ATOM      2  C   UNL     1      -0.023  11.765  20.593  0.00  0.00    +0.000 C 
ATOM      3  C   UNL     1       0.460  10.295  20.632  0.00  0.00    +0.000 C 
ATOM      4  C   UNL     1       0.660   9.681  19.253  0.00  0.00    +0.000 C 
ATOM      5  C   UNL     1       1.642  10.471  18.402  0.00  0.00    +0.000 C 
ATOM      6  C   UNL     1       1.679  11.949  18.671  0.00  0.00    +0.000 A 
ATOM      7  C   UNL     1       2.641  12.702  17.974  0.00  0.00    +0.000 A 
ATOM      8  C   UNL     1       2.850  14.032  18.299  0.00  0.00    +0.000 A 
ATOM      9  C   UNL     1       2.062  14.577  19.295  0.00  0.00    +0.000 A 
ATOM     10  N   UNL     1       1.096  13.898  19.962  0.00  0.00    +0.000 NA
ATOM     11  C   UNL     1       0.901  12.583  19.655  0.00  0.00    +0.000 A 
ENDBRANCH   1   2
BRANCH   1  12
ATOM     12  C   UNL     1      -1.961  12.044  19.047  0.00  0.00    +0.000 C 
BRANCH  12  13
ATOM     13  C   UNL     1      -2.783  10.916  18.408  0.00  0.00    +0.000 C 
BRANCH  13  14
ATOM     14  C   UNL     1      -2.247  10.333  17.095  0.00  0.00    +0.000 C 
BRANCH  14  15
ATOM     15  C   UNL     1      -2.747  10.996  15.806  0.00  0.00    +0.000 C 
BRANCH  15  16
ATOM     16  N   UNL     1      -2.970  10.035  14.727  0.00  0.00    +0.000 NA
ATOM     17  H   UNL     1      -2.899  10.525  13.833  0.00  0.00    +0.000 HD
ATOM     18  H   UNL     1      -3.935   9.706  14.771  0.00  0.00    +0.000 HD
ENDBRANCH  15  16
ENDBRANCH  14  15
ENDBRANCH  13  14
ENDBRANCH  12  13
ENDBRANCH   1  12
BRANCH   1  19
ATOM     19  C   UNL     1      -2.032  13.176  21.179  0.00  0.00    +0.000 C 
BRANCH  19  20
ATOM     20  C   UNL     1      -3.321  12.981  22.058  0.00  0.00    +0.000 C 
ATOM     21  C   UNL     1      -2.934  12.916  23.563  0.00  0.00    +0.000 C 
ATOM     22  N   UNL     1      -2.549  14.207  24.152  0.00  0.00    +0.000 NA
ATOM     23  C   UNL     1      -3.641  15.162  23.939  0.00  0.00    +0.000 C 
ATOM     24  C   UNL     1      -4.094  15.302  22.468  0.00  0.00    +0.000 C 
ATOM     25  N   UNL     1      -4.372  14.012  21.789  0.00  0.00    +0.000 N 
ATOM     26  C   UNL     1      -5.451  14.023  20.852  0.00  0.00    +0.000 C 
ATOM     27  O   UNL     1      -6.102  15.073  20.735  0.00  0.00    +0.000 OA
ATOM     28  H   UNL     1      -1.699  14.537  23.692  0.00  0.00    +0.000 HD
BRANCH  26  29
ATOM     29  C   UNL     1      -5.949  12.895  19.946  0.00  0.00    +0.000 A 
ATOM     30  C   UNL     1      -5.926  12.837  18.554  0.00  0.00    +0.000 A 
ATOM     31  C   UNL     1      -6.437  11.728  17.840  0.00  0.00    +0.000 A 
ATOM     32  C   UNL     1      -6.976  10.629  18.500  0.00  0.00    +0.000 A 
ATOM     33  C   UNL     1      -6.994  10.632  19.885  0.00  0.00    +0.000 A 
ATOM     34  C   UNL     1      -6.488  11.739  20.591  0.00  0.00    +0.000 A 
ENDBRANCH  26  29
ENDBRANCH  19  20
ENDBRANCH   1  19
TORSDOF 9
ENDMDL
MODEL 9
REMARK VINA RESULT:      -6.4      2.287      7.913
REMARK  Name = 
REMARK  9 active torsions:
REMARK  status: ('A' for Active; 'I' for Inactive)
REMARK    1  A    between atoms: N_1  and  C_2
REMARK    2  A    between atoms: C_2  and  C_3
REMARK    3  A    between atoms: C_3  and  C_4
REMARK    4  A    between atoms: C_4  and  C_5
REMARK    5  A    between atoms: C_5  and  N_6
REMARK    6  A    between atoms: N_6  and  C_7
REMARK    7  A    between atoms: N_6  and  C_22
REMARK    8  A    between atoms: C_7  and  C_8
REMARK    9  A    between atoms: C_14  and  C_16
REMARK                            x       y       z     vdW  Elec       q    Type
REMARK                         _______ _______ _______ _____ _____    ______ ____
ROOT
ATOM      1  N   UNL     1      -1.120  12.346  20.563  0.00  0.00    +0.000 NA
ENDROOT
BRANCH   1   2
ATOM      2  C   UNL     1       0.159  11.622  20.909  0.00  0.00    +0.000 C 
ATOM      3  C   UNL     1       0.203  10.954  22.305  0.00  0.00    +0.000 C 
ATOM      4  C   UNL     1      -0.405   9.557  22.334  0.00  0.00    +0.000 C 
ATOM      5  C   UNL     1       0.261   8.614  21.344  0.00  0.00    +0.000 C 
ATOM      6  C   UNL     1       0.801   9.264  20.102  0.00  0.00    +0.000 A 
ATOM      7  C   UNL     1       1.509   8.442  19.207  0.00  0.00    +0.000 A 
ATOM      8  C   UNL     1       2.182   9.004  18.134  0.00  0.00    +0.000 A 
ATOM      9  C   UNL     1       2.098  10.374  17.974  0.00  0.00    +0.000 A 
ATOM     10  N   UNL     1       1.392  11.196  18.789  0.00  0.00    +0.000 NA
ATOM     11  C   UNL     1       0.743  10.646  19.856  0.00  0.00    +0.000 A 
ENDBRANCH   1   2
BRANCH   1  12
ATOM     12  C   UNL     1      -1.692  13.084  21.721  0.00  0.00    +0.000 C 
BRANCH  12  13
ATOM     13  C   UNL     1      -3.090  12.757  22.266  0.00  0.00    +0.000 C 
BRANCH  13  14
ATOM     14  C   UNL     1      -3.152  12.125  23.661  0.00  0.00    +0.000 C 
BRANCH  14  15
ATOM     15  C   UNL     1      -4.347  12.526  24.534  0.00  0.00    +0.000 C 
BRANCH  15  16
ATOM     16  N   UNL     1      -4.790  13.897  24.288  0.00  0.00    +0.000 NA
ATOM     17  H   UNL     1      -4.617  14.453  25.129  0.00  0.00    +0.000 HD
ATOM     18  H   UNL     1      -5.804  13.903  24.174  0.00  0.00    +0.000 HD
ENDBRANCH  15  16
ENDBRANCH  14  15
ENDBRANCH  13  14
ENDBRANCH  12  13
ENDBRANCH   1  12
BRANCH   1  19
ATOM     19  C   UNL     1      -2.190  11.466  19.999  0.00  0.00    +0.000 C 
BRANCH  19  20
ATOM     20  C   UNL     1      -2.854  11.930  18.651  0.00  0.00    +0.000 C 
ATOM     21  C   UNL     1      -1.797  11.925  17.509  0.00  0.00    +0.000 C 
ATOM     22  N   UNL     1      -1.418  10.587  17.032  0.00  0.00    +0.000 NA
ATOM     23  C   UNL     1      -2.632   9.877  16.618  0.00  0.00    +0.000 C 
ATOM     24  C   UNL     1      -3.741   9.822  17.691  0.00  0.00    +0.000 C 
ATOM     25  N   UNL     1      -4.072  11.136  18.297  0.00  0.00    +0.000 N 
ATOM     26  C   UNL     1      -5.447  11.342  18.625  0.00  0.00    +0.000 C 
ATOM     27  O   UNL     1      -6.252  10.448  18.319  0.00  0.00    +0.000 OA
ATOM     28  H   UNL     1      -0.959  10.085  17.794  0.00  0.00    +0.000 HD
BRANCH  26  29
ATOM     29  C   UNL     1      -6.103  12.541  19.313  0.00  0.00    +0.000 A 
ATOM     30  C   UNL     1      -6.371  12.713  20.669  0.00  0.00    +0.000 A 
ATOM     31  C   UNL     1      -7.000  13.878  21.168  0.00  0.00    +0.000 A 
ATOM     32  C   UNL     1      -7.369  14.918  20.323  0.00  0.00    +0.000 A 
ATOM     33  C   UNL     1      -7.098  14.801  18.970  0.00  0.00    +0.000 A 
ATOM     34  C   UNL     1      -6.476  13.640  18.478  0.00  0.00    +0.000 A 
ENDBRANCH  26  29
ENDBRANCH  19  20
ENDBRANCH   1  19
TORSDOF 9
ENDMDL
