MODEL 1
REMARK VINA RESULT:      -7.9      0.000      0.000
REMARK  Name = 
REMARK  3 active torsions:
REMARK  status: ('A' for Active; 'I' for Inactive)
REMARK    1  A    between atoms: C_1  and  C_2
REMARK    2  A    between atoms: C_9  and  O_10
REMARK    3  A    between atoms: O_10  and  C_11
REMARK                            x       y       z     vdW  Elec       q    Type
REMARK                         _______ _______ _______ _____ _____    ______ ____
ROOT
ATOM      1  C   UNL     1       5.235   4.104  14.971  0.00  0.00    +0.000 C 
ATOM      2  C   UNL     1       6.165   4.913  15.791  0.00  0.00    +0.000 A 
ATOM      3  N   UNL     1       7.057   5.726  15.208  0.00  0.00    +0.000 NA
ATOM      4  O   UNL     1       7.761   6.318  16.247  0.00  0.00    +0.000 OA
ATOM      5  C   UNL     1       7.296   5.853  17.441  0.00  0.00    +0.000 A 
ATOM      6  N   UNL     1       7.771   6.237  18.637  0.00  0.00    +0.000 NA
ATOM      7  C   UNL     1       7.140   5.612  19.639  0.00  0.00    +0.000 A 
ATOM      8  N   UNL     1       6.135   4.723  19.551  0.00  0.00    +0.000 NA
ATOM      9  C   UNL     1       5.665   4.413  18.318  0.00  0.00    +0.000 A 
ATOM     10  C   UNL     1       6.273   4.958  17.199  0.00  0.00    +0.000 A 
ENDROOT
BRANCH   9  11
ATOM     11  O   UNL     1       4.576   3.564  18.180  0.00  0.00    +0.000 OA
BRANCH  11  12
ATOM     12  C   UNL     1       3.628   3.572  19.183  0.00  0.00    +0.000 A 
ATOM     13  C   UNL     1       3.664   2.671  20.257  0.00  0.00    +0.000 A 
ATOM     14  C   UNL     1       2.678   2.704  21.243  0.00  0.00    +0.000 A 
ATOM     15  C   UNL     1       1.677   3.670  21.192  0.00  0.00    +0.000 A 
ATOM     16  C   UNL     1       1.667   4.610  20.160  0.00  0.00    +0.000 A 
ATOM     17  C   UNL     1       2.641   4.564  19.158  0.00  0.00    +0.000 A 
ATOM     18 CL   UNL     1       2.593   5.757  17.910  0.00  0.00    +0.000 Cl
ENDBRANCH  11  12
ENDBRANCH   9  11
TORSDOF 2
ENDMDL
MODEL 2
REMARK VINA RESULT:      -7.8      1.273      1.706
REMARK  Name = 
REMARK  3 active torsions:
REMARK  status: ('A' for Active; 'I' for Inactive)
REMARK    1  A    between atoms: C_1  and  C_2
REMARK    2  A    between atoms: C_9  and  O_10
REMARK    3  A    between atoms: O_10  and  C_11
REMARK                            x       y       z     vdW  Elec       q    Type
REMARK                         _______ _______ _______ _____ _____    ______ ____
ROOT
ATOM      1  C   UNL     1       5.391   3.962  14.867  0.00  0.00    +0.000 C 
ATOM      2  C   UNL     1       6.272   4.844  15.665  0.00  0.00    +0.000 A 
ATOM      3  N   UNL     1       7.144   5.664  15.062  0.00  0.00    +0.000 NA
ATOM      4  O   UNL     1       7.803   6.331  16.086  0.00  0.00    +0.000 OA
ATOM      5  C   UNL     1       7.331   5.904  17.291  0.00  0.00    +0.000 A 
ATOM      6  N   UNL     1       7.766   6.361  18.477  0.00  0.00    +0.000 NA
ATOM      7  C   UNL     1       7.138   5.758  19.495  0.00  0.00    +0.000 A 
ATOM      8  N   UNL     1       6.170   4.828  19.429  0.00  0.00    +0.000 NA
ATOM      9  C   UNL     1       5.738   4.442  18.203  0.00  0.00    +0.000 A 
ATOM     10  C   UNL     1       6.348   4.958  17.072  0.00  0.00    +0.000 A 
ENDROOT
BRANCH   9  11
ATOM     11  O   UNL     1       4.686   3.546  18.085  0.00  0.00    +0.000 OA
BRANCH  11  12
ATOM     12  C   UNL     1       3.644   3.661  18.982  0.00  0.00    +0.000 A 
ATOM     13  C   UNL     1       2.593   4.571  18.799  0.00  0.00    +0.000 A 
ATOM     14  C   UNL     1       1.565   4.666  19.738  0.00  0.00    +0.000 A 
ATOM     15  C   UNL     1       1.553   3.818  20.841  0.00  0.00    +0.000 A 
ATOM     16  C   UNL     1       2.563   2.868  21.002  0.00  0.00    +0.000 A 
ATOM     17  C   UNL     1       3.605   2.787  20.075  0.00  0.00    +0.000 A 
ATOM     18 CL   UNL     1       4.824   1.586  20.311  0.00  0.00    +0.000 Cl
ENDBRANCH  11  12
ENDBRANCH   9  11
TORSDOF 2
ENDMDL
MODEL 3
REMARK VINA RESULT:      -7.8      1.487      1.603
REMARK  Name = 
REMARK  3 active torsions:
REMARK  status: ('A' for Active; 'I' for Inactive)
REMARK    1  A    between atoms: C_1  and  C_2
REMARK    2  A    between atoms: C_9  and  O_10
REMARK    3  A    between atoms: O_10  and  C_11
REMARK                            x       y       z     vdW  Elec       q    Type
REMARK                         _______ _______ _______ _____ _____    ______ ____
ROOT
ATOM      1  C   UNL     1       4.865   4.518  14.834  0.00  0.00    +0.000 C 
ATOM      2  C   UNL     1       5.997   4.597  15.785  0.00  0.00    +0.000 A 
ATOM      3  N   UNL     1       7.250   4.356  15.375  0.00  0.00    +0.000 NA
ATOM      4  O   UNL     1       8.049   4.507  16.500  0.00  0.00    +0.000 OA
ATOM      5  C   UNL     1       7.274   4.828  17.575  0.00  0.00    +0.000 A 
ATOM      6  N   UNL     1       7.751   5.042  18.812  0.00  0.00    +0.000 NA
ATOM      7  C   UNL     1       6.766   5.328  19.674  0.00  0.00    +0.000 A 
ATOM      8  N   UNL     1       5.451   5.431  19.416  0.00  0.00    +0.000 NA
ATOM      9  C   UNL     1       5.036   5.252  18.137  0.00  0.00    +0.000 A 
ATOM     10  C   UNL     1       5.957   4.901  17.164  0.00  0.00    +0.000 A 
ENDROOT
BRANCH   9  11
ATOM     11  O   UNL     1       3.700   5.429  17.807  0.00  0.00    +0.000 OA
BRANCH  11  12
ATOM     12  C   UNL     1       2.793   4.512  18.298  0.00  0.00    +0.000 A 
ATOM     13  C   UNL     1       2.692   3.210  17.788  0.00  0.00    +0.000 A 
ATOM     14  C   UNL     1       1.751   2.318  18.304  0.00  0.00    +0.000 A 
ATOM     15  C   UNL     1       0.939   2.703  19.366  0.00  0.00    +0.000 A 
ATOM     16  C   UNL     1       1.072   3.977  19.920  0.00  0.00    +0.000 A 
ATOM     17  C   UNL     1       1.998   4.880  19.390  0.00  0.00    +0.000 A 
ATOM     18 CL   UNL     1       2.135   6.440  20.118  0.00  0.00    +0.000 Cl
ENDBRANCH  11  12
ENDBRANCH   9  11
TORSDOF 2
ENDMDL
MODEL 4
REMARK VINA RESULT:      -7.6      1.452      1.676
REMARK  Name = 
REMARK  3 active torsions:
REMARK  status: ('A' for Active; 'I' for Inactive)
REMARK    1  A    between atoms: C_1  and  C_2
REMARK    2  A    between atoms: C_9  and  O_10
REMARK    3  A    between atoms: O_10  and  C_11
REMARK                            x       y       z     vdW  Elec       q    Type
REMARK                         _______ _______ _______ _____ _____    ______ ____
ROOT
ATOM      1  C   UNL     1       5.225   3.637  15.767  0.00  0.00    +0.000 C 
ATOM      2  C   UNL     1       6.127   4.716  16.228  0.00  0.00    +0.000 A 
ATOM      3  N   UNL     1       6.675   5.569  15.352  0.00  0.00    +0.000 NA
ATOM      4  O   UNL     1       7.457   6.433  16.106  0.00  0.00    +0.000 OA
ATOM      5  C   UNL     1       7.380   6.091  17.423  0.00  0.00    +0.000 A 
ATOM      6  N   UNL     1       8.023   6.738  18.409  0.00  0.00    +0.000 NA
ATOM      7  C   UNL     1       7.778   6.180  19.602  0.00  0.00    +0.000 A 
ATOM      8  N   UNL     1       6.986   5.128  19.871  0.00  0.00    +0.000 NA
ATOM      9  C   UNL     1       6.325   4.547  18.840  0.00  0.00    +0.000 A 
ATOM     10  C   UNL     1       6.538   5.004  17.549  0.00  0.00    +0.000 A 
ENDROOT
BRANCH   9  11
ATOM     11  O   UNL     1       5.434   3.510  19.078  0.00  0.00    +0.000 OA
BRANCH  11  12
ATOM     12  C   UNL     1       4.119   3.843  19.333  0.00  0.00    +0.000 A 
ATOM     13  C   UNL     1       3.740   5.118  19.775  0.00  0.00    +0.000 A 
ATOM     14  C   UNL     1       2.401   5.410  20.035  0.00  0.00    +0.000 A 
ATOM     15  C   UNL     1       1.423   4.446  19.807  0.00  0.00    +0.000 A 
ATOM     16  C   UNL     1       1.784   3.192  19.310  0.00  0.00    +0.000 A 
ATOM     17  C   UNL     1       3.128   2.890  19.071  0.00  0.00    +0.000 A 
ATOM     18 CL   UNL     1       3.521   1.330  18.443  0.00  0.00    +0.000 Cl
ENDBRANCH  11  12
ENDBRANCH   9  11
TORSDOF 2
ENDMDL
MODEL 5
REMARK VINA RESULT:      -7.5      1.419      1.699
REMARK  Name = 
REMARK  3 active torsions:
REMARK  status: ('A' for Active; 'I' for Inactive)
REMARK    1  A    between atoms: C_1  and  C_2
REMARK    2  A    between atoms: C_9  and  O_10
REMARK    3  A    between atoms: O_10  and  C_11
REMARK                            x       y       z     vdW  Elec       q    Type
REMARK                         _______ _______ _______ _____ _____    ______ ____
ROOT
ATOM      1  C   UNL     1       4.909   4.202  14.808  0.00  0.00    +0.000 C 
ATOM      2  C   UNL     1       6.032   4.463  15.736  0.00  0.00    +0.000 A 
ATOM      3  N   UNL     1       7.299   4.417  15.303  0.00  0.00    +0.000 NA
ATOM      4  O   UNL     1       8.086   4.698  16.412  0.00  0.00    +0.000 OA
ATOM      5  C   UNL     1       7.291   4.902  17.500  0.00  0.00    +0.000 A 
ATOM      6  N   UNL     1       7.751   5.196  18.726  0.00  0.00    +0.000 NA
ATOM      7  C   UNL     1       6.750   5.331  19.606  0.00  0.00    +0.000 A 
ATOM      8  N   UNL     1       5.431   5.228  19.373  0.00  0.00    +0.000 NA
ATOM      9  C   UNL     1       5.025   4.977  18.104  0.00  0.00    +0.000 A 
ATOM     10  C   UNL     1       5.971   4.767  17.115  0.00  0.00    +0.000 A 
ENDROOT
BRANCH   9  11
ATOM     11  O   UNL     1       3.672   4.942  17.799  0.00  0.00    +0.000 OA
BRANCH  11  12
ATOM     12  C   UNL     1       2.817   4.413  18.744  0.00  0.00    +0.000 A 
ATOM     13  C   UNL     1       2.093   5.218  19.636  0.00  0.00    +0.000 A 
ATOM     14  C   UNL     1       1.250   4.642  20.586  0.00  0.00    +0.000 A 
ATOM     15  C   UNL     1       1.083   3.261  20.621  0.00  0.00    +0.000 A 
ATOM     16  C   UNL     1       1.753   2.455  19.698  0.00  0.00    +0.000 A 
ATOM     17  C   UNL     1       2.616   3.028  18.760  0.00  0.00    +0.000 A 
ATOM     18 CL   UNL     1       3.412   1.989  17.632  0.00  0.00    +0.000 Cl
ENDBRANCH  11  12
ENDBRANCH   9  11
TORSDOF 2
ENDMDL
MODEL 6
REMARK VINA RESULT:      -7.4      1.638      2.856
REMARK  Name = 
REMARK  3 active torsions:
REMARK  status: ('A' for Active; 'I' for Inactive)
REMARK    1  A    between atoms: C_1  and  C_2
REMARK    2  A    between atoms: C_9  and  O_10
REMARK    3  A    between atoms: O_10  and  C_11
REMARK                            x       y       z     vdW  Elec       q    Type
REMARK                         _______ _______ _______ _____ _____    ______ ____
ROOT
ATOM      1  C   UNL     1       7.537   5.753  19.860  0.00  0.00    +0.000 C 
ATOM      2  C   UNL     1       7.324   5.927  18.406  0.00  0.00    +0.000 A 
ATOM      3  N   UNL     1       8.057   6.806  17.709  0.00  0.00    +0.000 NA
ATOM      4  O   UNL     1       7.602   6.721  16.401  0.00  0.00    +0.000 OA
ATOM      5  C   UNL     1       6.599   5.802  16.321  0.00  0.00    +0.000 A 
ATOM      6  N   UNL     1       5.952   5.488  15.187  0.00  0.00    +0.000 NA
ATOM      7  C   UNL     1       5.006   4.564  15.403  0.00  0.00    +0.000 A 
ATOM      8  N   UNL     1       4.695   3.960  16.563  0.00  0.00    +0.000 NA
ATOM      9  C   UNL     1       5.418   4.284  17.664  0.00  0.00    +0.000 A 
ATOM     10  C   UNL     1       6.391   5.265  17.576  0.00  0.00    +0.000 A 
ENDROOT
BRANCH   9  11
ATOM     11  O   UNL     1       5.189   3.628  18.865  0.00  0.00    +0.000 OA
BRANCH  11  12
ATOM     12  C   UNL     1       3.916   3.691  19.395  0.00  0.00    +0.000 A 
ATOM     13  C   UNL     1       3.401   4.859  19.974  0.00  0.00    +0.000 A 
ATOM     14  C   UNL     1       2.114   4.877  20.511  0.00  0.00    +0.000 A 
ATOM     15  C   UNL     1       1.313   3.742  20.431  0.00  0.00    +0.000 A 
ATOM     16  C   UNL     1       1.794   2.591  19.804  0.00  0.00    +0.000 A 
ATOM     17  C   UNL     1       3.092   2.565  19.285  0.00  0.00    +0.000 A 
ATOM     18 CL   UNL     1       3.637   1.122  18.507  0.00  0.00    +0.000 Cl
ENDBRANCH  11  12
ENDBRANCH   9  11
TORSDOF 2
ENDMDL
MODEL 7
REMARK VINA RESULT:      -7.4      2.604      5.646
REMARK  Name = 
REMARK  3 active torsions:
REMARK  status: ('A' for Active; 'I' for Inactive)
REMARK    1  A    between atoms: C_1  and  C_2
REMARK    2  A    between atoms: C_9  and  O_10
REMARK    3  A    between atoms: O_10  and  C_11
REMARK                            x       y       z     vdW  Elec       q    Type
REMARK                         _______ _______ _______ _____ _____    ______ ____
ROOT
ATOM      1  C   UNL     1       1.910   5.975  20.545  0.00  0.00    +0.000 C 
ATOM      2  C   UNL     1       1.896   4.520  20.271  0.00  0.00    +0.000 A 
ATOM      3  N   UNL     1       1.128   3.696  20.997  0.00  0.00    +0.000 NA
ATOM      4  O   UNL     1       1.356   2.425  20.489  0.00  0.00    +0.000 OA
ATOM      5  C   UNL     1       2.260   2.491  19.472  0.00  0.00    +0.000 A 
ATOM      6  N   UNL     1       2.689   1.428  18.772  0.00  0.00    +0.000 NA
ATOM      7  C   UNL     1       3.585   1.782  17.842  0.00  0.00    +0.000 A 
ATOM      8  N   UNL     1       4.033   3.017  17.559  0.00  0.00    +0.000 NA
ATOM      9  C   UNL     1       3.526   4.057  18.267  0.00  0.00    +0.000 A 
ATOM     10  C   UNL     1       2.629   3.810  19.293  0.00  0.00    +0.000 A 
ENDROOT
BRANCH   9  11
ATOM     11  O   UNL     1       3.897   5.357  17.957  0.00  0.00    +0.000 OA
BRANCH  11  12
ATOM     12  C   UNL     1       5.221   5.704  18.136  0.00  0.00    +0.000 A 
ATOM     13  C   UNL     1       5.942   5.347  19.283  0.00  0.00    +0.000 A 
ATOM     14  C   UNL     1       7.276   5.730  19.430  0.00  0.00    +0.000 A 
ATOM     15  C   UNL     1       7.914   6.429  18.410  0.00  0.00    +0.000 A 
ATOM     16  C   UNL     1       7.222   6.737  17.238  0.00  0.00    +0.000 A 
ATOM     17  C   UNL     1       5.880   6.375  17.098  0.00  0.00    +0.000 A 
ATOM     18 CL   UNL     1       5.071   6.768  15.623  0.00  0.00    +0.000 Cl
ENDBRANCH  11  12
ENDBRANCH   9  11
TORSDOF 2
ENDMDL
MODEL 8
REMARK VINA RESULT:      -7.4      1.732      3.073
REMARK  Name = 
REMARK  3 active torsions:
REMARK  status: ('A' for Active; 'I' for Inactive)
REMARK    1  A    between atoms: C_1  and  C_2
REMARK    2  A    between atoms: C_9  and  O_10
REMARK    3  A    between atoms: O_10  and  C_11
REMARK                            x       y       z     vdW  Elec       q    Type
REMARK                         _______ _______ _______ _____ _____    ______ ____
ROOT
ATOM      1  C   UNL     1       5.898   5.274  19.656  0.00  0.00    +0.000 C 
ATOM      2  C   UNL     1       6.628   4.931  18.415  0.00  0.00    +0.000 A 
ATOM      3  N   UNL     1       7.891   4.485  18.467  0.00  0.00    +0.000 NA
ATOM      4  O   UNL     1       8.268   4.269  17.149  0.00  0.00    +0.000 OA
ATOM      5  C   UNL     1       7.238   4.592  16.317  0.00  0.00    +0.000 A 
ATOM      6  N   UNL     1       7.288   4.490  14.979  0.00  0.00    +0.000 NA
ATOM      7  C   UNL     1       6.140   4.886  14.414  0.00  0.00    +0.000 A 
ATOM      8  N   UNL     1       5.026   5.317  15.030  0.00  0.00    +0.000 NA
ATOM      9  C   UNL     1       5.019   5.351  16.385  0.00  0.00    +0.000 A 
ATOM     10  C   UNL     1       6.168   5.014  17.081  0.00  0.00    +0.000 A 
ENDROOT
BRANCH   9  11
ATOM     11  O   UNL     1       3.866   5.712  17.067  0.00  0.00    +0.000 OA
BRANCH  11  12
ATOM     12  C   UNL     1       3.103   4.699  17.612  0.00  0.00    +0.000 A 
ATOM     13  C   UNL     1       3.107   3.396  17.097  0.00  0.00    +0.000 A 
ATOM     14  C   UNL     1       2.310   2.404  17.669  0.00  0.00    +0.000 A 
ATOM     15  C   UNL     1       1.540   2.694  18.791  0.00  0.00    +0.000 A 
ATOM     16  C   UNL     1       1.574   3.974  19.348  0.00  0.00    +0.000 A 
ATOM     17  C   UNL     1       2.354   4.975  18.763  0.00  0.00    +0.000 A 
ATOM     18 CL   UNL     1       2.373   6.538  19.497  0.00  0.00    +0.000 Cl
ENDBRANCH  11  12
ENDBRANCH   9  11
TORSDOF 2
ENDMDL
MODEL 9
REMARK VINA RESULT:      -7.4      2.744      5.492
REMARK  Name = 
REMARK  3 active torsions:
REMARK  status: ('A' for Active; 'I' for Inactive)
REMARK    1  A    between atoms: C_1  and  C_2
REMARK    2  A    between atoms: C_9  and  O_10
REMARK    3  A    between atoms: O_10  and  C_11
REMARK                            x       y       z     vdW  Elec       q    Type
REMARK                         _______ _______ _______ _____ _____    ______ ____
ROOT
ATOM      1  C   UNL     1       3.045   1.932  18.212  0.00  0.00    +0.000 C 
ATOM      2  C   UNL     1       2.335   2.796  19.181  0.00  0.00    +0.000 A 
ATOM      3  N   UNL     1       1.476   2.268  20.064  0.00  0.00    +0.000 NA
ATOM      4  O   UNL     1       0.991   3.338  20.803  0.00  0.00    +0.000 OA
ATOM      5  C   UNL     1       1.553   4.497  20.357  0.00  0.00    +0.000 A 
ATOM      6  N   UNL     1       1.290   5.710  20.870  0.00  0.00    +0.000 NA
ATOM      7  C   UNL     1       1.971   6.670  20.233  0.00  0.00    +0.000 A 
ATOM      8  N   UNL     1       2.843   6.527  19.220  0.00  0.00    +0.000 NA
ATOM      9  C   UNL     1       3.105   5.272  18.777  0.00  0.00    +0.000 A 
ATOM     10  C   UNL     1       2.422   4.199  19.325  0.00  0.00    +0.000 A 
ENDROOT
BRANCH   9  11
ATOM     11  O   UNL     1       4.058   5.066  17.790  0.00  0.00    +0.000 OA
BRANCH  11  12
ATOM     12  C   UNL     1       5.328   5.558  18.014  0.00  0.00    +0.000 A 
ATOM     13  C   UNL     1       6.077   5.211  19.147  0.00  0.00    +0.000 A 
ATOM     14  C   UNL     1       7.352   5.742  19.343  0.00  0.00    +0.000 A 
ATOM     15  C   UNL     1       7.909   6.584  18.385  0.00  0.00    +0.000 A 
ATOM     16  C   UNL     1       7.195   6.888  17.225  0.00  0.00    +0.000 A 
ATOM     17  C   UNL     1       5.908   6.376  17.038  0.00  0.00    +0.000 A 
ATOM     18 CL   UNL     1       5.070   6.771  15.580  0.00  0.00    +0.000 Cl
ENDBRANCH  11  12
ENDBRANCH   9  11
TORSDOF 2
ENDMDL
