MODEL 1
REMARK VINA RESULT:      -6.8      0.000      0.000
REMARK  Name = 
REMARK  4 active torsions:
REMARK  status: ('A' for Active; 'I' for Inactive)
REMARK    1  A    between atoms: C_1  and  C_2
REMARK    2  A    between atoms: C_5  and  S_6
REMARK    3  A    between atoms: S_6  and  N_9
REMARK    4  A    between atoms: C_15  and  C_16
REMARK                            x       y       z     vdW  Elec       q    Type
REMARK                         _______ _______ _______ _____ _____    ______ ____
ROOT
ATOM      1  N   UNL     1       5.323   4.867  18.303  0.00  0.00    +0.000 N 
ATOM      2  C   UNL     1       4.235   5.408  17.531  0.00  0.00    +0.000 A 
ATOM      3  S   UNL     1       3.395   6.792  17.918  0.00  0.00    +0.000 S 
ATOM      4  N   UNL     1       3.769   4.426  16.656  0.00  0.00    +0.000 N 
ATOM      5  C   UNL     1       3.821   3.261  17.479  0.00  0.00    +0.000 A 
ATOM      6  C   UNL     1       2.587   2.666  17.706  0.00  0.00    +0.000 A 
ATOM      7  C   UNL     1       2.186   2.543  19.033  0.00  0.00    +0.000 A 
ATOM      8  C   UNL     1       0.710   2.657  19.327  0.00  0.00    +0.000 C 
ATOM      9  C   UNL     1       3.151   2.591  20.057  0.00  0.00    +0.000 A 
ATOM     10  C   UNL     1       4.467   3.026  19.787  0.00  0.00    +0.000 A 
ATOM     11  C   UNL     1       4.765   3.497  18.505  0.00  0.00    +0.000 A 
ATOM     12  H   UNL     1       4.500   4.268  15.953  0.00  0.00    +0.000 HD
ENDROOT
BRANCH   1  13
ATOM     13  S   UNL     1       6.803   4.958  17.380  0.00  0.00    +0.000 S 
ATOM     14  O   UNL     1       6.436   5.016  15.973  0.00  0.00    +0.000 OA
ATOM     15  O   UNL     1       7.743   3.979  17.870  0.00  0.00    +0.000 OA
BRANCH  13  20
ATOM     16  C   UNL     1       9.017  10.527  18.757  0.00  0.00    +0.000 C 
ATOM     17  C   UNL     1       8.456   9.165  18.434  0.00  0.00    +0.000 A 
ATOM     18  C   UNL     1       7.585   8.978  17.350  0.00  0.00    +0.000 A 
ATOM     19  C   UNL     1       7.072   7.712  17.034  0.00  0.00    +0.000 A 
ATOM     20  C   UNL     1       7.439   6.601  17.809  0.00  0.00    +0.000 A 
ATOM     21  C   UNL     1       8.288   6.775  18.913  0.00  0.00    +0.000 A 
ATOM     22  C   UNL     1       8.800   8.055  19.216  0.00  0.00    +0.000 A 
ENDBRANCH  13  20
ENDBRANCH   1  13
TORSDOF 2
ENDMDL
MODEL 2
REMARK VINA RESULT:      -6.7      0.077      1.058
REMARK  Name = 
REMARK  4 active torsions:
REMARK  status: ('A' for Active; 'I' for Inactive)
REMARK    1  A    between atoms: C_1  and  C_2
REMARK    2  A    between atoms: C_5  and  S_6
REMARK    3  A    between atoms: S_6  and  N_9
REMARK    4  A    between atoms: C_15  and  C_16
REMARK                            x       y       z     vdW  Elec       q    Type
REMARK                         _______ _______ _______ _____ _____    ______ ____
ROOT
ATOM      1  N   UNL     1       5.295   4.876  18.296  0.00  0.00    +0.000 N 
ATOM      2  C   UNL     1       4.198   5.430  17.547  0.00  0.00    +0.000 A 
ATOM      3  S   UNL     1       3.383   6.823  17.951  0.00  0.00    +0.000 S 
ATOM      4  N   UNL     1       3.703   4.454  16.682  0.00  0.00    +0.000 N 
ATOM      5  C   UNL     1       3.758   3.288  17.503  0.00  0.00    +0.000 A 
ATOM      6  C   UNL     1       2.522   2.708  17.755  0.00  0.00    +0.000 A 
ATOM      7  C   UNL     1       2.147   2.589  19.090  0.00  0.00    +0.000 A 
ATOM      8  C   UNL     1       0.678   2.720  19.414  0.00  0.00    +0.000 C 
ATOM      9  C   UNL     1       3.133   2.625  20.094  0.00  0.00    +0.000 A 
ATOM     10  C   UNL     1       4.448   3.045  19.797  0.00  0.00    +0.000 A 
ATOM     11  C   UNL     1       4.725   3.512  18.510  0.00  0.00    +0.000 A 
ATOM     12  H   UNL     1       4.417   4.288  15.964  0.00  0.00    +0.000 HD
ENDROOT
BRANCH   1  13
ATOM     13  S   UNL     1       6.756   4.950  17.343  0.00  0.00    +0.000 S 
ATOM     14  O   UNL     1       6.362   5.031  15.945  0.00  0.00    +0.000 OA
ATOM     15  O   UNL     1       7.688   3.947  17.802  0.00  0.00    +0.000 OA
BRANCH  13  20
ATOM     16  C   UNL     1       8.995  10.464  18.894  0.00  0.00    +0.000 C 
ATOM     17  C   UNL     1       8.464   9.108  18.499  0.00  0.00    +0.000 A 
ATOM     18  C   UNL     1       8.776   7.962  19.246  0.00  0.00    +0.000 A 
ATOM     19  C   UNL     1       8.274   6.701  18.894  0.00  0.00    +0.000 A 
ATOM     20  C   UNL     1       7.433   6.575  17.778  0.00  0.00    +0.000 A 
ATOM     21  C   UNL     1       7.134   7.707  17.004  0.00  0.00    +0.000 A 
ATOM     22  C   UNL     1       7.643   8.970  17.373  0.00  0.00    +0.000 A 
ENDBRANCH  13  20
ENDBRANCH   1  13
TORSDOF 2
ENDMDL
MODEL 3
REMARK VINA RESULT:      -6.6      3.326      4.924
REMARK  Name = 
REMARK  4 active torsions:
REMARK  status: ('A' for Active; 'I' for Inactive)
REMARK    1  A    between atoms: C_1  and  C_2
REMARK    2  A    between atoms: C_5  and  S_6
REMARK    3  A    between atoms: S_6  and  N_9
REMARK    4  A    between atoms: C_15  and  C_16
REMARK                            x       y       z     vdW  Elec       q    Type
REMARK                         _______ _______ _______ _____ _____    ______ ____
ROOT
ATOM      1  N   UNL     1       5.291   4.976  16.971  0.00  0.00    +0.000 N 
ATOM      2  C   UNL     1       5.411   5.590  18.268  0.00  0.00    +0.000 A 
ATOM      3  S   UNL     1       6.366   5.014  19.503  0.00  0.00    +0.000 S 
ATOM      4  N   UNL     1       4.356   6.486  18.443  0.00  0.00    +0.000 N 
ATOM      5  C   UNL     1       3.268   5.765  17.866  0.00  0.00    +0.000 A 
ATOM      6  C   UNL     1       2.247   5.460  18.756  0.00  0.00    +0.000 A 
ATOM      7  C   UNL     1       1.938   4.112  18.917  0.00  0.00    +0.000 A 
ATOM      8  C   UNL     1       1.481   3.663  20.284  0.00  0.00    +0.000 C 
ATOM      9  C   UNL     1       2.309   3.191  17.920  0.00  0.00    +0.000 A 
ATOM     10  C   UNL     1       3.214   3.559  16.900  0.00  0.00    +0.000 A 
ATOM     11  C   UNL     1       3.805   4.824  16.956  0.00  0.00    +0.000 A 
ATOM     12  H   UNL     1       4.507   7.269  17.798  0.00  0.00    +0.000 HD
ENDROOT
BRANCH   1  13
ATOM     13  S   UNL     1       5.960   6.035  15.754  0.00  0.00    +0.000 S 
ATOM     14  O   UNL     1       7.298   6.406  16.187  0.00  0.00    +0.000 OA
ATOM     15  O   UNL     1       4.985   7.035  15.389  0.00  0.00    +0.000 OA
BRANCH  13  20
ATOM     16  C   UNL     1       6.686   2.199  11.003  0.00  0.00    +0.000 C 
ATOM     17  C   UNL     1       6.500   3.156  12.153  0.00  0.00    +0.000 A 
ATOM     18  C   UNL     1       5.304   3.186  12.885  0.00  0.00    +0.000 A 
ATOM     19  C   UNL     1       5.130   4.062  13.967  0.00  0.00    +0.000 A 
ATOM     20  C   UNL     1       6.173   4.926  14.335  0.00  0.00    +0.000 A 
ATOM     21  C   UNL     1       7.366   4.928  13.596  0.00  0.00    +0.000 A 
ATOM     22  C   UNL     1       7.528   4.037  12.514  0.00  0.00    +0.000 A 
ENDBRANCH  13  20
ENDBRANCH   1  13
TORSDOF 2
ENDMDL
MODEL 4
REMARK VINA RESULT:      -6.5      3.783      5.618
REMARK  Name = 
REMARK  4 active torsions:
REMARK  status: ('A' for Active; 'I' for Inactive)
REMARK    1  A    between atoms: C_1  and  C_2
REMARK    2  A    between atoms: C_5  and  S_6
REMARK    3  A    between atoms: S_6  and  N_9
REMARK    4  A    between atoms: C_15  and  C_16
REMARK                            x       y       z     vdW  Elec       q    Type
REMARK                         _______ _______ _______ _____ _____    ______ ____
ROOT
ATOM      1  N   UNL     1       4.372   5.818  18.354  0.00  0.00    +0.000 N 
ATOM      2  C   UNL     1       5.430   4.894  18.671  0.00  0.00    +0.000 A 
ATOM      3  S   UNL     1       6.855   5.308  19.424  0.00  0.00    +0.000 S 
ATOM      4  N   UNL     1       5.241   3.722  17.938  0.00  0.00    +0.000 N 
ATOM      5  C   UNL     1       4.821   4.237  16.676  0.00  0.00    +0.000 A 
ATOM      6  C   UNL     1       5.675   3.938  15.623  0.00  0.00    +0.000 A 
ATOM      7  C   UNL     1       6.208   5.018  14.924  0.00  0.00    +0.000 A 
ATOM      8  C   UNL     1       7.605   4.867  14.371  0.00  0.00    +0.000 C 
ATOM      9  C   UNL     1       5.567   6.270  14.986  0.00  0.00    +0.000 A 
ATOM     10  C   UNL     1       4.562   6.518  15.946  0.00  0.00    +0.000 A 
ATOM     11  C   UNL     1       4.283   5.527  16.892  0.00  0.00    +0.000 A 
ATOM     12  H   UNL     1       4.405   3.257  18.310  0.00  0.00    +0.000 HD
ENDROOT
BRANCH   1  13
ATOM     13  S   UNL     1       2.953   5.433  19.295  0.00  0.00    +0.000 S 
ATOM     14  O   UNL     1       3.404   5.008  20.612  0.00  0.00    +0.000 OA
ATOM     15  O   UNL     1       2.055   4.619  18.511  0.00  0.00    +0.000 OA
BRANCH  13  20
ATOM     16  C   UNL     1       0.400  10.975  20.060  0.00  0.00    +0.000 C 
ATOM     17  C   UNL     1       1.005   9.607  19.867  0.00  0.00    +0.000 A 
ATOM     18  C   UNL     1       1.558   9.227  18.635  0.00  0.00    +0.000 A 
ATOM     19  C   UNL     1       2.137   7.962  18.452  0.00  0.00    +0.000 A 
ATOM     20  C   UNL     1       2.174   7.055  19.522  0.00  0.00    +0.000 A 
ATOM     21  C   UNL     1       1.601   7.410  20.753  0.00  0.00    +0.000 A 
ATOM     22  C   UNL     1       1.027   8.687  20.923  0.00  0.00    +0.000 A 
ENDBRANCH  13  20
ENDBRANCH   1  13
TORSDOF 2
ENDMDL
MODEL 5
REMARK VINA RESULT:      -6.5      3.803      5.698
REMARK  Name = 
REMARK  4 active torsions:
REMARK  status: ('A' for Active; 'I' for Inactive)
REMARK    1  A    between atoms: C_1  and  C_2
REMARK    2  A    between atoms: C_5  and  S_6
REMARK    3  A    between atoms: S_6  and  N_9
REMARK    4  A    between atoms: C_15  and  C_16
REMARK                            x       y       z     vdW  Elec       q    Type
REMARK                         _______ _______ _______ _____ _____    ______ ____
ROOT
ATOM      1  N   UNL     1       4.377   5.880  18.331  0.00  0.00    +0.000 N 
ATOM      2  C   UNL     1       5.408   4.927  18.651  0.00  0.00    +0.000 A 
ATOM      3  S   UNL     1       6.840   5.300  19.410  0.00  0.00    +0.000 S 
ATOM      4  N   UNL     1       5.189   3.762  17.916  0.00  0.00    +0.000 N 
ATOM      5  C   UNL     1       4.788   4.290  16.653  0.00  0.00    +0.000 A 
ATOM      6  C   UNL     1       5.637   3.969  15.602  0.00  0.00    +0.000 A 
ATOM      7  C   UNL     1       6.203   5.034  14.907  0.00  0.00    +0.000 A 
ATOM      8  C   UNL     1       7.597   4.844  14.359  0.00  0.00    +0.000 C 
ATOM      9  C   UNL     1       5.597   6.303  14.968  0.00  0.00    +0.000 A 
ATOM     10  C   UNL     1       4.595   6.578  15.924  0.00  0.00    +0.000 A 
ATOM     11  C   UNL     1       4.285   5.594  16.868  0.00  0.00    +0.000 A 
ATOM     12  H   UNL     1       4.338   3.320  18.284  0.00  0.00    +0.000 HD
ENDROOT
BRANCH   1  13
ATOM     13  S   UNL     1       2.944   5.534  19.266  0.00  0.00    +0.000 S 
ATOM     14  O   UNL     1       3.377   5.125  20.593  0.00  0.00    +0.000 OA
ATOM     15  O   UNL     1       2.039   4.721  18.488  0.00  0.00    +0.000 OA
BRANCH  13  20
ATOM     16  C   UNL     1       0.299  11.047  19.923  0.00  0.00    +0.000 C 
ATOM     17  C   UNL     1       0.968   9.704  19.767  0.00  0.00    +0.000 A 
ATOM     18  C   UNL     1       1.022   8.794  20.833  0.00  0.00    +0.000 A 
ATOM     19  C   UNL     1       1.628   7.537  20.692  0.00  0.00    +0.000 A 
ATOM     20  C   UNL     1       2.189   7.172  19.458  0.00  0.00    +0.000 A 
ATOM     21  C   UNL     1       2.168   8.082  18.390  0.00  0.00    +0.000 A 
ATOM     22  C   UNL     1       1.550   9.341  18.547  0.00  0.00    +0.000 A 
ENDBRANCH  13  20
ENDBRANCH   1  13
TORSDOF 2
ENDMDL
MODEL 6
REMARK VINA RESULT:      -6.5      3.323      4.859
REMARK  Name = 
REMARK  4 active torsions:
REMARK  status: ('A' for Active; 'I' for Inactive)
REMARK    1  A    between atoms: C_1  and  C_2
REMARK    2  A    between atoms: C_5  and  S_6
REMARK    3  A    between atoms: S_6  and  N_9
REMARK    4  A    between atoms: C_15  and  C_16
REMARK                            x       y       z     vdW  Elec       q    Type
REMARK                         _______ _______ _______ _____ _____    ______ ____
ROOT
ATOM      1  N   UNL     1       5.188   5.000  16.998  0.00  0.00    +0.000 N 
ATOM      2  C   UNL     1       5.296   5.596  18.304  0.00  0.00    +0.000 A 
ATOM      3  S   UNL     1       6.281   5.036  19.522  0.00  0.00    +0.000 S 
ATOM      4  N   UNL     1       4.209   6.449  18.502  0.00  0.00    +0.000 N 
ATOM      5  C   UNL     1       3.144   5.699  17.921  0.00  0.00    +0.000 A 
ATOM      6  C   UNL     1       2.142   5.342  18.814  0.00  0.00    +0.000 A 
ATOM      7  C   UNL     1       1.885   3.981  18.955  0.00  0.00    +0.000 A 
ATOM      8  C   UNL     1       1.456   3.493  20.318  0.00  0.00    +0.000 C 
ATOM      9  C   UNL     1       2.281   3.091  17.939  0.00  0.00    +0.000 A 
ATOM     10  C   UNL     1       3.164   3.508  16.919  0.00  0.00    +0.000 A 
ATOM     11  C   UNL     1       3.708   4.794  16.992  0.00  0.00    +0.000 A 
ATOM     12  H   UNL     1       4.326   7.248  17.869  0.00  0.00    +0.000 HD
ENDROOT
BRANCH   1  13
ATOM     13  S   UNL     1       5.807   6.102  15.794  0.00  0.00    +0.000 S 
ATOM     14  O   UNL     1       7.090   6.594  16.273  0.00  0.00    +0.000 OA
ATOM     15  O   UNL     1       4.763   7.009  15.380  0.00  0.00    +0.000 OA
BRANCH  13  20
ATOM     16  C   UNL     1       7.030   2.450  11.000  0.00  0.00    +0.000 C 
ATOM     17  C   UNL     1       6.739   3.329  12.190  0.00  0.00    +0.000 A 
ATOM     18  C   UNL     1       7.646   4.320  12.597  0.00  0.00    +0.000 A 
ATOM     19  C   UNL     1       7.376   5.152  13.694  0.00  0.00    +0.000 A 
ATOM     20  C   UNL     1       6.171   5.003  14.398  0.00  0.00    +0.000 A 
ATOM     21  C   UNL     1       5.266   3.999  14.020  0.00  0.00    +0.000 A 
ATOM     22  C   UNL     1       5.550   3.173  12.913  0.00  0.00    +0.000 A 
ENDBRANCH  13  20
ENDBRANCH   1  13
TORSDOF 2
ENDMDL
MODEL 7
REMARK VINA RESULT:      -6.3      1.525      2.102
REMARK  Name = 
REMARK  4 active torsions:
REMARK  status: ('A' for Active; 'I' for Inactive)
REMARK    1  A    between atoms: C_1  and  C_2
REMARK    2  A    between atoms: C_5  and  S_6
REMARK    3  A    between atoms: S_6  and  N_9
REMARK    4  A    between atoms: C_15  and  C_16
REMARK                            x       y       z     vdW  Elec       q    Type
REMARK                         _______ _______ _______ _____ _____    ______ ____
ROOT
ATOM      1  N   UNL     1       5.737   5.712  18.222  0.00  0.00    +0.000 N 
ATOM      2  C   UNL     1       5.547   4.807  17.118  0.00  0.00    +0.000 A 
ATOM      3  S   UNL     1       5.117   5.268  15.579  0.00  0.00    +0.000 S 
ATOM      4  N   UNL     1       5.414   3.510  17.616  0.00  0.00    +0.000 N 
ATOM      5  C   UNL     1       4.609   3.727  18.773  0.00  0.00    +0.000 A 
ATOM      6  C   UNL     1       3.371   3.099  18.736  0.00  0.00    +0.000 A 
ATOM      7  C   UNL     1       2.250   3.917  18.852  0.00  0.00    +0.000 A 
ATOM      8  C   UNL     1       1.010   3.507  18.094  0.00  0.00    +0.000 C 
ATOM      9  C   UNL     1       2.381   5.196  19.425  0.00  0.00    +0.000 A 
ATOM     10  C   UNL     1       3.656   5.765  19.633  0.00  0.00    +0.000 A 
ATOM     11  C   UNL     1       4.780   5.073  19.174  0.00  0.00    +0.000 A 
ATOM     12  H   UNL     1       6.326   3.231  17.994  0.00  0.00    +0.000 HD
ENDROOT
BRANCH   1  13
ATOM     13  S   UNL     1       7.414   5.704  18.708  0.00  0.00    +0.000 S 
ATOM     14  O   UNL     1       8.151   4.931  17.720  0.00  0.00    +0.000 OA
ATOM     15  O   UNL     1       7.510   5.407  20.118  0.00  0.00    +0.000 OA
BRANCH  13  20
ATOM     16  C   UNL     1       9.030  11.593  17.985  0.00  0.00    +0.000 C 
ATOM     17  C   UNL     1       8.650  10.143  18.148  0.00  0.00    +0.000 A 
ATOM     18  C   UNL     1       9.184   9.366  19.188  0.00  0.00    +0.000 A 
ATOM     19  C   UNL     1       8.824   8.021  19.355  0.00  0.00    +0.000 A 
ATOM     20  C   UNL     1       7.905   7.434  18.472  0.00  0.00    +0.000 A 
ATOM     21  C   UNL     1       7.383   8.189  17.410  0.00  0.00    +0.000 A 
ATOM     22  C   UNL     1       7.751   9.542  17.257  0.00  0.00    +0.000 A 
ENDBRANCH  13  20
ENDBRANCH   1  13
TORSDOF 2
ENDMDL
MODEL 8
REMARK VINA RESULT:      -6.3      3.108      4.581
REMARK  Name = 
REMARK  4 active torsions:
REMARK  status: ('A' for Active; 'I' for Inactive)
REMARK    1  A    between atoms: C_1  and  C_2
REMARK    2  A    between atoms: C_5  and  S_6
REMARK    3  A    between atoms: S_6  and  N_9
REMARK    4  A    between atoms: C_15  and  C_16
REMARK                            x       y       z     vdW  Elec       q    Type
REMARK                         _______ _______ _______ _____ _____    ______ ____
ROOT
ATOM      1  N   UNL     1       4.382   4.806  17.634  0.00  0.00    +0.000 N 
ATOM      2  C   UNL     1       4.849   4.811  18.996  0.00  0.00    +0.000 A 
ATOM      3  S   UNL     1       5.770   3.610  19.686  0.00  0.00    +0.000 S 
ATOM      4  N   UNL     1       4.120   5.756  19.720  0.00  0.00    +0.000 N 
ATOM      5  C   UNL     1       2.805   5.562  19.202  0.00  0.00    +0.000 A 
ATOM      6  C   UNL     1       1.876   5.140  20.143  0.00  0.00    +0.000 A 
ATOM      7  C   UNL     1       1.230   3.933  19.889  0.00  0.00    +0.000 A 
ATOM      8  C   UNL     1       0.864   3.078  21.078  0.00  0.00    +0.000 C 
ATOM      9  C   UNL     1       1.186   3.434  18.574  0.00  0.00    +0.000 A 
ATOM     10  C   UNL     1       2.005   3.986  17.565  0.00  0.00    +0.000 A 
ATOM     11  C   UNL     1       2.926   4.976  17.920  0.00  0.00    +0.000 A 
ATOM     12  H   UNL     1       4.391   6.684  19.375  0.00  0.00    +0.000 HD
ENDROOT
BRANCH   1  13
ATOM     13  S   UNL     1       5.140   6.103  16.745  0.00  0.00    +0.000 S 
ATOM     14  O   UNL     1       6.328   6.502  17.485  0.00  0.00    +0.000 OA
ATOM     15  O   UNL     1       4.143   7.069  16.349  0.00  0.00    +0.000 OA
BRANCH  13  20
ATOM     16  C   UNL     1       7.134   3.356  11.617  0.00  0.00    +0.000 C 
ATOM     17  C   UNL     1       6.651   4.011  12.887  0.00  0.00    +0.000 A 
ATOM     18  C   UNL     1       7.479   4.881  13.613  0.00  0.00    +0.000 A 
ATOM     19  C   UNL     1       7.033   5.506  14.787  0.00  0.00    +0.000 A 
ATOM     20  C   UNL     1       5.729   5.268  15.247  0.00  0.00    +0.000 A 
ATOM     21  C   UNL     1       4.898   4.379  14.548  0.00  0.00    +0.000 A 
ATOM     22  C   UNL     1       5.359   3.761  13.367  0.00  0.00    +0.000 A 
ENDBRANCH  13  20
ENDBRANCH   1  13
TORSDOF 2
ENDMDL
MODEL 9
REMARK VINA RESULT:      -6.3      3.111      4.547
REMARK  Name = 
REMARK  4 active torsions:
REMARK  status: ('A' for Active; 'I' for Inactive)
REMARK    1  A    between atoms: C_1  and  C_2
REMARK    2  A    between atoms: C_5  and  S_6
REMARK    3  A    between atoms: S_6  and  N_9
REMARK    4  A    between atoms: C_15  and  C_16
REMARK                            x       y       z     vdW  Elec       q    Type
REMARK                         _______ _______ _______ _____ _____    ______ ____
ROOT
ATOM      1  N   UNL     1       4.436   4.812  17.620  0.00  0.00    +0.000 N 
ATOM      2  C   UNL     1       4.872   4.855  18.992  0.00  0.00    +0.000 A 
ATOM      3  S   UNL     1       5.811   3.694  19.724  0.00  0.00    +0.000 S 
ATOM      4  N   UNL     1       4.099   5.790  19.681  0.00  0.00    +0.000 N 
ATOM      5  C   UNL     1       2.802   5.549  19.138  0.00  0.00    +0.000 A 
ATOM      6  C   UNL     1       1.864   5.117  20.066  0.00  0.00    +0.000 A 
ATOM      7  C   UNL     1       1.260   3.887  19.819  0.00  0.00    +0.000 A 
ATOM      8  C   UNL     1       0.892   3.041  21.015  0.00  0.00    +0.000 C 
ATOM      9  C   UNL     1       1.261   3.363  18.513  0.00  0.00    +0.000 A 
ATOM     10  C   UNL     1       2.086   3.922  17.512  0.00  0.00    +0.000 A 
ATOM     11  C   UNL     1       2.969   4.944  17.870  0.00  0.00    +0.000 A 
ATOM     12  H   UNL     1       4.350   6.720  19.326  0.00  0.00    +0.000 HD
ENDROOT
BRANCH   1  13
ATOM     13  S   UNL     1       5.177   6.115  16.725  0.00  0.00    +0.000 S 
ATOM     14  O   UNL     1       6.376   6.513  17.446  0.00  0.00    +0.000 OA
ATOM     15  O   UNL     1       4.171   7.081  16.350  0.00  0.00    +0.000 OA
BRANCH  13  20
ATOM     16  C   UNL     1       7.096   3.229  11.645  0.00  0.00    +0.000 C 
ATOM     17  C   UNL     1       6.618   3.955  12.878  0.00  0.00    +0.000 A 
ATOM     18  C   UNL     1       5.325   3.753  13.382  0.00  0.00    +0.000 A 
ATOM     19  C   UNL     1       4.879   4.413  14.537  0.00  0.00    +0.000 A 
ATOM     20  C   UNL     1       5.742   5.289  15.213  0.00  0.00    +0.000 A 
ATOM     21  C   UNL     1       7.029   5.523  14.706  0.00  0.00    +0.000 A 
ATOM     22  C   UNL     1       7.465   4.848  13.546  0.00  0.00    +0.000 A 
ENDBRANCH  13  20
ENDBRANCH   1  13
TORSDOF 2
ENDMDL
