MODEL 1
REMARK VINA RESULT:      -8.3      0.000      0.000
REMARK  Name = 
REMARK  5 active torsions:
REMARK  status: ('A' for Active; 'I' for Inactive)
REMARK    1  A    between atoms: C_1  and  C_2
REMARK    2  A    between atoms: C_10  and  C_11
REMARK    3  A    between atoms: N_13  and  C_14
REMARK    4  A    between atoms: C_14  and  C_15
REMARK    5  A    between atoms: C_15  and  C_16
REMARK                            x       y       z     vdW  Elec       q    Type
REMARK                         _______ _______ _______ _____ _____    ______ ____
ROOT
ATOM      1  C   UNL     1      11.033  16.741  20.572  0.00  0.00    +0.000 C 
ATOM      2  C   UNL     1      10.340  17.589  19.509  0.00  0.00    +0.000 C 
ATOM      3  C   UNL     1      10.525  17.071  18.082  0.00  0.00    +0.000 C 
ATOM      4  N   UNL     1       9.775  15.818  17.879  0.00  0.00    +0.000 N 
ATOM      5  C   UNL     1      10.539  14.679  17.542  0.00  0.00    +0.000 C 
ATOM      6  O   UNL     1      11.619  14.825  16.971  0.00  0.00    +0.000 OA
ATOM      7  N   UNL     1      10.171  13.396  17.980  0.00  0.00    +0.000 N 
ATOM      8  C   UNL     1       8.947  13.055  18.647  0.00  0.00    +0.000 C 
ATOM      9  C   UNL     1       9.100  12.210  19.878  0.00  0.00    +0.000 C 
ATOM     10  C   UNL     1       9.776  10.908  19.530  0.00  0.00    +0.000 C 
ATOM     11  C   UNL     1      11.127  11.256  18.859  0.00  0.00    +0.000 C 
ATOM     12  C   UNL     1      11.007  12.225  17.658  0.00  0.00    +0.000 C 
ATOM     13  C   UNL     1       8.404  15.966  18.273  0.00  0.00    +0.000 A 
ATOM     14  C   UNL     1       7.366  15.183  17.745  0.00  0.00    +0.000 A 
ATOM     15  C   UNL     1       6.186  15.004  18.489  0.00  0.00    +0.000 A 
ATOM     16  C   UNL     1       5.958  15.754  19.641  0.00  0.00    +0.000 A 
ATOM     17  C   UNL     1       6.879  16.729  20.013  0.00  0.00    +0.000 A 
ATOM     18  C   UNL     1       8.102  16.829  19.342  0.00  0.00    +0.000 A 
ATOM     19  O   UNL     1       8.964  17.752  19.874  0.00  0.00    +0.000 OA
ENDROOT
BRANCH  10  20
ATOM     20  C   UNL     1       8.874  10.020  18.663  0.00  0.00    +0.000 C 
ATOM     21  O   UNL     1       8.181  10.484  17.763  0.00  0.00    +0.000 OA
ATOM     22  N   UNL     1       8.906   8.661  18.940  0.00  0.00    +0.000 N 
ATOM     23  H   UNL     1       9.519   8.284  19.654  0.00  0.00    +0.000 HD
BRANCH  22  24
ATOM     24  C   UNL     1       8.051   7.752  18.193  0.00  0.00    +0.000 C 
BRANCH  24  25
ATOM     25  C   UNL     1       7.922   6.344  18.795  0.00  0.00    +0.000 C 
BRANCH  25  26
ATOM     26  C   UNL     1       6.905   5.485  18.060  0.00  0.00    +0.000 C 
ATOM     27  C   UNL     1       7.167   4.944  16.854  0.00  0.00    +0.000 C 
ATOM     28  C   UNL     1       6.181   4.127  16.065  0.00  0.00    +0.000 C 
ATOM     29  C   UNL     1       4.751   4.224  16.596  0.00  0.00    +0.000 C 
ATOM     30  C   UNL     1       4.728   4.145  18.118  0.00  0.00    +0.000 C 
ATOM     31  C   UNL     1       5.574   5.259  18.745  0.00  0.00    +0.000 C 
ENDBRANCH  25  26
ENDBRANCH  24  25
ENDBRANCH  22  24
ENDBRANCH  10  20
TORSDOF 4
ENDMDL
MODEL 2
REMARK VINA RESULT:      -8.2      6.320      7.932
REMARK  Name = 
REMARK  5 active torsions:
REMARK  status: ('A' for Active; 'I' for Inactive)
REMARK    1  A    between atoms: C_1  and  C_2
REMARK    2  A    between atoms: C_10  and  C_11
REMARK    3  A    between atoms: N_13  and  C_14
REMARK    4  A    between atoms: C_14  and  C_15
REMARK    5  A    between atoms: C_15  and  C_16
REMARK                            x       y       z     vdW  Elec       q    Type
REMARK                         _______ _______ _______ _____ _____    ______ ____
ROOT
ATOM      1  C   UNL     1      -1.055  16.483  19.729  0.00  0.00    +0.000 C 
ATOM      2  C   UNL     1       0.194  17.075  20.376  0.00  0.00    +0.000 C 
ATOM      3  C   UNL     1       0.778  16.218  21.500  0.00  0.00    +0.000 C 
ATOM      4  N   UNL     1       1.379  14.985  20.961  0.00  0.00    +0.000 N 
ATOM      5  C   UNL     1       0.816  13.768  21.405  0.00  0.00    +0.000 C 
ATOM      6  O   UNL     1       0.255  13.727  22.498  0.00  0.00    +0.000 OA
ATOM      7  N   UNL     1       0.744  12.647  20.562  0.00  0.00    +0.000 N 
ATOM      8  C   UNL     1       1.351  12.529  19.266  0.00  0.00    +0.000 C 
ATOM      9  C   UNL     1       0.456  12.002  18.183  0.00  0.00    +0.000 C 
ATOM     10  C   UNL     1      -0.046  10.628  18.549  0.00  0.00    +0.000 C 
ATOM     11  C   UNL     1      -0.755  10.747  19.920  0.00  0.00    +0.000 C 
ATOM     12  C   UNL     1       0.109  11.399  21.026  0.00  0.00    +0.000 C 
ATOM     13  C   UNL     1       2.309  15.280  19.910  0.00  0.00    +0.000 A 
ATOM     14  C   UNL     1       3.378  14.436  19.573  0.00  0.00    +0.000 A 
ATOM     15  C   UNL     1       3.923  14.492  18.278  0.00  0.00    +0.000 A 
ATOM     16  C   UNL     1       3.551  15.508  17.399  0.00  0.00    +0.000 A 
ATOM     17  C   UNL     1       2.686  16.505  17.838  0.00  0.00    +0.000 A 
ATOM     18  C   UNL     1       2.057  16.390  19.082  0.00  0.00    +0.000 A 
ATOM     19  O   UNL     1       1.146  17.378  19.348  0.00  0.00    +0.000 OA
ENDROOT
BRANCH  10  20
ATOM     20  C   UNL     1       1.088   9.593  18.534  0.00  0.00    +0.000 C 
ATOM     21  O   UNL     1       1.883   9.518  17.603  0.00  0.00    +0.000 OA
ATOM     22  N   UNL     1       1.175   8.767  19.645  0.00  0.00    +0.000 N 
ATOM     23  H   UNL     1       0.542   8.873  20.430  0.00  0.00    +0.000 HD
BRANCH  22  24
ATOM     24  C   UNL     1       2.195   7.731  19.695  0.00  0.00    +0.000 C 
BRANCH  24  25
ATOM     25  C   UNL     1       1.881   6.560  20.639  0.00  0.00    +0.000 C 
BRANCH  25  26
ATOM     26  C   UNL     1       1.764   5.233  19.906  0.00  0.00    +0.000 C 
ATOM     27  C   UNL     1       2.112   5.101  18.611  0.00  0.00    +0.000 C 
ATOM     28  C   UNL     1       1.972   3.824  17.828  0.00  0.00    +0.000 C 
ATOM     29  C   UNL     1       1.108   2.775  18.528  0.00  0.00    +0.000 C 
ATOM     30  C   UNL     1       1.440   2.699  20.013  0.00  0.00    +0.000 C 
ATOM     31  C   UNL     1       1.237   4.055  20.698  0.00  0.00    +0.000 C 
ENDBRANCH  25  26
ENDBRANCH  24  25
ENDBRANCH  22  24
ENDBRANCH  10  20
TORSDOF 4
ENDMDL
MODEL 3
REMARK VINA RESULT:      -7.8      7.972      9.928
REMARK  Name = 
REMARK  5 active torsions:
REMARK  status: ('A' for Active; 'I' for Inactive)
REMARK    1  A    between atoms: C_1  and  C_2
REMARK    2  A    between atoms: C_10  and  C_11
REMARK    3  A    between atoms: N_13  and  C_14
REMARK    4  A    between atoms: C_14  and  C_15
REMARK    5  A    between atoms: C_15  and  C_16
REMARK                            x       y       z     vdW  Elec       q    Type
REMARK                         _______ _______ _______ _____ _____    ______ ____
ROOT
ATOM      1  C   UNL     1      -3.822  12.368  21.851  0.00  0.00    +0.000 C 
ATOM      2  C   UNL     1      -3.714  13.254  20.613  0.00  0.00    +0.000 C 
ATOM      3  C   UNL     1      -2.290  13.724  20.309  0.00  0.00    +0.000 C 
ATOM      4  N   UNL     1      -1.457  12.601  19.843  0.00  0.00    +0.000 N 
ATOM      5  C   UNL     1      -0.331  12.287  20.635  0.00  0.00    +0.000 C 
ATOM      6  O   UNL     1       0.186  13.164  21.324  0.00  0.00    +0.000 OA
ATOM      7  N   UNL     1       0.116  10.962  20.777  0.00  0.00    +0.000 N 
ATOM      8  C   UNL     1      -0.370   9.828  20.043  0.00  0.00    +0.000 C 
ATOM      9  C   UNL     1      -0.700   8.621  20.871  0.00  0.00    +0.000 C 
ATOM     10  C   UNL     1       0.524   8.156  21.618  0.00  0.00    +0.000 C 
ATOM     11  C   UNL     1       1.031   9.351  22.461  0.00  0.00    +0.000 C 
ATOM     12  C   UNL     1       1.264  10.647  21.646  0.00  0.00    +0.000 C 
ATOM     13  C   UNL     1      -2.086  11.905  18.759  0.00  0.00    +0.000 A 
ATOM     14  C   UNL     1      -1.370  11.173  17.799  0.00  0.00    +0.000 A 
ATOM     15  C   UNL     1      -2.011  10.135  17.100  0.00  0.00    +0.000 A 
ATOM     16  C   UNL     1      -3.390   9.961  17.203  0.00  0.00    +0.000 A 
ATOM     17  C   UNL     1      -4.136  10.866  17.951  0.00  0.00    +0.000 A 
ATOM     18  C   UNL     1      -3.491  11.827  18.736  0.00  0.00    +0.000 A 
ATOM     19  O   UNL     1      -4.332  12.582  19.509  0.00  0.00    +0.000 OA
ENDROOT
BRANCH  10  20
ATOM     20  C   UNL     1       1.583   7.588  20.664  0.00  0.00    +0.000 C 
ATOM     21  O   UNL     1       2.022   8.240  19.722  0.00  0.00    +0.000 OA
ATOM     22  N   UNL     1       2.032   6.305  20.943  0.00  0.00    +0.000 N 
ATOM     23  H   UNL     1       1.697   5.796  21.752  0.00  0.00    +0.000 HD
BRANCH  22  24
ATOM     24  C   UNL     1       3.006   5.675  20.065  0.00  0.00    +0.000 C 
BRANCH  24  25
ATOM     25  C   UNL     1       2.472   5.300  18.673  0.00  0.00    +0.000 C 
BRANCH  25  26
ATOM     26  C   UNL     1       3.552   5.340  17.603  0.00  0.00    +0.000 C 
ATOM     27  C   UNL     1       4.178   6.484  17.264  0.00  0.00    +0.000 C 
ATOM     28  C   UNL     1       5.218   6.586  16.182  0.00  0.00    +0.000 C 
ATOM     29  C   UNL     1       5.280   5.352  15.282  0.00  0.00    +0.000 C 
ATOM     30  C   UNL     1       5.192   4.073  16.106  0.00  0.00    +0.000 C 
ATOM     31  C   UNL     1       3.900   4.030  16.929  0.00  0.00    +0.000 C 
ENDBRANCH  25  26
ENDBRANCH  24  25
ENDBRANCH  22  24
ENDBRANCH  10  20
TORSDOF 4
ENDMDL
MODEL 4
REMARK VINA RESULT:      -7.8      6.999      8.772
REMARK  Name = 
REMARK  5 active torsions:
REMARK  status: ('A' for Active; 'I' for Inactive)
REMARK    1  A    between atoms: C_1  and  C_2
REMARK    2  A    between atoms: C_10  and  C_11
REMARK    3  A    between atoms: N_13  and  C_14
REMARK    4  A    between atoms: C_14  and  C_15
REMARK    5  A    between atoms: C_15  and  C_16
REMARK                            x       y       z     vdW  Elec       q    Type
REMARK                         _______ _______ _______ _____ _____    ______ ____
ROOT
ATOM      1  C   UNL     1      -2.777  15.038  20.979  0.00  0.00    +0.000 C 
ATOM      2  C   UNL     1      -1.729  15.809  21.777  0.00  0.00    +0.000 C 
ATOM      3  C   UNL     1      -0.863  14.929  22.680  0.00  0.00    +0.000 C 
ATOM      4  N   UNL     1       0.050  14.095  21.877  0.00  0.00    +0.000 N 
ATOM      5  C   UNL     1      -0.104  12.697  22.005  0.00  0.00    +0.000 C 
ATOM      6  O   UNL     1      -0.572  12.235  23.043  0.00  0.00    +0.000 OA
ATOM      7  N   UNL     1       0.119  11.835  20.918  0.00  0.00    +0.000 N 
ATOM      8  C   UNL     1       0.669  12.211  19.647  0.00  0.00    +0.000 C 
ATOM      9  C   UNL     1      -0.082  11.708  18.449  0.00  0.00    +0.000 C 
ATOM     10  C   UNL     1      -0.135  10.201  18.465  0.00  0.00    +0.000 C 
ATOM     11  C   UNL     1      -0.779   9.778  19.808  0.00  0.00    +0.000 C 
ATOM     12  C   UNL     1      -0.093  10.382  21.057  0.00  0.00    +0.000 C 
ATOM     13  C   UNL     1       0.797  14.893  20.949  0.00  0.00    +0.000 A 
ATOM     14  C   UNL     1       2.051  14.511  20.445  0.00  0.00    +0.000 A 
ATOM     15  C   UNL     1       2.489  15.029  19.214  0.00  0.00    +0.000 A 
ATOM     16  C   UNL     1       1.790  16.062  18.593  0.00  0.00    +0.000 A 
ATOM     17  C   UNL     1       0.690  16.622  19.236  0.00  0.00    +0.000 A 
ATOM     18  C   UNL     1       0.187  16.036  20.402  0.00  0.00    +0.000 A 
ATOM     19  O   UNL     1      -0.962  16.615  20.874  0.00  0.00    +0.000 OA
ENDROOT
BRANCH  10  20
ATOM     20  C   UNL     1       1.252   9.588  18.232  0.00  0.00    +0.000 C 
ATOM     21  O   UNL     1       2.132  10.190  17.625  0.00  0.00    +0.000 OA
ATOM     22  N   UNL     1       1.460   8.325  18.767  0.00  0.00    +0.000 N 
ATOM     23  H   UNL     1       0.741   7.859  19.309  0.00  0.00    +0.000 HD
BRANCH  22  24
ATOM     24  C   UNL     1       2.733   7.653  18.558  0.00  0.00    +0.000 C 
BRANCH  24  25
ATOM     25  C   UNL     1       2.630   6.261  17.914  0.00  0.00    +0.000 C 
BRANCH  25  26
ATOM     26  C   UNL     1       2.209   5.189  18.907  0.00  0.00    +0.000 C 
ATOM     27  C   UNL     1       2.437   5.311  20.229  0.00  0.00    +0.000 C 
ATOM     28  C   UNL     1       2.082   4.260  21.245  0.00  0.00    +0.000 C 
ATOM     29  C   UNL     1       1.732   2.908  20.623  0.00  0.00    +0.000 C 
ATOM     30  C   UNL     1       0.840   3.086  19.400  0.00  0.00    +0.000 C 
ATOM     31  C   UNL     1       1.515   3.967  18.342  0.00  0.00    +0.000 C 
ENDBRANCH  25  26
ENDBRANCH  24  25
ENDBRANCH  22  24
ENDBRANCH  10  20
TORSDOF 4
ENDMDL
MODEL 5
REMARK VINA RESULT:      -7.7      6.393      8.470
REMARK  Name = 
REMARK  5 active torsions:
REMARK  status: ('A' for Active; 'I' for Inactive)
REMARK    1  A    between atoms: C_1  and  C_2
REMARK    2  A    between atoms: C_10  and  C_11
REMARK    3  A    between atoms: N_13  and  C_14
REMARK    4  A    between atoms: C_14  and  C_15
REMARK    5  A    between atoms: C_15  and  C_16
REMARK                            x       y       z     vdW  Elec       q    Type
REMARK                         _______ _______ _______ _____ _____    ______ ____
ROOT
ATOM      1  C   UNL     1      -1.172  17.779  18.588  0.00  0.00    +0.000 C 
ATOM      2  C   UNL     1       0.053  18.295  19.338  0.00  0.00    +0.000 C 
ATOM      3  C   UNL     1       0.252  17.660  20.715  0.00  0.00    +0.000 C 
ATOM      4  N   UNL     1       0.657  16.249  20.587  0.00  0.00    +0.000 N 
ATOM      5  C   UNL     1      -0.215  15.293  21.153  0.00  0.00    +0.000 C 
ATOM      6  O   UNL     1      -0.942  15.620  22.089  0.00  0.00    +0.000 OA
ATOM      7  N   UNL     1      -0.386  14.026  20.572  0.00  0.00    +0.000 N 
ATOM      8  C   UNL     1       0.383  13.488  19.486  0.00  0.00    +0.000 C 
ATOM      9  C   UNL     1      -0.416  12.867  18.378  0.00  0.00    +0.000 C 
ATOM     10  C   UNL     1      -1.250  11.732  18.916  0.00  0.00    +0.000 C 
ATOM     11  C   UNL     1      -2.130  12.305  20.053  0.00  0.00    +0.000 C 
ATOM     12  C   UNL     1      -1.337  13.058  21.150  0.00  0.00    +0.000 C 
ATOM     13  C   UNL     1       1.786  16.112  19.714  0.00  0.00    +0.000 A 
ATOM     14  C   UNL     1       2.691  15.043  19.792  0.00  0.00    +0.000 A 
ATOM     15  C   UNL     1       3.438  14.683  18.657  0.00  0.00    +0.000 A 
ATOM     16  C   UNL     1       3.437  15.495  17.525  0.00  0.00    +0.000 A 
ATOM     17  C   UNL     1       2.744  16.701  17.552  0.00  0.00    +0.000 A 
ATOM     18  C   UNL     1       1.912  17.006  18.634  0.00  0.00    +0.000 A 
ATOM     19  O   UNL     1       1.201  18.168  18.489  0.00  0.00    +0.000 OA
ENDROOT
BRANCH  10  20
ATOM     20  C   UNL     1      -0.375  10.550  19.357  0.00  0.00    +0.000 C 
ATOM     21  O   UNL     1      -0.609   9.919  20.383  0.00  0.00    +0.000 OA
ATOM     22  N   UNL     1       0.680  10.224  18.517  0.00  0.00    +0.000 N 
ATOM     23  H   UNL     1       0.833  10.722  17.648  0.00  0.00    +0.000 HD
BRANCH  22  24
ATOM     24  C   UNL     1       1.584   9.144  18.881  0.00  0.00    +0.000 C 
BRANCH  24  25
ATOM     25  C   UNL     1       2.112   8.318  17.697  0.00  0.00    +0.000 C 
BRANCH  25  26
ATOM     26  C   UNL     1       3.014   7.176  18.138  0.00  0.00    +0.000 C 
ATOM     27  C   UNL     1       2.699   6.379  19.177  0.00  0.00    +0.000 C 
ATOM     28  C   UNL     1       3.577   5.267  19.682  0.00  0.00    +0.000 C 
ATOM     29  C   UNL     1       4.999   5.315  19.123  0.00  0.00    +0.000 C 
ATOM     30  C   UNL     1       4.988   5.631  17.632  0.00  0.00    +0.000 C 
ATOM     31  C   UNL     1       4.291   6.967  17.352  0.00  0.00    +0.000 C 
ENDBRANCH  25  26
ENDBRANCH  24  25
ENDBRANCH  22  24
ENDBRANCH  10  20
TORSDOF 4
ENDMDL
MODEL 6
REMARK VINA RESULT:      -7.6      7.157      9.128
REMARK  Name = 
REMARK  5 active torsions:
REMARK  status: ('A' for Active; 'I' for Inactive)
REMARK    1  A    between atoms: C_1  and  C_2
REMARK    2  A    between atoms: C_10  and  C_11
REMARK    3  A    between atoms: N_13  and  C_14
REMARK    4  A    between atoms: C_14  and  C_15
REMARK    5  A    between atoms: C_15  and  C_16
REMARK                            x       y       z     vdW  Elec       q    Type
REMARK                         _______ _______ _______ _____ _____    ______ ____
ROOT
ATOM      1  C   UNL     1      -3.356  14.076  21.724  0.00  0.00    +0.000 C 
ATOM      2  C   UNL     1      -2.408  14.778  22.693  0.00  0.00    +0.000 C 
ATOM      3  C   UNL     1      -1.465  13.829  23.435  0.00  0.00    +0.000 C 
ATOM      4  N   UNL     1      -0.458  13.268  22.517  0.00  0.00    +0.000 N 
ATOM      5  C   UNL     1      -0.462  11.865  22.364  0.00  0.00    +0.000 C 
ATOM      6  O   UNL     1      -0.893  11.161  23.275  0.00  0.00    +0.000 OA
ATOM      7  N   UNL     1      -0.134  11.262  21.138  0.00  0.00    +0.000 N 
ATOM      8  C   UNL     1       0.390  11.936  19.985  0.00  0.00    +0.000 C 
ATOM      9  C   UNL     1      -0.286  11.607  18.686  0.00  0.00    +0.000 C 
ATOM     10  C   UNL     1      -0.177  10.129  18.406  0.00  0.00    +0.000 C 
ATOM     11  C   UNL     1      -0.790   9.385  19.617  0.00  0.00    +0.000 C 
ATOM     12  C   UNL     1      -0.191   9.797  20.984  0.00  0.00    +0.000 C 
ATOM     13  C   UNL     1       0.213  14.306  21.789  0.00  0.00    +0.000 A 
ATOM     14  C   UNL     1       1.507  14.162  21.265  0.00  0.00    +0.000 A 
ATOM     15  C   UNL     1       1.905  14.955  20.174  0.00  0.00    +0.000 A 
ATOM     16  C   UNL     1       1.107  16.014  19.744  0.00  0.00    +0.000 A 
ATOM     17  C   UNL     1      -0.055  16.320  20.445  0.00  0.00    +0.000 A 
ATOM     18  C   UNL     1      -0.509  15.467  21.455  0.00  0.00    +0.000 A 
ATOM     19  O   UNL     1      -1.720  15.820  21.991  0.00  0.00    +0.000 OA
ENDROOT
BRANCH  10  20
ATOM     20  C   UNL     1       1.271   9.719  18.106  0.00  0.00    +0.000 C 
ATOM     21  O   UNL     1       2.154  10.551  17.919  0.00  0.00    +0.000 OA
ATOM     22  N   UNL     1       1.527   8.356  18.082  0.00  0.00    +0.000 N 
ATOM     23  H   UNL     1       0.800   7.680  18.286  0.00  0.00    +0.000 HD
BRANCH  22  24
ATOM     24  C   UNL     1       2.865   7.879  17.765  0.00  0.00    +0.000 C 
BRANCH  24  25
ATOM     25  C   UNL     1       3.473   6.925  18.804  0.00  0.00    +0.000 C 
BRANCH  25  26
ATOM     26  C   UNL     1       2.630   5.678  19.018  0.00  0.00    +0.000 C 
ATOM     27  C   UNL     1       2.455   4.760  18.047  0.00  0.00    +0.000 C 
ATOM     28  C   UNL     1       1.594   3.535  18.192  0.00  0.00    +0.000 C 
ATOM     29  C   UNL     1       0.679   3.578  19.416  0.00  0.00    +0.000 C 
ATOM     30  C   UNL     1       1.425   4.106  20.635  0.00  0.00    +0.000 C 
ATOM     31  C   UNL     1       1.988   5.508  20.379  0.00  0.00    +0.000 C 
ENDBRANCH  25  26
ENDBRANCH  24  25
ENDBRANCH  22  24
ENDBRANCH  10  20
TORSDOF 4
ENDMDL
MODEL 7
REMARK VINA RESULT:      -7.6      5.974      7.891
REMARK  Name = 
REMARK  5 active torsions:
REMARK  status: ('A' for Active; 'I' for Inactive)
REMARK    1  A    between atoms: C_1  and  C_2
REMARK    2  A    between atoms: C_10  and  C_11
REMARK    3  A    between atoms: N_13  and  C_14
REMARK    4  A    between atoms: C_14  and  C_15
REMARK    5  A    between atoms: C_15  and  C_16
REMARK                            x       y       z     vdW  Elec       q    Type
REMARK                         _______ _______ _______ _____ _____    ______ ____
ROOT
ATOM      1  C   UNL     1      -0.729  17.228  19.392  0.00  0.00    +0.000 C 
ATOM      2  C   UNL     1       0.581  17.795  19.932  0.00  0.00    +0.000 C 
ATOM      3  C   UNL     1       1.028  17.174  21.256  0.00  0.00    +0.000 C 
ATOM      4  N   UNL     1       1.462  15.779  21.060  0.00  0.00    +0.000 N 
ATOM      5  C   UNL     1       0.733  14.792  21.759  0.00  0.00    +0.000 C 
ATOM      6  O   UNL     1       0.158  15.094  22.802  0.00  0.00    +0.000 OA
ATOM      7  N   UNL     1       0.519  13.516  21.210  0.00  0.00    +0.000 N 
ATOM      8  C   UNL     1       1.121  13.005  20.012  0.00  0.00    +0.000 C 
ATOM      9  C   UNL     1       0.176  12.348  19.048  0.00  0.00    +0.000 C 
ATOM     10  C   UNL     1      -0.513  11.183  19.713  0.00  0.00    +0.000 C 
ATOM     11  C   UNL     1      -1.216  11.726  20.981  0.00  0.00    +0.000 C 
ATOM     12  C   UNL     1      -0.285  12.514  21.934  0.00  0.00    +0.000 C 
ATOM     13  C   UNL     1       2.437  15.684  20.012  0.00  0.00    +0.000 A 
ATOM     14  C   UNL     1       3.385  14.651  19.939  0.00  0.00    +0.000 A 
ATOM     15  C   UNL     1       3.949  14.316  18.695  0.00  0.00    +0.000 A 
ATOM     16  C   UNL     1       3.730  15.123  17.580  0.00  0.00    +0.000 A 
ATOM     17  C   UNL     1       3.003  16.301  17.725  0.00  0.00    +0.000 A 
ATOM     18  C   UNL     1       2.349  16.578  18.929  0.00  0.00    +0.000 A 
ATOM     19  O   UNL     1       1.578  17.710  18.906  0.00  0.00    +0.000 OA
ENDROOT
BRANCH  10  20
ATOM     20  C   UNL     1       0.469  10.039  20.001  0.00  0.00    +0.000 C 
ATOM     21  O   UNL     1       0.709   9.666  21.145  0.00  0.00    +0.000 OA
ATOM     22  N   UNL     1       1.049   9.439  18.894  0.00  0.00    +0.000 N 
ATOM     23  H   UNL     1       0.805   9.724  17.953  0.00  0.00    +0.000 HD
BRANCH  22  24
ATOM     24  C   UNL     1       2.022   8.373  19.079  0.00  0.00    +0.000 C 
BRANCH  24  25
ATOM     25  C   UNL     1       2.887   8.067  17.846  0.00  0.00    +0.000 C 
BRANCH  25  26
ATOM     26  C   UNL     1       3.242   6.593  17.732  0.00  0.00    +0.000 C 
ATOM     27  C   UNL     1       2.398   5.623  18.136  0.00  0.00    +0.000 C 
ATOM     28  C   UNL     1       2.720   4.154  18.088  0.00  0.00    +0.000 C 
ATOM     29  C   UNL     1       4.201   3.865  17.844  0.00  0.00    +0.000 C 
ATOM     30  C   UNL     1       4.763   4.781  16.763  0.00  0.00    +0.000 C 
ATOM     31  C   UNL     1       4.595   6.256  17.141  0.00  0.00    +0.000 C 
ENDBRANCH  25  26
ENDBRANCH  24  25
ENDBRANCH  22  24
ENDBRANCH  10  20
TORSDOF 4
ENDMDL
MODEL 8
REMARK VINA RESULT:      -7.6      6.472      8.296
REMARK  Name = 
REMARK  5 active torsions:
REMARK  status: ('A' for Active; 'I' for Inactive)
REMARK    1  A    between atoms: C_1  and  C_2
REMARK    2  A    between atoms: C_10  and  C_11
REMARK    3  A    between atoms: N_13  and  C_14
REMARK    4  A    between atoms: C_14  and  C_15
REMARK    5  A    between atoms: C_15  and  C_16
REMARK                            x       y       z     vdW  Elec       q    Type
REMARK                         _______ _______ _______ _____ _____    ______ ____
ROOT
ATOM      1  C   UNL     1      -1.858  15.420  20.489  0.00  0.00    +0.000 C 
ATOM      2  C   UNL     1      -0.737  16.081  21.286  0.00  0.00    +0.000 C 
ATOM      3  C   UNL     1      -0.044  15.145  22.278  0.00  0.00    +0.000 C 
ATOM      4  N   UNL     1       0.763  14.135  21.568  0.00  0.00    +0.000 N 
ATOM      5  C   UNL     1       0.399  12.786  21.773  0.00  0.00    +0.000 C 
ATOM      6  O   UNL     1      -0.170  12.467  22.814  0.00  0.00    +0.000 OA
ATOM      7  N   UNL     1       0.530  11.832  20.750  0.00  0.00    +0.000 N 
ATOM      8  C   UNL     1       1.175  12.038  19.485  0.00  0.00    +0.000 C 
ATOM      9  C   UNL     1       0.401  11.573  18.286  0.00  0.00    +0.000 C 
ATOM     10  C   UNL     1       0.125  10.095  18.390  0.00  0.00    +0.000 C 
ATOM     11  C   UNL     1      -0.623   9.859  19.725  0.00  0.00    +0.000 C 
ATOM     12  C   UNL     1       0.100  10.437  20.966  0.00  0.00    +0.000 C 
ATOM     13  C   UNL     1       1.654  14.752  20.629  0.00  0.00    +0.000 A 
ATOM     14  C   UNL     1       2.853  14.160  20.206  0.00  0.00    +0.000 A 
ATOM     15  C   UNL     1       3.408  14.526  18.968  0.00  0.00    +0.000 A 
ATOM     16  C   UNL     1       2.893  15.607  18.256  0.00  0.00    +0.000 A 
ATOM     17  C   UNL     1       1.866  16.363  18.814  0.00  0.00    +0.000 A 
ATOM     18  C   UNL     1       1.240  15.935  19.988  0.00  0.00    +0.000 A 
ATOM     19  O   UNL     1       0.173  16.705  20.372  0.00  0.00    +0.000 OA
ENDROOT
BRANCH  10  20
ATOM     20  C   UNL     1       1.413   9.271  18.257  0.00  0.00    +0.000 C 
ATOM     21  O   UNL     1       2.338   9.630  17.535  0.00  0.00    +0.000 OA
ATOM     22  N   UNL     1       1.479   8.113  19.017  0.00  0.00    +0.000 N 
ATOM     23  H   UNL     1       0.728   7.854  19.646  0.00  0.00    +0.000 HD
BRANCH  22  24
ATOM     24  C   UNL     1       2.648   7.252  18.920  0.00  0.00    +0.000 C 
BRANCH  24  25
ATOM     25  C   UNL     1       2.396   5.895  18.243  0.00  0.00    +0.000 C 
BRANCH  25  26
ATOM     26  C   UNL     1       2.348   4.746  19.238  0.00  0.00    +0.000 C 
ATOM     27  C   UNL     1       1.203   4.371  19.840  0.00  0.00    +0.000 C 
ATOM     28  C   UNL     1       1.111   3.273  20.864  0.00  0.00    +0.000 C 
ATOM     29  C   UNL     1       2.472   2.831  21.403  0.00  0.00    +0.000 C 
ATOM     30  C   UNL     1       3.490   2.707  20.276  0.00  0.00    +0.000 C 
ATOM     31  C   UNL     1       3.653   4.034  19.526  0.00  0.00    +0.000 C 
ENDBRANCH  25  26
ENDBRANCH  24  25
ENDBRANCH  22  24
ENDBRANCH  10  20
TORSDOF 4
ENDMDL
MODEL 9
REMARK VINA RESULT:      -7.5      7.556      9.636
REMARK  Name = 
REMARK  5 active torsions:
REMARK  status: ('A' for Active; 'I' for Inactive)
REMARK    1  A    between atoms: C_1  and  C_2
REMARK    2  A    between atoms: C_10  and  C_11
REMARK    3  A    between atoms: N_13  and  C_14
REMARK    4  A    between atoms: C_14  and  C_15
REMARK    5  A    between atoms: C_15  and  C_16
REMARK                            x       y       z     vdW  Elec       q    Type
REMARK                         _______ _______ _______ _____ _____    ______ ____
ROOT
ATOM      1  C   UNL     1      -3.260  12.553  22.568  0.00  0.00    +0.000 C 
ATOM      2  C   UNL     1      -3.249  13.539  21.404  0.00  0.00    +0.000 C 
ATOM      3  C   UNL     1      -1.847  13.959  20.958  0.00  0.00    +0.000 C 
ATOM      4  N   UNL     1      -1.151  12.839  20.299  0.00  0.00    +0.000 N 
ATOM      5  C   UNL     1       0.042  12.396  20.911  0.00  0.00    +0.000 C 
ATOM      6  O   UNL     1       0.694  13.179  21.597  0.00  0.00    +0.000 OA
ATOM      7  N   UNL     1       0.417  11.042  20.884  0.00  0.00    +0.000 N 
ATOM      8  C   UNL     1      -0.227  10.006  20.128  0.00  0.00    +0.000 C 
ATOM      9  C   UNL     1      -0.529   8.749  20.889  0.00  0.00    +0.000 C 
ATOM     10  C   UNL     1       0.746   8.154  21.432  0.00  0.00    +0.000 C 
ATOM     11  C   UNL     1       1.429   9.240  22.298  0.00  0.00    +0.000 C 
ATOM     12  C   UNL     1       1.642  10.590  21.569  0.00  0.00    +0.000 C 
ATOM     13  C   UNL     1      -1.953  12.278  19.250  0.00  0.00    +0.000 A 
ATOM     14  C   UNL     1      -1.409  11.597  18.150  0.00  0.00    +0.000 A 
ATOM     15  C   UNL     1      -2.196  10.662  17.456  0.00  0.00    +0.000 A 
ATOM     16  C   UNL     1      -3.560  10.553  17.720  0.00  0.00    +0.000 A 
ATOM     17  C   UNL     1      -4.149  11.425  18.631  0.00  0.00    +0.000 A 
ATOM     18  C   UNL     1      -3.352  12.276  19.402  0.00  0.00    +0.000 A 
ATOM     19  O   UNL     1      -4.041  13.003  20.337  0.00  0.00    +0.000 OA
ENDROOT
BRANCH  10  20
ATOM     20  C   UNL     1       1.640   7.618  20.305  0.00  0.00    +0.000 C 
ATOM     21  O   UNL     1       2.072   8.349  19.420  0.00  0.00    +0.000 OA
ATOM     22  N   UNL     1       1.951   6.268  20.362  0.00  0.00    +0.000 N 
ATOM     23  H   UNL     1       1.628   5.686  21.126  0.00  0.00    +0.000 HD
BRANCH  22  24
ATOM     24  C   UNL     1       2.760   5.670  19.311  0.00  0.00    +0.000 C 
BRANCH  24  25
ATOM     25  C   UNL     1       3.998   4.905  19.806  0.00  0.00    +0.000 C 
BRANCH  25  26
ATOM     26  C   UNL     1       5.128   4.901  18.788  0.00  0.00    +0.000 C 
ATOM     27  C   UNL     1       4.953   4.449  17.531  0.00  0.00    +0.000 C 
ATOM     28  C   UNL     1       6.047   4.381  16.502  0.00  0.00    +0.000 C 
ATOM     29  C   UNL     1       7.446   4.565  17.090  0.00  0.00    +0.000 C 
ATOM     30  C   UNL     1       7.462   5.696  18.112  0.00  0.00    +0.000 C 
ATOM     31  C   UNL     1       6.469   5.431  19.249  0.00  0.00    +0.000 C 
ENDBRANCH  25  26
ENDBRANCH  24  25
ENDBRANCH  22  24
ENDBRANCH  10  20
TORSDOF 4
ENDMDL
