MODEL 1
REMARK VINA RESULT:      -8.7      0.000      0.000
REMARK  Name = 
REMARK  6 active torsions:
REMARK  status: ('A' for Active; 'I' for Inactive)
REMARK    1  A    between atoms: C_1  and  S_2
REMARK    2  A    between atoms: S_2  and  C_5
REMARK    3  A    between atoms: C_8  and  N_9
REMARK    4  A    between atoms: C_11  and  C_12
REMARK    5  A    between atoms: C_19  and  N_20
REMARK    6  A    between atoms: C_21  and  C_23
REMARK                            x       y       z     vdW  Elec       q    Type
REMARK                         _______ _______ _______ _____ _____    ______ ____
ROOT
ATOM      1  N   UNL     1       2.771   5.670  18.959  0.00  0.00    +0.000 N 
ATOM      2  N   UNL     1       2.449   4.585  19.824  0.00  0.00    +0.000 NA
ATOM      3  C   UNL     1       3.513   3.770  19.744  0.00  0.00    +0.000 A 
ATOM      4  C   UNL     1       4.392   4.345  18.843  0.00  0.00    +0.000 A 
ATOM      5  C   UNL     1       3.657   5.119  17.902  0.00  0.00    +0.000 A 
ATOM      6  C   UNL     1       4.600   5.454  16.671  0.00  0.00    +0.000 A 
ATOM      7  C   UNL     1       4.647   4.663  15.426  0.00  0.00    +0.000 A 
ATOM      8  C   UNL     1       5.865   4.439  14.641  0.00  0.00    +0.000 A 
ATOM      9  C   UNL     1       7.020   5.093  15.093  0.00  0.00    +0.000 A 
ATOM     10  C   UNL     1       7.028   5.863  16.242  0.00  0.00    +0.000 A 
ATOM     11  C   UNL     1       5.884   5.945  17.069  0.00  0.00    +0.000 A 
ATOM     12  C   UNL     1       6.191   5.921  18.562  0.00  0.00    +0.000 C 
ATOM     13  C   UNL     1       5.879   4.449  18.957  0.00  0.00    +0.000 C 
ENDROOT
BRANCH   1  17
ATOM     14  C   UNL     1       1.047   9.445  20.478  0.00  0.00    +0.000 A 
ATOM     15  C   UNL     1       1.191   8.328  21.290  0.00  0.00    +0.000 A 
ATOM     16  C   UNL     1       1.772   7.134  20.759  0.00  0.00    +0.000 A 
ATOM     17  C   UNL     1       2.240   6.989  19.407  0.00  0.00    +0.000 A 
ATOM     18  C   UNL     1       2.111   8.137  18.624  0.00  0.00    +0.000 A 
ATOM     19  C   UNL     1       1.491   9.336  19.146  0.00  0.00    +0.000 A 
BRANCH  14  21
ATOM     20  C   UNL     1      -0.973  11.409  19.713  0.00  0.00    +0.000 C 
ATOM     21  S   UNL     1       0.073  10.871  21.041  0.00  0.00    +0.000 S 
ATOM     22  O   UNL     1       1.002  11.956  21.305  0.00  0.00    +0.000 OA
ATOM     23  O   UNL     1      -0.802  10.393  22.096  0.00  0.00    +0.000 OA
ENDBRANCH  14  21
ENDBRANCH   1  17
BRANCH   3  24
ATOM     24  C   UNL     1       3.846   2.600  20.570  0.00  0.00    +0.000 C 
ATOM     25  N   UNL     1       4.793   1.744  20.099  0.00  0.00    +0.000 N 
ATOM     26  O   UNL     1       3.251   2.333  21.615  0.00  0.00    +0.000 OA
ATOM     27  H   UNL     1       5.203   1.867  19.188  0.00  0.00    +0.000 HD
ATOM     28  H   UNL     1       4.932   0.891  20.623  0.00  0.00    +0.000 HD
ENDBRANCH   3  24
BRANCH   8  29
ATOM     29  N   UNL     1       6.143   3.556  13.495  0.00  0.00    +0.000 N 
ATOM     30  C   UNL     1       5.376   3.270  12.365  0.00  0.00    +0.000 C 
ATOM     31  O   UNL     1       4.288   3.835  12.196  0.00  0.00    +0.000 OA
ATOM     32  H   UNL     1       7.045   3.102  13.516  0.00  0.00    +0.000 HD
BRANCH  30  33
ATOM     33  C   UNL     1       5.903   2.215  11.279  0.00  0.00    +0.000 C 
ATOM     34  C   UNL     1       7.466   2.049  11.254  0.00  0.00    +0.000 C 
ATOM     35  C   UNL     1       7.294   0.625  10.716  0.00  0.00    +0.000 C 
ATOM     36  C   UNL     1       5.853   0.653  11.289  0.00  0.00    +0.000 C 
ENDBRANCH  30  33
ENDBRANCH   8  29
TORSDOF 5
ENDMDL
MODEL 2
REMARK VINA RESULT:      -8.6      0.474      1.001
REMARK  Name = 
REMARK  6 active torsions:
REMARK  status: ('A' for Active; 'I' for Inactive)
REMARK    1  A    between atoms: C_1  and  S_2
REMARK    2  A    between atoms: S_2  and  C_5
REMARK    3  A    between atoms: C_8  and  N_9
REMARK    4  A    between atoms: C_11  and  C_12
REMARK    5  A    between atoms: C_19  and  N_20
REMARK    6  A    between atoms: C_21  and  C_23
REMARK                            x       y       z     vdW  Elec       q    Type
REMARK                         _______ _______ _______ _____ _____    ______ ____
ROOT
ATOM      1  N   UNL     1       2.697   5.621  18.901  0.00  0.00    +0.000 N 
ATOM      2  N   UNL     1       2.409   4.553  19.797  0.00  0.00    +0.000 NA
ATOM      3  C   UNL     1       3.497   3.767  19.735  0.00  0.00    +0.000 A 
ATOM      4  C   UNL     1       4.355   4.343  18.816  0.00  0.00    +0.000 A 
ATOM      5  C   UNL     1       3.595   5.068  17.855  0.00  0.00    +0.000 A 
ATOM      6  C   UNL     1       4.523   5.396  16.612  0.00  0.00    +0.000 A 
ATOM      7  C   UNL     1       4.590   4.572  15.390  0.00  0.00    +0.000 A 
ATOM      8  C   UNL     1       5.812   4.362  14.606  0.00  0.00    +0.000 A 
ATOM      9  C   UNL     1       6.948   5.063  15.035  0.00  0.00    +0.000 A 
ATOM     10  C   UNL     1       6.937   5.865  16.162  0.00  0.00    +0.000 A 
ATOM     11  C   UNL     1       5.793   5.935  16.992  0.00  0.00    +0.000 A 
ATOM     12  C   UNL     1       6.107   5.962  18.483  0.00  0.00    +0.000 C 
ATOM     13  C   UNL     1       5.839   4.493  18.920  0.00  0.00    +0.000 C 
ENDROOT
BRANCH   1  17
ATOM     14  C   UNL     1       1.159   9.637  19.924  0.00  0.00    +0.000 A 
ATOM     15  C   UNL     1       1.575   9.318  18.638  0.00  0.00    +0.000 A 
ATOM     16  C   UNL     1       2.047   8.001  18.350  0.00  0.00    +0.000 A 
ATOM     17  C   UNL     1       2.128   6.936  19.314  0.00  0.00    +0.000 A 
ATOM     18  C   UNL     1       1.673   7.276  20.589  0.00  0.00    +0.000 A 
ATOM     19  C   UNL     1       1.228   8.619  20.895  0.00  0.00    +0.000 A 
BRANCH  14  21
ATOM     20  C   UNL     1      -0.872  11.733  19.977  0.00  0.00    +0.000 C 
ATOM     21  S   UNL     1       0.816  11.362  20.378  0.00  0.00    +0.000 S 
ATOM     22  O   UNL     1       1.640  12.206  19.531  0.00  0.00    +0.000 OA
ATOM     23  O   UNL     1       0.933  11.448  21.822  0.00  0.00    +0.000 OA
ENDBRANCH  14  21
ENDBRANCH   1  17
BRANCH   3  24
ATOM     24  C   UNL     1       3.867   2.631  20.593  0.00  0.00    +0.000 C 
ATOM     25  N   UNL     1       4.832   1.786  20.138  0.00  0.00    +0.000 N 
ATOM     26  O   UNL     1       3.289   2.380  21.650  0.00  0.00    +0.000 OA
ATOM     27  H   UNL     1       5.230   1.892  19.220  0.00  0.00    +0.000 HD
ATOM     28  H   UNL     1       4.997   0.953  20.686  0.00  0.00    +0.000 HD
ENDBRANCH   3  24
BRANCH   8  29
ATOM     29  N   UNL     1       6.112   3.456  13.484  0.00  0.00    +0.000 N 
ATOM     30  C   UNL     1       5.408   3.210  12.304  0.00  0.00    +0.000 C 
ATOM     31  O   UNL     1       4.371   3.841  12.060  0.00  0.00    +0.000 OA
ATOM     32  H   UNL     1       6.980   2.947  13.568  0.00  0.00    +0.000 HD
BRANCH  30  33
ATOM     33  C   UNL     1       5.942   2.117  11.260  0.00  0.00    +0.000 C 
ATOM     34  C   UNL     1       7.506   1.966  11.236  0.00  0.00    +0.000 C 
ATOM     35  C   UNL     1       7.347   0.519  10.757  0.00  0.00    +0.000 C 
ATOM     36  C   UNL     1       5.907   0.556  11.334  0.00  0.00    +0.000 C 
ENDBRANCH  30  33
ENDBRANCH   8  29
TORSDOF 5
ENDMDL
MODEL 3
REMARK VINA RESULT:      -8.2      4.653      8.854
REMARK  Name = 
REMARK  6 active torsions:
REMARK  status: ('A' for Active; 'I' for Inactive)
REMARK    1  A    between atoms: C_1  and  S_2
REMARK    2  A    between atoms: S_2  and  C_5
REMARK    3  A    between atoms: C_8  and  N_9
REMARK    4  A    between atoms: C_11  and  C_12
REMARK    5  A    between atoms: C_19  and  N_20
REMARK    6  A    between atoms: C_21  and  C_23
REMARK                            x       y       z     vdW  Elec       q    Type
REMARK                         _______ _______ _______ _____ _____    ______ ____
ROOT
ATOM      1  N   UNL     1      -1.120  12.407  22.008  0.00  0.00    +0.000 N 
ATOM      2  N   UNL     1      -0.324  13.452  22.560  0.00  0.00    +0.000 NA
ATOM      3  C   UNL     1       0.720  13.551  21.721  0.00  0.00    +0.000 A 
ATOM      4  C   UNL     1       0.548  12.581  20.750  0.00  0.00    +0.000 A 
ATOM      5  C   UNL     1      -0.187  11.493  21.300  0.00  0.00    +0.000 A 
ATOM      6  C   UNL     1      -0.053  10.245  20.331  0.00  0.00    +0.000 A 
ATOM      7  C   UNL     1       0.946   9.172  20.499  0.00  0.00    +0.000 A 
ATOM      8  C   UNL     1       1.594   8.472  19.385  0.00  0.00    +0.000 A 
ATOM      9  C   UNL     1       1.159   8.821  18.099  0.00  0.00    +0.000 A 
ATOM     10  C   UNL     1       0.211   9.806  17.885  0.00  0.00    +0.000 A 
ATOM     11  C   UNL     1      -0.292  10.575  18.960  0.00  0.00    +0.000 A 
ATOM     12  C   UNL     1      -0.476  12.054  18.635  0.00  0.00    +0.000 C 
ATOM     13  C   UNL     1       0.780  12.709  19.279  0.00  0.00    +0.000 C 
ENDROOT
BRANCH   1  17
ATOM     14  C   UNL     1      -5.445  12.806  22.824  0.00  0.00    +0.000 A 
ATOM     15  C   UNL     1      -4.515  12.689  23.849  0.00  0.00    +0.000 A 
ATOM     16  C   UNL     1      -3.124  12.581  23.537  0.00  0.00    +0.000 A 
ATOM     17  C   UNL     1      -2.586  12.588  22.202  0.00  0.00    +0.000 A 
ATOM     18  C   UNL     1      -3.542  12.738  21.196  0.00  0.00    +0.000 A 
ATOM     19  C   UNL     1      -4.954  12.811  21.504  0.00  0.00    +0.000 A 
BRANCH  14  21
ATOM     20  C   UNL     1      -7.707  14.035  24.199  0.00  0.00    +0.000 C 
ATOM     21  S   UNL     1      -7.222  12.670  23.176  0.00  0.00    +0.000 S 
ATOM     22  O   UNL     1      -7.417  11.467  23.968  0.00  0.00    +0.000 OA
ATOM     23  O   UNL     1      -7.915  12.826  21.911  0.00  0.00    +0.000 OA
ENDBRANCH  14  21
ENDBRANCH   1  17
BRANCH   3  24
ATOM     24  C   UNL     1       1.759  14.589  21.657  0.00  0.00    +0.000 C 
ATOM     25  N   UNL     1       1.480  15.718  20.950  0.00  0.00    +0.000 N 
ATOM     26  O   UNL     1       2.879  14.441  22.146  0.00  0.00    +0.000 OA
ATOM     27  H   UNL     1       0.622  15.812  20.432  0.00  0.00    +0.000 HD
ATOM     28  H   UNL     1       2.240  16.372  20.825  0.00  0.00    +0.000 HD
ENDBRANCH   3  24
BRANCH   8  29
ATOM     29  N   UNL     1       2.717   7.518  19.349  0.00  0.00    +0.000 N 
ATOM     30  C   UNL     1       2.730   6.129  19.481  0.00  0.00    +0.000 C 
ATOM     31  O   UNL     1       1.666   5.510  19.615  0.00  0.00    +0.000 OA
ATOM     32  H   UNL     1       3.622   7.932  19.176  0.00  0.00    +0.000 HD
BRANCH  30  33
ATOM     33  C   UNL     1       4.120   5.330  19.453  0.00  0.00    +0.000 C 
ATOM     34  C   UNL     1       4.123   4.084  18.493  0.00  0.00    +0.000 C 
ATOM     35  C   UNL     1       5.639   4.229  18.330  0.00  0.00    +0.000 C 
ATOM     36  C   UNL     1       5.481   5.705  18.782  0.00  0.00    +0.000 C 
ENDBRANCH  30  33
ENDBRANCH   8  29
TORSDOF 5
ENDMDL
MODEL 4
REMARK VINA RESULT:      -7.9      1.133      1.312
REMARK  Name = 
REMARK  6 active torsions:
REMARK  status: ('A' for Active; 'I' for Inactive)
REMARK    1  A    between atoms: C_1  and  S_2
REMARK    2  A    between atoms: S_2  and  C_5
REMARK    3  A    between atoms: C_8  and  N_9
REMARK    4  A    between atoms: C_11  and  C_12
REMARK    5  A    between atoms: C_19  and  N_20
REMARK    6  A    between atoms: C_21  and  C_23
REMARK                            x       y       z     vdW  Elec       q    Type
REMARK                         _______ _______ _______ _____ _____    ______ ____
ROOT
ATOM      1  N   UNL     1       2.185   6.011  18.906  0.00  0.00    +0.000 N 
ATOM      2  N   UNL     1       1.329   4.972  19.369  0.00  0.00    +0.000 NA
ATOM      3  C   UNL     1       2.130   3.898  19.459  0.00  0.00    +0.000 A 
ATOM      4  C   UNL     1       3.384   4.296  19.031  0.00  0.00    +0.000 A 
ATOM      5  C   UNL     1       3.243   5.358  18.093  0.00  0.00    +0.000 A 
ATOM      6  C   UNL     1       4.619   5.550  17.329  0.00  0.00    +0.000 A 
ATOM      7  C   UNL     1       4.933   4.934  16.025  0.00  0.00    +0.000 A 
ATOM      8  C   UNL     1       6.267   4.461  15.640  0.00  0.00    +0.000 A 
ATOM      9  C   UNL     1       7.295   4.692  16.565  0.00  0.00    +0.000 A 
ATOM     10  C   UNL     1       7.061   5.282  17.794  0.00  0.00    +0.000 A 
ATOM     11  C   UNL     1       5.745   5.593  18.211  0.00  0.00    +0.000 A 
ATOM     12  C   UNL     1       5.473   5.302  19.682  0.00  0.00    +0.000 C 
ATOM     13  C   UNL     1       4.707   3.948  19.631  0.00  0.00    +0.000 C 
ENDROOT
BRANCH   1  17
ATOM     14  C   UNL     1       1.041   9.898  20.673  0.00  0.00    +0.000 A 
ATOM     15  C   UNL     1       1.158   8.749  21.445  0.00  0.00    +0.000 A 
ATOM     16  C   UNL     1       1.549   7.518  20.832  0.00  0.00    +0.000 A 
ATOM     17  C   UNL     1       1.846   7.364  19.433  0.00  0.00    +0.000 A 
ATOM     18  C   UNL     1       1.751   8.542  18.689  0.00  0.00    +0.000 A 
ATOM     19  C   UNL     1       1.321   9.782  19.298  0.00  0.00    +0.000 A 
BRANCH  14  21
ATOM     20  C   UNL     1      -1.185  11.773  20.453  0.00  0.00    +0.000 C 
ATOM     21  S   UNL     1       0.288  11.398  21.367  0.00  0.00    +0.000 S 
ATOM     22  O   UNL     1       1.212  12.495  21.136  0.00  0.00    +0.000 OA
ATOM     23  O   UNL     1      -0.128  11.073  22.719  0.00  0.00    +0.000 OA
ENDBRANCH  14  21
ENDBRANCH   1  17
BRANCH   3  24
ATOM     24  C   UNL     1       1.859   2.592  20.077  0.00  0.00    +0.000 C 
ATOM     25  N   UNL     1       1.808   1.505  19.259  0.00  0.00    +0.000 N 
ATOM     26  O   UNL     1       1.603   2.462  21.274  0.00  0.00    +0.000 OA
ATOM     27  H   UNL     1       1.885   1.599  18.259  0.00  0.00    +0.000 HD
ATOM     28  H   UNL     1       1.514   0.636  19.681  0.00  0.00    +0.000 HD
ENDBRANCH   3  24
BRANCH   8  29
ATOM     29  N   UNL     1       6.732   3.680  14.481  0.00  0.00    +0.000 N 
ATOM     30  C   UNL     1       6.141   3.469  13.234  0.00  0.00    +0.000 C 
ATOM     31  O   UNL     1       5.069   4.022  12.956  0.00  0.00    +0.000 OA
ATOM     32  H   UNL     1       7.637   3.245  14.595  0.00  0.00    +0.000 HD
BRANCH  30  33
ATOM     33  C   UNL     1       6.850   2.517  12.156  0.00  0.00    +0.000 C 
ATOM     34  C   UNL     1       5.861   1.556  11.402  0.00  0.00    +0.000 C 
ATOM     35  C   UNL     1       6.820   1.526  10.208  0.00  0.00    +0.000 C 
ATOM     36  C   UNL     1       7.421   2.853  10.741  0.00  0.00    +0.000 C 
ENDBRANCH  30  33
ENDBRANCH   8  29
TORSDOF 5
ENDMDL
MODEL 5
REMARK VINA RESULT:      -7.9      5.148     11.774
REMARK  Name = 
REMARK  6 active torsions:
REMARK  status: ('A' for Active; 'I' for Inactive)
REMARK    1  A    between atoms: C_1  and  S_2
REMARK    2  A    between atoms: S_2  and  C_5
REMARK    3  A    between atoms: C_8  and  N_9
REMARK    4  A    between atoms: C_11  and  C_12
REMARK    5  A    between atoms: C_19  and  N_20
REMARK    6  A    between atoms: C_21  and  C_23
REMARK                            x       y       z     vdW  Elec       q    Type
REMARK                         _______ _______ _______ _____ _____    ______ ____
ROOT
ATOM      1  N   UNL     1       1.199  10.478  18.640  0.00  0.00    +0.000 N 
ATOM      2  N   UNL     1       2.109  11.331  17.952  0.00  0.00    +0.000 NA
ATOM      3  C   UNL     1       1.844  12.556  18.435  0.00  0.00    +0.000 A 
ATOM      4  C   UNL     1       0.804  12.416  19.335  0.00  0.00    +0.000 A 
ATOM      5  C   UNL     1       0.003  11.301  18.957  0.00  0.00    +0.000 A 
ATOM      6  C   UNL     1      -1.373  11.372  19.740  0.00  0.00    +0.000 A 
ATOM      7  C   UNL     1      -2.606  11.972  19.194  0.00  0.00    +0.000 A 
ATOM      8  C   UNL     1      -3.592  12.700  19.998  0.00  0.00    +0.000 A 
ATOM      9  C   UNL     1      -3.350  12.746  21.378  0.00  0.00    +0.000 A 
ATOM     10  C   UNL     1      -2.221  12.184  21.947  0.00  0.00    +0.000 A 
ATOM     11  C   UNL     1      -1.206  11.619  21.140  0.00  0.00    +0.000 A 
ATOM     12  C   UNL     1       0.210  11.921  21.617  0.00  0.00    +0.000 C 
ATOM     13  C   UNL     1       0.655  13.073  20.670  0.00  0.00    +0.000 C 
ENDROOT
BRANCH   1  17
ATOM     14  C   UNL     1       2.779   6.388  19.195  0.00  0.00    +0.000 A 
ATOM     15  C   UNL     1       3.023   7.116  18.038  0.00  0.00    +0.000 A 
ATOM     16  C   UNL     1       2.506   8.443  17.911  0.00  0.00    +0.000 A 
ATOM     17  C   UNL     1       1.731   9.114  18.920  0.00  0.00    +0.000 A 
ATOM     18  C   UNL     1       1.529   8.370  20.083  0.00  0.00    +0.000 A 
ATOM     19  C   UNL     1       2.019   7.013  20.202  0.00  0.00    +0.000 A 
BRANCH  14  21
ATOM     20  C   UNL     1       4.946   4.432  19.164  0.00  0.00    +0.000 C 
ATOM     21  S   UNL     1       3.184   4.619  19.270  0.00  0.00    +0.000 S 
ATOM     22  O   UNL     1       2.627   3.994  18.083  0.00  0.00    +0.000 OA
ATOM     23  O   UNL     1       2.792   4.153  20.587  0.00  0.00    +0.000 OA
ENDBRANCH  14  21
ENDBRANCH   1  17
BRANCH   3  24
ATOM     24  C   UNL     1       2.602  13.803  18.256  0.00  0.00    +0.000 C 
ATOM     25  N   UNL     1       3.930  13.700  17.976  0.00  0.00    +0.000 N 
ATOM     26  O   UNL     1       2.102  14.916  18.425  0.00  0.00    +0.000 OA
ATOM     27  H   UNL     1       4.393  12.806  17.960  0.00  0.00    +0.000 HD
ATOM     28  H   UNL     1       4.457  14.562  17.963  0.00  0.00    +0.000 HD
ENDBRANCH   3  24
BRANCH   8  29
ATOM     29  N   UNL     1      -4.768  13.502  19.617  0.00  0.00    +0.000 N 
ATOM     30  C   UNL     1      -5.987  13.114  19.059  0.00  0.00    +0.000 C 
ATOM     31  O   UNL     1      -6.220  11.915  18.855  0.00  0.00    +0.000 OA
ATOM     32  H   UNL     1      -4.691  14.490  19.811  0.00  0.00    +0.000 HD
BRANCH  30  33
ATOM     33  C   UNL     1      -7.091  14.216  18.689  0.00  0.00    +0.000 C 
ATOM     34  C   UNL     1      -6.584  15.698  18.817  0.00  0.00    +0.000 C 
ATOM     35  C   UNL     1      -7.609  16.128  17.763  0.00  0.00    +0.000 C 
ATOM     36  C   UNL     1      -7.649  14.649  17.294  0.00  0.00    +0.000 C 
ENDBRANCH  30  33
ENDBRANCH   8  29
TORSDOF 5
ENDMDL
MODEL 6
REMARK VINA RESULT:      -7.8      1.119      1.284
REMARK  Name = 
REMARK  6 active torsions:
REMARK  status: ('A' for Active; 'I' for Inactive)
REMARK    1  A    between atoms: C_1  and  S_2
REMARK    2  A    between atoms: S_2  and  C_5
REMARK    3  A    between atoms: C_8  and  N_9
REMARK    4  A    between atoms: C_11  and  C_12
REMARK    5  A    between atoms: C_19  and  N_20
REMARK    6  A    between atoms: C_21  and  C_23
REMARK                            x       y       z     vdW  Elec       q    Type
REMARK                         _______ _______ _______ _____ _____    ______ ____
ROOT
ATOM      1  N   UNL     1       2.441   6.210  19.075  0.00  0.00    +0.000 N 
ATOM      2  N   UNL     1       1.875   5.187  19.890  0.00  0.00    +0.000 NA
ATOM      3  C   UNL     1       2.860   4.283  20.017  0.00  0.00    +0.000 A 
ATOM      4  C   UNL     1       3.931   4.750  19.278  0.00  0.00    +0.000 A 
ATOM      5  C   UNL     1       3.447   5.550  18.204  0.00  0.00    +0.000 A 
ATOM      6  C   UNL     1       4.618   5.761  17.156  0.00  0.00    +0.000 A 
ATOM      7  C   UNL     1       4.814   4.924  15.956  0.00  0.00    +0.000 A 
ATOM      8  C   UNL     1       6.127   4.571  15.406  0.00  0.00    +0.000 A 
ATOM      9  C   UNL     1       7.237   5.141  16.045  0.00  0.00    +0.000 A 
ATOM     10  C   UNL     1       7.111   5.948  17.162  0.00  0.00    +0.000 A 
ATOM     11  C   UNL     1       5.850   6.155  17.768  0.00  0.00    +0.000 A 
ATOM     12  C   UNL     1       5.886   6.158  19.292  0.00  0.00    +0.000 C 
ATOM     13  C   UNL     1       5.378   4.732  19.654  0.00  0.00    +0.000 C 
ENDROOT
BRANCH   1  17
ATOM     14  C   UNL     1       0.867  10.174  20.232  0.00  0.00    +0.000 A 
ATOM     15  C   UNL     1       1.023   9.150  21.157  0.00  0.00    +0.000 A 
ATOM     16  C   UNL     1       1.553   7.891  20.740  0.00  0.00    +0.000 A 
ATOM     17  C   UNL     1       1.958   7.583  19.394  0.00  0.00    +0.000 A 
ATOM     18  C   UNL     1       1.820   8.642  18.494  0.00  0.00    +0.000 A 
ATOM     19  C   UNL     1       1.249   9.907  18.903  0.00  0.00    +0.000 A 
BRANCH  14  21
ATOM     20  C   UNL     1       0.744  13.074  19.919  0.00  0.00    +0.000 C 
ATOM     21  S   UNL     1      -0.051  11.679  20.672  0.00  0.00    +0.000 S 
ATOM     22  O   UNL     1       0.070  11.857  22.109  0.00  0.00    +0.000 OA
ATOM     23  O   UNL     1      -1.364  11.565  20.064  0.00  0.00    +0.000 OA
ENDBRANCH  14  21
ENDBRANCH   1  17
BRANCH   3  24
ATOM     24  C   UNL     1       2.935   3.119  20.913  0.00  0.00    +0.000 C 
ATOM     25  N   UNL     1       2.174   3.142  22.041  0.00  0.00    +0.000 N 
ATOM     26  O   UNL     1       3.708   2.181  20.720  0.00  0.00    +0.000 OA
ATOM     27  H   UNL     1       1.632   3.952  22.290  0.00  0.00    +0.000 HD
ATOM     28  H   UNL     1       2.319   2.388  22.698  0.00  0.00    +0.000 HD
ENDBRANCH   3  24
BRANCH   8  29
ATOM     29  N   UNL     1       6.523   3.628  14.346  0.00  0.00    +0.000 N 
ATOM     30  C   UNL     1       5.912   3.324  13.129  0.00  0.00    +0.000 C 
ATOM     31  O   UNL     1       4.887   3.926  12.784  0.00  0.00    +0.000 OA
ATOM     32  H   UNL     1       7.391   3.138  14.514  0.00  0.00    +0.000 HD
BRANCH  30  33
ATOM     33  C   UNL     1       6.538   2.201  12.170  0.00  0.00    +0.000 C 
ATOM     34  C   UNL     1       5.521   1.607  11.130  0.00  0.00    +0.000 C 
ATOM     35  C   UNL     1       6.687   1.281  10.193  0.00  0.00    +0.000 C 
ATOM     36  C   UNL     1       7.515   2.347  10.958  0.00  0.00    +0.000 C 
ENDBRANCH  30  33
ENDBRANCH   8  29
TORSDOF 5
ENDMDL
MODEL 7
REMARK VINA RESULT:      -7.8      4.463      8.703
REMARK  Name = 
REMARK  6 active torsions:
REMARK  status: ('A' for Active; 'I' for Inactive)
REMARK    1  A    between atoms: C_1  and  S_2
REMARK    2  A    between atoms: S_2  and  C_5
REMARK    3  A    between atoms: C_8  and  N_9
REMARK    4  A    between atoms: C_11  and  C_12
REMARK    5  A    between atoms: C_19  and  N_20
REMARK    6  A    between atoms: C_21  and  C_23
REMARK                            x       y       z     vdW  Elec       q    Type
REMARK                         _______ _______ _______ _____ _____    ______ ____
ROOT
ATOM      1  N   UNL     1      -0.676  12.552  21.939  0.00  0.00    +0.000 N 
ATOM      2  N   UNL     1       0.207  13.586  22.363  0.00  0.00    +0.000 NA
ATOM      3  C   UNL     1       1.162  13.613  21.418  0.00  0.00    +0.000 A 
ATOM      4  C   UNL     1       0.859  12.613  20.512  0.00  0.00    +0.000 A 
ATOM      5  C   UNL     1       0.148  11.576  21.180  0.00  0.00    +0.000 A 
ATOM      6  C   UNL     1       0.139  10.287  20.256  0.00  0.00    +0.000 A 
ATOM      7  C   UNL     1       1.113   9.184  20.367  0.00  0.00    +0.000 A 
ATOM      8  C   UNL     1       1.619   8.418  19.224  0.00  0.00    +0.000 A 
ATOM      9  C   UNL     1       1.066   8.733  17.975  0.00  0.00    +0.000 A 
ATOM     10  C   UNL     1       0.135   9.745  17.816  0.00  0.00    +0.000 A 
ATOM     11  C   UNL     1      -0.228  10.573  18.903  0.00  0.00    +0.000 A 
ATOM     12  C   UNL     1      -0.395  12.044  18.536  0.00  0.00    +0.000 C 
ATOM     13  C   UNL     1       0.942  12.675  19.021  0.00  0.00    +0.000 C 
ENDROOT
BRANCH   1  17
ATOM     14  C   UNL     1      -4.909  13.058  23.105  0.00  0.00    +0.000 A 
ATOM     15  C   UNL     1      -3.976  12.489  23.963  0.00  0.00    +0.000 A 
ATOM     16  C   UNL     1      -2.614  12.362  23.549  0.00  0.00    +0.000 A 
ATOM     17  C   UNL     1      -2.108  12.795  22.274  0.00  0.00    +0.000 A 
ATOM     18  C   UNL     1      -3.061  13.391  21.446  0.00  0.00    +0.000 A 
ATOM     19  C   UNL     1      -4.448  13.488  21.846  0.00  0.00    +0.000 A 
BRANCH  14  21
ATOM     20  C   UNL     1      -7.591  12.811  21.980  0.00  0.00    +0.000 C 
ATOM     21  S   UNL     1      -6.681  12.981  23.493  0.00  0.00    +0.000 S 
ATOM     22  O   UNL     1      -7.058  14.264  24.063  0.00  0.00    +0.000 OA
ATOM     23  O   UNL     1      -6.894  11.761  24.250  0.00  0.00    +0.000 OA
ENDBRANCH  14  21
ENDBRANCH   1  17
BRANCH   3  24
ATOM     24  C   UNL     1       2.223  14.608  21.206  0.00  0.00    +0.000 C 
ATOM     25  N   UNL     1       3.482  14.284  21.609  0.00  0.00    +0.000 N 
ATOM     26  O   UNL     1       2.001  15.733  20.757  0.00  0.00    +0.000 OA
ATOM     27  H   UNL     1       3.670  13.424  22.098  0.00  0.00    +0.000 HD
ATOM     28  H   UNL     1       4.176  15.017  21.557  0.00  0.00    +0.000 HD
ENDBRANCH   3  24
BRANCH   8  29
ATOM     29  N   UNL     1       2.699   7.421  19.113  0.00  0.00    +0.000 N 
ATOM     30  C   UNL     1       2.787   6.121  19.612  0.00  0.00    +0.000 C 
ATOM     31  O   UNL     1       1.831   5.628  20.224  0.00  0.00    +0.000 OA
ATOM     32  H   UNL     1       3.497   7.716  18.569  0.00  0.00    +0.000 HD
BRANCH  30  33
ATOM     33  C   UNL     1       4.120   5.259  19.386  0.00  0.00    +0.000 C 
ATOM     34  C   UNL     1       4.135   4.443  18.043  0.00  0.00    +0.000 C 
ATOM     35  C   UNL     1       5.665   4.495  18.042  0.00  0.00    +0.000 C 
ATOM     36  C   UNL     1       5.559   5.721  18.987  0.00  0.00    +0.000 C 
ENDBRANCH  30  33
ENDBRANCH   8  29
TORSDOF 5
ENDMDL
MODEL 8
REMARK VINA RESULT:      -7.8      4.374      8.031
REMARK  Name = 
REMARK  6 active torsions:
REMARK  status: ('A' for Active; 'I' for Inactive)
REMARK    1  A    between atoms: C_1  and  S_2
REMARK    2  A    between atoms: S_2  and  C_5
REMARK    3  A    between atoms: C_8  and  N_9
REMARK    4  A    between atoms: C_11  and  C_12
REMARK    5  A    between atoms: C_19  and  N_20
REMARK    6  A    between atoms: C_21  and  C_23
REMARK                            x       y       z     vdW  Elec       q    Type
REMARK                         _______ _______ _______ _____ _____    ______ ____
ROOT
ATOM      1  N   UNL     1       0.213  12.527  18.526  0.00  0.00    +0.000 N 
ATOM      2  N   UNL     1      -0.997  12.648  17.784  0.00  0.00    +0.000 NA
ATOM      3  C   UNL     1      -1.679  11.529  18.080  0.00  0.00    +0.000 A 
ATOM      4  C   UNL     1      -0.878  10.783  18.926  0.00  0.00    +0.000 A 
ATOM      5  C   UNL     1       0.489  11.074  18.655  0.00  0.00    +0.000 A 
ATOM      6  C   UNL     1       1.391   9.963  19.337  0.00  0.00    +0.000 A 
ATOM      7  C   UNL     1       1.892   8.762  18.640  0.00  0.00    +0.000 A 
ATOM      8  C   UNL     1       2.057   7.451  19.278  0.00  0.00    +0.000 A 
ATOM      9  C   UNL     1       1.780   7.393  20.651  0.00  0.00    +0.000 A 
ATOM     10  C   UNL     1       1.327   8.493  21.358  0.00  0.00    +0.000 A 
ATOM     11  C   UNL     1       1.029   9.708  20.698  0.00  0.00    +0.000 A 
ATOM     12  C   UNL     1      -0.225  10.405  21.213  0.00  0.00    +0.000 C 
ATOM     13  C   UNL     1      -1.294  10.028  20.147  0.00  0.00    +0.000 C 
ENDROOT
BRANCH   1  17
ATOM     14  C   UNL     1       1.961  16.230  20.191  0.00  0.00    +0.000 A 
ATOM     15  C   UNL     1       2.578  14.995  20.347  0.00  0.00    +0.000 A 
ATOM     16  C   UNL     1       1.984  13.828  19.775  0.00  0.00    +0.000 A 
ATOM     17  C   UNL     1       0.760  13.824  19.020  0.00  0.00    +0.000 A 
ATOM     18  C   UNL     1       0.181  15.083  18.852  0.00  0.00    +0.000 A 
ATOM     19  C   UNL     1       0.758  16.262  19.460  0.00  0.00    +0.000 A 
BRANCH  14  21
ATOM     20  C   UNL     1       3.513  17.106  22.503  0.00  0.00    +0.000 C 
ATOM     21  S   UNL     1       2.542  17.672  21.130  0.00  0.00    +0.000 S 
ATOM     22  O   UNL     1       1.372  18.327  21.690  0.00  0.00    +0.000 OA
ATOM     23  O   UNL     1       3.438  18.409  20.258  0.00  0.00    +0.000 OA
ENDBRANCH  14  21
ENDBRANCH   1  17
BRANCH   3  24
ATOM     24  C   UNL     1      -3.078  11.193  17.778  0.00  0.00    +0.000 C 
ATOM     25  N   UNL     1      -4.030  12.109  18.104  0.00  0.00    +0.000 N 
ATOM     26  O   UNL     1      -3.417  10.101  17.322  0.00  0.00    +0.000 OA
ATOM     27  H   UNL     1      -3.796  12.955  18.596  0.00  0.00    +0.000 HD
ATOM     28  H   UNL     1      -4.992  11.820  17.992  0.00  0.00    +0.000 HD
ENDBRANCH   3  24
BRANCH   8  29
ATOM     29  N   UNL     1       2.369   6.123  18.720  0.00  0.00    +0.000 N 
ATOM     30  C   UNL     1       3.542   5.636  18.142  0.00  0.00    +0.000 C 
ATOM     31  O   UNL     1       4.547   6.355  18.083  0.00  0.00    +0.000 OA
ATOM     32  H   UNL     1       1.622   5.447  18.788  0.00  0.00    +0.000 HD
BRANCH  30  33
ATOM     33  C   UNL     1       3.594   4.143  17.561  0.00  0.00    +0.000 C 
ATOM     34  C   UNL     1       4.247   3.098  18.538  0.00  0.00    +0.000 C 
ATOM     35  C   UNL     1       3.419   1.987  17.884  0.00  0.00    +0.000 C 
ATOM     36  C   UNL     1       2.449   3.092  17.388  0.00  0.00    +0.000 C 
ENDBRANCH  30  33
ENDBRANCH   8  29
TORSDOF 5
ENDMDL
MODEL 9
REMARK VINA RESULT:      -7.8      4.350      7.879
REMARK  Name = 
REMARK  6 active torsions:
REMARK  status: ('A' for Active; 'I' for Inactive)
REMARK    1  A    between atoms: C_1  and  S_2
REMARK    2  A    between atoms: S_2  and  C_5
REMARK    3  A    between atoms: C_8  and  N_9
REMARK    4  A    between atoms: C_11  and  C_12
REMARK    5  A    between atoms: C_19  and  N_20
REMARK    6  A    between atoms: C_21  and  C_23
REMARK                            x       y       z     vdW  Elec       q    Type
REMARK                         _______ _______ _______ _____ _____    ______ ____
ROOT
ATOM      1  N   UNL     1       0.245  12.124  18.399  0.00  0.00    +0.000 N 
ATOM      2  N   UNL     1      -0.974  12.209  17.667  0.00  0.00    +0.000 NA
ATOM      3  C   UNL     1      -1.649  11.101  18.017  0.00  0.00    +0.000 A 
ATOM      4  C   UNL     1      -0.836  10.394  18.885  0.00  0.00    +0.000 A 
ATOM      5  C   UNL     1       0.526  10.677  18.586  0.00  0.00    +0.000 A 
ATOM      6  C   UNL     1       1.441   9.599  19.304  0.00  0.00    +0.000 A 
ATOM      7  C   UNL     1       1.938   8.371  18.652  0.00  0.00    +0.000 A 
ATOM      8  C   UNL     1       2.114   7.089  19.342  0.00  0.00    +0.000 A 
ATOM      9  C   UNL     1       1.853   7.088  20.720  0.00  0.00    +0.000 A 
ATOM     10  C   UNL     1       1.404   8.215  21.385  0.00  0.00    +0.000 A 
ATOM     11  C   UNL     1       1.094   9.400  20.678  0.00  0.00    +0.000 A 
ATOM     12  C   UNL     1      -0.156  10.115  21.178  0.00  0.00    +0.000 C 
ATOM     13  C   UNL     1      -1.236   9.690  20.141  0.00  0.00    +0.000 C 
ENDROOT
BRANCH   1  17
ATOM     14  C   UNL     1       1.616  16.137  19.642  0.00  0.00    +0.000 A 
ATOM     15  C   UNL     1       0.295  15.735  19.796  0.00  0.00    +0.000 A 
ATOM     16  C   UNL     1      -0.098  14.420  19.396  0.00  0.00    +0.000 A 
ATOM     17  C   UNL     1       0.792  13.441  18.831  0.00  0.00    +0.000 A 
ATOM     18  C   UNL     1       2.118  13.863  18.719  0.00  0.00    +0.000 A 
ATOM     19  C   UNL     1       2.514  15.205  19.088  0.00  0.00    +0.000 A 
BRANCH  14  21
ATOM     20  C   UNL     1       1.270  18.487  21.340  0.00  0.00    +0.000 C 
ATOM     21  S   UNL     1       2.080  17.876  19.884  0.00  0.00    +0.000 S 
ATOM     22  O   UNL     1       1.544  18.630  18.763  0.00  0.00    +0.000 OA
ATOM     23  O   UNL     1       3.506  17.898  20.157  0.00  0.00    +0.000 OA
ENDBRANCH  14  21
ENDBRANCH   1  17
BRANCH   3  24
ATOM     24  C   UNL     1      -3.050  10.749  17.746  0.00  0.00    +0.000 C 
ATOM     25  N   UNL     1      -3.986  11.726  17.896  0.00  0.00    +0.000 N 
ATOM     26  O   UNL     1      -3.407   9.603  17.470  0.00  0.00    +0.000 OA
ATOM     27  H   UNL     1      -3.740  12.637  18.246  0.00  0.00    +0.000 HD
ATOM     28  H   UNL     1      -4.952  11.441  17.813  0.00  0.00    +0.000 HD
ENDBRANCH   3  24
BRANCH   8  29
ATOM     29  N   UNL     1       2.424   5.740  18.838  0.00  0.00    +0.000 N 
ATOM     30  C   UNL     1       3.613   5.213  18.330  0.00  0.00    +0.000 C 
ATOM     31  O   UNL     1       4.635   5.911  18.299  0.00  0.00    +0.000 OA
ATOM     32  H   UNL     1       1.661   5.080  18.888  0.00  0.00    +0.000 HD
BRANCH  30  33
ATOM     33  C   UNL     1       3.662   3.703  17.794  0.00  0.00    +0.000 C 
ATOM     34  C   UNL     1       4.196   2.666  18.848  0.00  0.00    +0.000 C 
ATOM     35  C   UNL     1       3.387   1.565  18.157  0.00  0.00    +0.000 C 
ATOM     36  C   UNL     1       2.500   2.685  17.554  0.00  0.00    +0.000 C 
ENDBRANCH  30  33
ENDBRANCH   8  29
TORSDOF 5
ENDMDL
