MODEL 1
REMARK VINA RESULT:      -7.9      0.000      0.000
REMARK  Name = 
REMARK  11 active torsions:
REMARK  status: ('A' for Active; 'I' for Inactive)
REMARK    1  A    between atoms: C_1  and  O_2
REMARK    2  A    between atoms: O_2  and  C_3
REMARK    3  A    between atoms: C_8  and  O_9
REMARK    4  A    between atoms: O_9  and  C_10
REMARK    5  A    between atoms: C_10  and  C_11
REMARK    6  A    between atoms: C_11  and  C_12
REMARK    7  A    between atoms: C_12  and  N_13
REMARK    8  A    between atoms: C_16  and  C_17
REMARK    9  A    between atoms: C_17  and  O_18
REMARK   10  A    between atoms: C_17  and  C_19
REMARK   11  A    between atoms: C_17  and  C_26
REMARK                            x       y       z     vdW  Elec       q    Type
REMARK                         _______ _______ _______ _____ _____    ______ ____
ROOT
ATOM      1  N   UNL     1       7.180   6.999  17.247  0.00  0.00    +0.000 NA
ATOM      2  C   UNL     1       6.900   5.595  17.576  0.00  0.00    +0.000 C 
ATOM      3  C   UNL     1       5.720   5.008  16.814  0.00  0.00    +0.000 C 
ATOM      4  C   UNL     1       4.437   5.839  16.973  0.00  0.00    +0.000 C 
ATOM      5  C   UNL     1       4.800   7.246  16.438  0.00  0.00    +0.000 C 
ATOM      6  C   UNL     1       6.022   7.881  17.105  0.00  0.00    +0.000 C 
ENDROOT
BRANCH   1   7
ATOM      7  C   UNL     1       8.165   7.577  18.187  0.00  0.00    +0.000 C 
BRANCH   7   8
ATOM      8  C   UNL     1       8.340   9.089  18.018  0.00  0.00    +0.000 C 
BRANCH   8   9
ATOM      9  C   UNL     1       9.034   9.655  19.250  0.00  0.00    +0.000 C 
BRANCH   9  10
ATOM     10  O   UNL     1      10.089  10.534  18.891  0.00  0.00    +0.000 OA
BRANCH  10  16
ATOM     11  C   UNL     1      10.946  12.841  19.396  0.00  0.00    +0.000 A 
ATOM     12  C   UNL     1      10.858  13.923  20.281  0.00  0.00    +0.000 A 
ATOM     13  C   UNL     1      10.112  13.827  21.457  0.00  0.00    +0.000 A 
ATOM     14  C   UNL     1       9.424  12.652  21.743  0.00  0.00    +0.000 A 
ATOM     15  C   UNL     1       9.459  11.591  20.841  0.00  0.00    +0.000 A 
ATOM     16  C   UNL     1      10.204  11.672  19.656  0.00  0.00    +0.000 A 
BRANCH  11  18
ATOM     17  C   UNL     1      10.951  13.303  17.070  0.00  0.00    +0.000 C 
ATOM     18  O   UNL     1      11.684  12.971  18.251  0.00  0.00    +0.000 OA
ENDBRANCH  11  18
ENDBRANCH  10  16
ENDBRANCH   9  10
ENDBRANCH   8   9
ENDBRANCH   7   8
ENDBRANCH   1   7
BRANCH   4  19
ATOM     19  C   UNL     1       3.793   5.816  18.418  0.00  0.00    +0.000 C 
BRANCH  19  20
ATOM     20  C   UNL     1       2.894   7.071  18.625  0.00  0.00    +0.000 A 
ATOM     21  C   UNL     1       2.329   7.359  19.887  0.00  0.00    +0.000 A 
ATOM     22  C   UNL     1       1.471   8.446  20.078  0.00  0.00    +0.000 A 
ATOM     23  C   UNL     1       1.132   9.247  19.002  0.00  0.00    +0.000 A 
ATOM     24  F   UNL     1       0.285  10.270  19.177  0.00  0.00    +0.000 F 
ATOM     25  C   UNL     1       1.661   9.001  17.746  0.00  0.00    +0.000 A 
ATOM     26  C   UNL     1       2.554   7.940  17.565  0.00  0.00    +0.000 A 
ENDBRANCH  19  20
BRANCH  19  27
ATOM     27  C   UNL     1       3.028   4.496  18.702  0.00  0.00    +0.000 A 
ATOM     28  C   UNL     1       3.500   3.578  19.671  0.00  0.00    +0.000 A 
ATOM     29  C   UNL     1       2.815   2.393  19.959  0.00  0.00    +0.000 A 
ATOM     30  C   UNL     1       1.637   2.109  19.290  0.00  0.00    +0.000 A 
ATOM     31  F   UNL     1       0.961   0.991  19.584  0.00  0.00    +0.000 F 
ATOM     32  C   UNL     1       1.154   2.968  18.315  0.00  0.00    +0.000 A 
ATOM     33  C   UNL     1       1.854   4.141  18.009  0.00  0.00    +0.000 A 
ENDBRANCH  19  27
BRANCH  19  34
ATOM     34  O   UNL     1       4.847   5.842  19.389  0.00  0.00    +0.000 OA
ATOM     35  H   UNL     1       5.692   5.778  18.931  0.00  0.00    +0.000 HD
ENDBRANCH  19  34
ENDBRANCH   4  19
TORSDOF 10
ENDMDL
MODEL 2
REMARK VINA RESULT:      -7.8      4.501      7.651
REMARK  Name = 
REMARK  11 active torsions:
REMARK  status: ('A' for Active; 'I' for Inactive)
REMARK    1  A    between atoms: C_1  and  O_2
REMARK    2  A    between atoms: O_2  and  C_3
REMARK    3  A    between atoms: C_8  and  O_9
REMARK    4  A    between atoms: O_9  and  C_10
REMARK    5  A    between atoms: C_10  and  C_11
REMARK    6  A    between atoms: C_11  and  C_12
REMARK    7  A    between atoms: C_12  and  N_13
REMARK    8  A    between atoms: C_16  and  C_17
REMARK    9  A    between atoms: C_17  and  O_18
REMARK   10  A    between atoms: C_17  and  C_19
REMARK   11  A    between atoms: C_17  and  C_26
REMARK                            x       y       z     vdW  Elec       q    Type
REMARK                         _______ _______ _______ _____ _____    ______ ____
ROOT
ATOM      1  N   UNL     1       2.789   4.253  19.228  0.00  0.00    +0.000 NA
ATOM      2  C   UNL     1       2.811   3.766  17.843  0.00  0.00    +0.000 C 
ATOM      3  C   UNL     1       4.101   3.051  17.463  0.00  0.00    +0.000 C 
ATOM      4  C   UNL     1       5.353   3.903  17.729  0.00  0.00    +0.000 C 
ATOM      5  C   UNL     1       5.314   4.211  19.247  0.00  0.00    +0.000 C 
ATOM      6  C   UNL     1       4.018   4.869  19.726  0.00  0.00    +0.000 C 
ENDROOT
BRANCH   1   7
ATOM      7  C   UNL     1       1.629   5.141  19.458  0.00  0.00    +0.000 C 
BRANCH   7   8
ATOM      8  C   UNL     1       1.775   6.006  20.714  0.00  0.00    +0.000 C 
BRANCH   8   9
ATOM      9  C   UNL     1       1.097   7.349  20.480  0.00  0.00    +0.000 C 
BRANCH   9  10
ATOM     10  O   UNL     1       1.648   8.359  21.314  0.00  0.00    +0.000 OA
BRANCH  10  16
ATOM     11  C   UNL     1       0.587  10.594  20.877  0.00  0.00    +0.000 A 
ATOM     12  C   UNL     1      -0.375  11.507  21.326  0.00  0.00    +0.000 A 
ATOM     13  C   UNL     1      -1.052  11.302  22.530  0.00  0.00    +0.000 A 
ATOM     14  C   UNL     1      -0.788  10.161  23.282  0.00  0.00    +0.000 A 
ATOM     15  C   UNL     1       0.126   9.218  22.816  0.00  0.00    +0.000 A 
ATOM     16  C   UNL     1       0.814   9.412  21.609  0.00  0.00    +0.000 A 
BRANCH  11  18
ATOM     17  C   UNL     1       0.540  10.398  18.514  0.00  0.00    +0.000 C 
ATOM     18  O   UNL     1       1.229  10.825  19.691  0.00  0.00    +0.000 OA
ENDBRANCH  11  18
ENDBRANCH  10  16
ENDBRANCH   9  10
ENDBRANCH   8   9
ENDBRANCH   7   8
ENDBRANCH   1   7
BRANCH   4  19
ATOM     19  C   UNL     1       5.522   5.166  16.791  0.00  0.00    +0.000 C 
BRANCH  19  20
ATOM     20  C   UNL     1       6.482   6.199  17.452  0.00  0.00    +0.000 A 
ATOM     21  C   UNL     1       6.436   7.565  17.093  0.00  0.00    +0.000 A 
ATOM     22  C   UNL     1       7.330   8.496  17.630  0.00  0.00    +0.000 A 
ATOM     23  C   UNL     1       8.311   8.075  18.510  0.00  0.00    +0.000 A 
ATOM     24  F   UNL     1       9.188   8.961  18.999  0.00  0.00    +0.000 F 
ATOM     25  C   UNL     1       8.395   6.746  18.888  0.00  0.00    +0.000 A 
ATOM     26  C   UNL     1       7.473   5.821  18.385  0.00  0.00    +0.000 A 
ENDBRANCH  19  20
BRANCH  19  27
ATOM     27  C   UNL     1       5.975   4.781  15.358  0.00  0.00    +0.000 A 
ATOM     28  C   UNL     1       5.087   4.133  14.466  0.00  0.00    +0.000 A 
ATOM     29  C   UNL     1       5.465   3.796  13.163  0.00  0.00    +0.000 A 
ATOM     30  C   UNL     1       6.740   4.111  12.723  0.00  0.00    +0.000 A 
ATOM     31  F   UNL     1       7.098   3.818  11.467  0.00  0.00    +0.000 F 
ATOM     32  C   UNL     1       7.650   4.720  13.573  0.00  0.00    +0.000 A 
ATOM     33  C   UNL     1       7.278   5.034  14.886  0.00  0.00    +0.000 A 
ENDBRANCH  19  27
BRANCH  19  34
ATOM     34  O   UNL     1       4.239   5.780  16.615  0.00  0.00    +0.000 OA
ATOM     35  H   UNL     1       4.193   6.568  17.167  0.00  0.00    +0.000 HD
ENDBRANCH  19  34
ENDBRANCH   4  19
TORSDOF 10
ENDMDL
MODEL 3
REMARK VINA RESULT:      -7.8      0.849      1.792
REMARK  Name = 
REMARK  11 active torsions:
REMARK  status: ('A' for Active; 'I' for Inactive)
REMARK    1  A    between atoms: C_1  and  O_2
REMARK    2  A    between atoms: O_2  and  C_3
REMARK    3  A    between atoms: C_8  and  O_9
REMARK    4  A    between atoms: O_9  and  C_10
REMARK    5  A    between atoms: C_10  and  C_11
REMARK    6  A    between atoms: C_11  and  C_12
REMARK    7  A    between atoms: C_12  and  N_13
REMARK    8  A    between atoms: C_16  and  C_17
REMARK    9  A    between atoms: C_17  and  O_18
REMARK   10  A    between atoms: C_17  and  C_19
REMARK   11  A    between atoms: C_17  and  C_26
REMARK                            x       y       z     vdW  Elec       q    Type
REMARK                         _______ _______ _______ _____ _____    ______ ____
ROOT
ATOM      1  N   UNL     1       7.088   6.954  17.218  0.00  0.00    +0.000 NA
ATOM      2  C   UNL     1       6.790   5.558  17.561  0.00  0.00    +0.000 C 
ATOM      3  C   UNL     1       5.581   4.990  16.830  0.00  0.00    +0.000 C 
ATOM      4  C   UNL     1       4.318   5.846  17.015  0.00  0.00    +0.000 C 
ATOM      5  C   UNL     1       4.695   7.244  16.464  0.00  0.00    +0.000 C 
ATOM      6  C   UNL     1       5.945   7.858  17.099  0.00  0.00    +0.000 C 
ENDROOT
BRANCH   1   7
ATOM      7  C   UNL     1       8.106   7.517  18.131  0.00  0.00    +0.000 C 
BRANCH   7   8
ATOM      8  C   UNL     1       8.185   9.045  18.074  0.00  0.00    +0.000 C 
BRANCH   8   9
ATOM      9  C   UNL     1       9.240   9.531  19.059  0.00  0.00    +0.000 C 
BRANCH   9  10
ATOM     10  O   UNL     1       9.001  10.875  19.451  0.00  0.00    +0.000 OA
BRANCH  10  16
ATOM     11  C   UNL     1      10.574  12.692  20.183  0.00  0.00    +0.000 A 
ATOM     12  C   UNL     1      11.714  13.426  19.830  0.00  0.00    +0.000 A 
ATOM     13  C   UNL     1      12.291  13.288  18.567  0.00  0.00    +0.000 A 
ATOM     14  C   UNL     1      11.745  12.391  17.654  0.00  0.00    +0.000 A 
ATOM     15  C   UNL     1      10.646  11.616  18.016  0.00  0.00    +0.000 A 
ATOM     16  C   UNL     1      10.054  11.744  19.281  0.00  0.00    +0.000 A 
BRANCH  11  18
ATOM     17  C   UNL     1       9.073  13.898  21.568  0.00  0.00    +0.000 C 
ATOM     18  O   UNL     1      10.035  12.850  21.432  0.00  0.00    +0.000 OA
ENDBRANCH  11  18
ENDBRANCH  10  16
ENDBRANCH   9  10
ENDBRANCH   8   9
ENDBRANCH   7   8
ENDBRANCH   1   7
BRANCH   4  19
ATOM     19  C   UNL     1       3.708   5.842  18.476  0.00  0.00    +0.000 C 
BRANCH  19  20
ATOM     20  C   UNL     1       2.813   7.099  18.687  0.00  0.00    +0.000 A 
ATOM     21  C   UNL     1       2.265   7.396  19.954  0.00  0.00    +0.000 A 
ATOM     22  C   UNL     1       1.410   8.484  20.149  0.00  0.00    +0.000 A 
ATOM     23  C   UNL     1       1.056   9.278  19.073  0.00  0.00    +0.000 A 
ATOM     24  F   UNL     1       0.211  10.301  19.253  0.00  0.00    +0.000 F 
ATOM     25  C   UNL     1       1.566   9.023  17.811  0.00  0.00    +0.000 A 
ATOM     26  C   UNL     1       2.457   7.960  17.625  0.00  0.00    +0.000 A 
ENDBRANCH  19  20
BRANCH  19  27
ATOM     27  C   UNL     1       2.952   4.526  18.796  0.00  0.00    +0.000 A 
ATOM     28  C   UNL     1       1.832   4.126  18.028  0.00  0.00    +0.000 A 
ATOM     29  C   UNL     1       1.150   2.934  18.284  0.00  0.00    +0.000 A 
ATOM     30  C   UNL     1       1.582   2.109  19.309  0.00  0.00    +0.000 A 
ATOM     31  F   UNL     1       0.951   0.951  19.539  0.00  0.00    +0.000 F 
ATOM     32  C   UNL     1       2.658   2.475  20.103  0.00  0.00    +0.000 A 
ATOM     33  C   UNL     1       3.325   3.683  19.862  0.00  0.00    +0.000 A 
ENDBRANCH  19  27
BRANCH  19  34
ATOM     34  O   UNL     1       4.785   5.883  19.421  0.00  0.00    +0.000 OA
ATOM     35  H   UNL     1       4.417   5.948  20.309  0.00  0.00    +0.000 HD
ENDBRANCH  19  34
ENDBRANCH   4  19
TORSDOF 10
ENDMDL
MODEL 4
REMARK VINA RESULT:      -7.8      4.467      7.845
REMARK  Name = 
REMARK  11 active torsions:
REMARK  status: ('A' for Active; 'I' for Inactive)
REMARK    1  A    between atoms: C_1  and  O_2
REMARK    2  A    between atoms: O_2  and  C_3
REMARK    3  A    between atoms: C_8  and  O_9
REMARK    4  A    between atoms: O_9  and  C_10
REMARK    5  A    between atoms: C_10  and  C_11
REMARK    6  A    between atoms: C_11  and  C_12
REMARK    7  A    between atoms: C_12  and  N_13
REMARK    8  A    between atoms: C_16  and  C_17
REMARK    9  A    between atoms: C_17  and  O_18
REMARK   10  A    between atoms: C_17  and  C_19
REMARK   11  A    between atoms: C_17  and  C_26
REMARK                            x       y       z     vdW  Elec       q    Type
REMARK                         _______ _______ _______ _____ _____    ______ ____
ROOT
ATOM      1  N   UNL     1       2.859   4.681  19.063  0.00  0.00    +0.000 NA
ATOM      2  C   UNL     1       2.875   4.150  17.694  0.00  0.00    +0.000 C 
ATOM      3  C   UNL     1       4.126   3.349  17.360  0.00  0.00    +0.000 C 
ATOM      4  C   UNL     1       5.421   4.133  17.623  0.00  0.00    +0.000 C 
ATOM      5  C   UNL     1       5.377   4.492  19.129  0.00  0.00    +0.000 C 
ATOM      6  C   UNL     1       4.115   5.240  19.563  0.00  0.00    +0.000 C 
ENDROOT
BRANCH   1   7
ATOM      7  C   UNL     1       1.751   5.643  19.244  0.00  0.00    +0.000 C 
BRANCH   7   8
ATOM      8  C   UNL     1       1.576   6.091  20.698  0.00  0.00    +0.000 C 
BRANCH   8   9
ATOM      9  C   UNL     1       1.863   7.583  20.803  0.00  0.00    +0.000 C 
BRANCH   9  10
ATOM     10  O   UNL     1       0.860   8.350  20.152  0.00  0.00    +0.000 OA
BRANCH  10  16
ATOM     11  C   UNL     1      -0.295  10.551  20.516  0.00  0.00    +0.000 A 
ATOM     12  C   UNL     1      -0.937  11.361  21.461  0.00  0.00    +0.000 A 
ATOM     13  C   UNL     1      -0.964  11.002  22.810  0.00  0.00    +0.000 A 
ATOM     14  C   UNL     1      -0.370   9.812  23.219  0.00  0.00    +0.000 A 
ATOM     15  C   UNL     1       0.221   8.972  22.277  0.00  0.00    +0.000 A 
ATOM     16  C   UNL     1       0.257   9.320  20.919  0.00  0.00    +0.000 A 
BRANCH  11  18
ATOM     17  C   UNL     1      -1.376  10.450  18.407  0.00  0.00    +0.000 C 
ATOM     18  O   UNL     1      -0.289  10.932  19.200  0.00  0.00    +0.000 OA
ENDBRANCH  11  18
ENDBRANCH  10  16
ENDBRANCH   9  10
ENDBRANCH   8   9
ENDBRANCH   7   8
ENDBRANCH   1   7
BRANCH   4  19
ATOM     19  C   UNL     1       5.681   5.354  16.649  0.00  0.00    +0.000 C 
BRANCH  19  20
ATOM     20  C   UNL     1       6.686   6.351  17.296  0.00  0.00    +0.000 A 
ATOM     21  C   UNL     1       7.582   5.929  18.304  0.00  0.00    +0.000 A 
ATOM     22  C   UNL     1       8.449   6.822  18.939  0.00  0.00    +0.000 A 
ATOM     23  C   UNL     1       8.414   8.165  18.605  0.00  0.00    +0.000 A 
ATOM     24  F   UNL     1       9.221   9.027  19.236  0.00  0.00    +0.000 F 
ATOM     25  C   UNL     1       7.551   8.625  17.625  0.00  0.00    +0.000 A 
ATOM     26  C   UNL     1       6.714   7.723  16.958  0.00  0.00    +0.000 A 
ENDBRANCH  19  20
BRANCH  19  27
ATOM     27  C   UNL     1       6.137   4.897  15.238  0.00  0.00    +0.000 A 
ATOM     28  C   UNL     1       5.315   4.062  14.445  0.00  0.00    +0.000 A 
ATOM     29  C   UNL     1       5.695   3.656  13.162  0.00  0.00    +0.000 A 
ATOM     30  C   UNL     1       6.904   4.087  12.643  0.00  0.00    +0.000 A 
ATOM     31  F   UNL     1       7.259   3.726  11.404  0.00  0.00    +0.000 F 
ATOM     32  C   UNL     1       7.752   4.883  13.397  0.00  0.00    +0.000 A 
ATOM     33  C   UNL     1       7.382   5.268  14.692  0.00  0.00    +0.000 A 
ENDBRANCH  19  27
BRANCH  19  34
ATOM     34  O   UNL     1       4.439   6.034  16.428  0.00  0.00    +0.000 OA
ATOM     35  H   UNL     1       3.734   5.543  16.865  0.00  0.00    +0.000 HD
ENDBRANCH  19  34
ENDBRANCH   4  19
TORSDOF 10
ENDMDL
MODEL 5
REMARK VINA RESULT:      -7.7      6.534     10.819
REMARK  Name = 
REMARK  11 active torsions:
REMARK  status: ('A' for Active; 'I' for Inactive)
REMARK    1  A    between atoms: C_1  and  O_2
REMARK    2  A    between atoms: O_2  and  C_3
REMARK    3  A    between atoms: C_8  and  O_9
REMARK    4  A    between atoms: O_9  and  C_10
REMARK    5  A    between atoms: C_10  and  C_11
REMARK    6  A    between atoms: C_11  and  C_12
REMARK    7  A    between atoms: C_12  and  N_13
REMARK    8  A    between atoms: C_16  and  C_17
REMARK    9  A    between atoms: C_17  and  O_18
REMARK   10  A    between atoms: C_17  and  C_19
REMARK   11  A    between atoms: C_17  and  C_26
REMARK                            x       y       z     vdW  Elec       q    Type
REMARK                         _______ _______ _______ _____ _____    ______ ____
ROOT
ATOM      1  N   UNL     1      -0.277  14.234  21.101  0.00  0.00    +0.000 NA
ATOM      2  C   UNL     1       0.724  13.180  21.310  0.00  0.00    +0.000 C 
ATOM      3  C   UNL     1       1.436  12.747  20.035  0.00  0.00    +0.000 C 
ATOM      4  C   UNL     1       0.462  12.319  18.926  0.00  0.00    +0.000 C 
ATOM      5  C   UNL     1      -0.429  13.560  18.671  0.00  0.00    +0.000 C 
ATOM      6  C   UNL     1      -1.129  14.104  19.919  0.00  0.00    +0.000 C 
ENDROOT
BRANCH   1   7
ATOM      7  C   UNL     1      -1.097  14.433  22.316  0.00  0.00    +0.000 C 
BRANCH   7   8
ATOM      8  C   UNL     1      -1.221  13.169  23.171  0.00  0.00    +0.000 C 
BRANCH   8   9
ATOM      9  C   UNL     1      -2.649  12.645  23.090  0.00  0.00    +0.000 C 
BRANCH   9  10
ATOM     10  O   UNL     1      -3.485  13.534  22.363  0.00  0.00    +0.000 OA
BRANCH  10  16
ATOM     11  C   UNL     1      -5.720  12.461  21.958  0.00  0.00    +0.000 A 
ATOM     12  C   UNL     1      -6.585  11.961  20.977  0.00  0.00    +0.000 A 
ATOM     13  C   UNL     1      -6.175  11.855  19.646  0.00  0.00    +0.000 A 
ATOM     14  C   UNL     1      -4.900  12.278  19.284  0.00  0.00    +0.000 A 
ATOM     15  C   UNL     1      -4.053  12.830  20.242  0.00  0.00    +0.000 A 
ATOM     16  C   UNL     1      -4.451  12.941  21.582  0.00  0.00    +0.000 A 
BRANCH  11  18
ATOM     17  C   UNL     1      -7.572  12.490  23.440  0.00  0.00    +0.000 C 
ATOM     18  O   UNL     1      -6.157  12.553  23.252  0.00  0.00    +0.000 OA
ENDBRANCH  11  18
ENDBRANCH  10  16
ENDBRANCH   9  10
ENDBRANCH   8   9
ENDBRANCH   7   8
ENDBRANCH   1   7
BRANCH   4  19
ATOM     19  C   UNL     1      -0.325  10.973  19.201  0.00  0.00    +0.000 C 
BRANCH  19  20
ATOM     20  C   UNL     1      -1.429  10.768  18.122  0.00  0.00    +0.000 A 
ATOM     21  C   UNL     1      -1.567  11.670  17.044  0.00  0.00    +0.000 A 
ATOM     22  C   UNL     1      -2.590  11.537  16.100  0.00  0.00    +0.000 A 
ATOM     23  C   UNL     1      -3.516  10.518  16.234  0.00  0.00    +0.000 A 
ATOM     24  F   UNL     1      -4.515  10.409  15.348  0.00  0.00    +0.000 F 
ATOM     25  C   UNL     1      -3.421   9.612  17.276  0.00  0.00    +0.000 A 
ATOM     26  C   UNL     1      -2.372   9.719  18.196  0.00  0.00    +0.000 A 
ENDBRANCH  19  20
BRANCH  19  27
ATOM     27  C   UNL     1       0.621   9.749  19.310  0.00  0.00    +0.000 A 
ATOM     28  C   UNL     1       0.766   9.050  20.533  0.00  0.00    +0.000 A 
ATOM     29  C   UNL     1       1.596   7.931  20.649  0.00  0.00    +0.000 A 
ATOM     30  C   UNL     1       2.290   7.481  19.539  0.00  0.00    +0.000 A 
ATOM     31  F   UNL     1       3.062   6.392  19.636  0.00  0.00    +0.000 F 
ATOM     32  C   UNL     1       2.197   8.151  18.329  0.00  0.00    +0.000 A 
ATOM     33  C   UNL     1       1.386   9.288  18.220  0.00  0.00    +0.000 A 
ENDBRANCH  19  27
BRANCH  19  34
ATOM     34  O   UNL     1      -0.952  11.065  20.487  0.00  0.00    +0.000 OA
ATOM     35  H   UNL     1      -0.285  10.929  21.168  0.00  0.00    +0.000 HD
ENDBRANCH  19  34
ENDBRANCH   4  19
TORSDOF 10
ENDMDL
MODEL 6
REMARK VINA RESULT:      -7.7      6.857     10.564
REMARK  Name = 
REMARK  11 active torsions:
REMARK  status: ('A' for Active; 'I' for Inactive)
REMARK    1  A    between atoms: C_1  and  O_2
REMARK    2  A    between atoms: O_2  and  C_3
REMARK    3  A    between atoms: C_8  and  O_9
REMARK    4  A    between atoms: O_9  and  C_10
REMARK    5  A    between atoms: C_10  and  C_11
REMARK    6  A    between atoms: C_11  and  C_12
REMARK    7  A    between atoms: C_12  and  N_13
REMARK    8  A    between atoms: C_16  and  C_17
REMARK    9  A    between atoms: C_17  and  O_18
REMARK   10  A    between atoms: C_17  and  C_19
REMARK   11  A    between atoms: C_17  and  C_26
REMARK                            x       y       z     vdW  Elec       q    Type
REMARK                         _______ _______ _______ _____ _____    ______ ____
ROOT
ATOM      1  N   UNL     1       0.787  14.587  20.837  0.00  0.00    +0.000 NA
ATOM      2  C   UNL     1       1.704  13.442  20.893  0.00  0.00    +0.000 C 
ATOM      3  C   UNL     1       2.014  12.835  19.532  0.00  0.00    +0.000 C 
ATOM      4  C   UNL     1       0.748  12.442  18.754  0.00  0.00    +0.000 C 
ATOM      5  C   UNL     1      -0.058  13.756  18.606  0.00  0.00    +0.000 C 
ATOM      6  C   UNL     1      -0.352  14.470  19.928  0.00  0.00    +0.000 C 
ENDROOT
BRANCH   1   7
ATOM      7  C   UNL     1       0.337  14.972  22.192  0.00  0.00    +0.000 C 
BRANCH   7   8
ATOM      8  C   UNL     1      -1.178  14.848  22.379  0.00  0.00    +0.000 C 
BRANCH   8   9
ATOM      9  C   UNL     1      -1.469  13.792  23.438  0.00  0.00    +0.000 C 
BRANCH   9  10
ATOM     10  O   UNL     1      -2.305  14.306  24.465  0.00  0.00    +0.000 OA
BRANCH  10  16
ATOM     11  C   UNL     1      -4.650  15.035  23.938  0.00  0.00    +0.000 A 
ATOM     12  C   UNL     1      -5.965  14.595  23.739  0.00  0.00    +0.000 A 
ATOM     13  C   UNL     1      -6.316  13.263  23.969  0.00  0.00    +0.000 A 
ATOM     14  C   UNL     1      -5.344  12.354  24.375  0.00  0.00    +0.000 A 
ATOM     15  C   UNL     1      -4.023  12.770  24.520  0.00  0.00    +0.000 A 
ATOM     16  C   UNL     1      -3.654  14.104  24.294  0.00  0.00    +0.000 A 
BRANCH  11  18
ATOM     17  C   UNL     1      -4.322  17.202  24.845  0.00  0.00    +0.000 C 
ATOM     18  O   UNL     1      -4.340  16.347  23.700  0.00  0.00    +0.000 OA
ENDBRANCH  11  18
ENDBRANCH  10  16
ENDBRANCH   9  10
ENDBRANCH   8   9
ENDBRANCH   7   8
ENDBRANCH   1   7
BRANCH   4  19
ATOM     19  C   UNL     1      -0.062  11.222  19.355  0.00  0.00    +0.000 C 
BRANCH  19  20
ATOM     20  C   UNL     1      -1.411  11.049  18.597  0.00  0.00    +0.000 A 
ATOM     21  C   UNL     1      -1.489  10.268  17.422  0.00  0.00    +0.000 A 
ATOM     22  C   UNL     1      -2.677  10.151  16.694  0.00  0.00    +0.000 A 
ATOM     23  C   UNL     1      -3.803  10.840  17.107  0.00  0.00    +0.000 A 
ATOM     24  F   UNL     1      -4.932  10.754  16.393  0.00  0.00    +0.000 F 
ATOM     25  C   UNL     1      -3.773  11.619  18.251  0.00  0.00    +0.000 A 
ATOM     26  C   UNL     1      -2.596  11.701  19.004  0.00  0.00    +0.000 A 
ENDBRANCH  19  20
BRANCH  19  27
ATOM     27  C   UNL     1       0.771   9.913  19.373  0.00  0.00    +0.000 A 
ATOM     28  C   UNL     1       0.831   9.107  20.535  0.00  0.00    +0.000 A 
ATOM     29  C   UNL     1       1.556   7.912  20.568  0.00  0.00    +0.000 A 
ATOM     30  C   UNL     1       2.228   7.494  19.432  0.00  0.00    +0.000 A 
ATOM     31  F   UNL     1       2.899   6.336  19.448  0.00  0.00    +0.000 F 
ATOM     32  C   UNL     1       2.218   8.267  18.281  0.00  0.00    +0.000 A 
ATOM     33  C   UNL     1       1.512   9.476  18.258  0.00  0.00    +0.000 A 
ENDBRANCH  19  27
BRANCH  19  34
ATOM     34  O   UNL     1      -0.342  11.494  20.734  0.00  0.00    +0.000 OA
ATOM     35  H   UNL     1      -1.203  11.122  20.955  0.00  0.00    +0.000 HD
ENDBRANCH  19  34
ENDBRANCH   4  19
TORSDOF 10
ENDMDL
MODEL 7
REMARK VINA RESULT:      -7.7      4.443      7.496
REMARK  Name = 
REMARK  11 active torsions:
REMARK  status: ('A' for Active; 'I' for Inactive)
REMARK    1  A    between atoms: C_1  and  O_2
REMARK    2  A    between atoms: O_2  and  C_3
REMARK    3  A    between atoms: C_8  and  O_9
REMARK    4  A    between atoms: O_9  and  C_10
REMARK    5  A    between atoms: C_10  and  C_11
REMARK    6  A    between atoms: C_11  and  C_12
REMARK    7  A    between atoms: C_12  and  N_13
REMARK    8  A    between atoms: C_16  and  C_17
REMARK    9  A    between atoms: C_17  and  O_18
REMARK   10  A    between atoms: C_17  and  C_19
REMARK   11  A    between atoms: C_17  and  C_26
REMARK                            x       y       z     vdW  Elec       q    Type
REMARK                         _______ _______ _______ _____ _____    ______ ____
ROOT
ATOM      1  N   UNL     1       2.890   4.584  19.299  0.00  0.00    +0.000 NA
ATOM      2  C   UNL     1       2.777   4.124  17.910  0.00  0.00    +0.000 C 
ATOM      3  C   UNL     1       3.960   3.290  17.440  0.00  0.00    +0.000 C 
ATOM      4  C   UNL     1       5.307   4.004  17.638  0.00  0.00    +0.000 C 
ATOM      5  C   UNL     1       5.394   4.285  19.158  0.00  0.00    +0.000 C 
ATOM      6  C   UNL     1       4.204   5.063  19.726  0.00  0.00    +0.000 C 
ENDROOT
BRANCH   1   7
ATOM      7  C   UNL     1       1.844   5.581  19.613  0.00  0.00    +0.000 C 
BRANCH   7   8
ATOM      8  C   UNL     1       2.306   7.025  19.397  0.00  0.00    +0.000 C 
BRANCH   8   9
ATOM      9  C   UNL     1       1.803   7.892  20.544  0.00  0.00    +0.000 C 
BRANCH   9  10
ATOM     10  O   UNL     1       0.673   8.660  20.155  0.00  0.00    +0.000 OA
BRANCH  10  16
ATOM     11  C   UNL     1       0.724  10.981  21.116  0.00  0.00    +0.000 A 
ATOM     12  C   UNL     1       1.054  12.317  20.856  0.00  0.00    +0.000 A 
ATOM     13  C   UNL     1       1.445  12.722  19.579  0.00  0.00    +0.000 A 
ATOM     14  C   UNL     1       1.534  11.784  18.555  0.00  0.00    +0.000 A 
ATOM     15  C   UNL     1       1.263  10.443  18.818  0.00  0.00    +0.000 A 
ATOM     16  C   UNL     1       0.869  10.021  20.096  0.00  0.00    +0.000 A 
BRANCH  11  18
ATOM     17  C   UNL     1      -0.946  11.057  22.798  0.00  0.00    +0.000 C 
ATOM     18  O   UNL     1       0.348  10.617  22.381  0.00  0.00    +0.000 OA
ENDBRANCH  11  18
ENDBRANCH  10  16
ENDBRANCH   9  10
ENDBRANCH   8   9
ENDBRANCH   7   8
ENDBRANCH   1   7
BRANCH   4  19
ATOM     19  C   UNL     1       5.548   5.261  16.707  0.00  0.00    +0.000 C 
BRANCH  19  20
ATOM     20  C   UNL     1       6.509   6.268  17.405  0.00  0.00    +0.000 A 
ATOM     21  C   UNL     1       6.491   7.640  17.069  0.00  0.00    +0.000 A 
ATOM     22  C   UNL     1       7.388   8.549  17.639  0.00  0.00    +0.000 A 
ATOM     23  C   UNL     1       8.344   8.098  18.532  0.00  0.00    +0.000 A 
ATOM     24  F   UNL     1       9.224   8.962  19.054  0.00  0.00    +0.000 F 
ATOM     25  C   UNL     1       8.401   6.761  18.888  0.00  0.00    +0.000 A 
ATOM     26  C   UNL     1       7.475   5.860  18.351  0.00  0.00    +0.000 A 
ENDBRANCH  19  20
BRANCH  19  27
ATOM     27  C   UNL     1       6.045   4.862  15.293  0.00  0.00    +0.000 A 
ATOM     28  C   UNL     1       5.239   4.075  14.436  0.00  0.00    +0.000 A 
ATOM     29  C   UNL     1       5.657   3.722  13.149  0.00  0.00    +0.000 A 
ATOM     30  C   UNL     1       6.888   4.159  12.690  0.00  0.00    +0.000 A 
ATOM     31  F   UNL     1       7.280   3.850  11.449  0.00  0.00    +0.000 F 
ATOM     32  C   UNL     1       7.720   4.909  13.507  0.00  0.00    +0.000 A 
ATOM     33  C   UNL     1       7.311   5.240  14.805  0.00  0.00    +0.000 A 
ENDBRANCH  19  27
BRANCH  19  34
ATOM     34  O   UNL     1       4.289   5.910  16.481  0.00  0.00    +0.000 OA
ATOM     35  H   UNL     1       3.656   5.595  17.136  0.00  0.00    +0.000 HD
ENDBRANCH  19  34
ENDBRANCH   4  19
TORSDOF 10
ENDMDL
MODEL 8
REMARK VINA RESULT:      -7.7      4.366     10.921
REMARK  Name = 
REMARK  11 active torsions:
REMARK  status: ('A' for Active; 'I' for Inactive)
REMARK    1  A    between atoms: C_1  and  O_2
REMARK    2  A    between atoms: O_2  and  C_3
REMARK    3  A    between atoms: C_8  and  O_9
REMARK    4  A    between atoms: O_9  and  C_10
REMARK    5  A    between atoms: C_10  and  C_11
REMARK    6  A    between atoms: C_11  and  C_12
REMARK    7  A    between atoms: C_12  and  N_13
REMARK    8  A    between atoms: C_16  and  C_17
REMARK    9  A    between atoms: C_17  and  O_18
REMARK   10  A    between atoms: C_17  and  C_19
REMARK   11  A    between atoms: C_17  and  C_26
REMARK                            x       y       z     vdW  Elec       q    Type
REMARK                         _______ _______ _______ _____ _____    ______ ____
ROOT
ATOM      1  N   UNL     1       9.709  10.326  18.686  0.00  0.00    +0.000 NA
ATOM      2  C   UNL     1      10.261  11.361  17.802  0.00  0.00    +0.000 C 
ATOM      3  C   UNL     1      11.382  12.175  18.434  0.00  0.00    +0.000 C 
ATOM      4  C   UNL     1      10.974  12.807  19.775  0.00  0.00    +0.000 C 
ATOM      5  C   UNL     1      10.576  11.614  20.678  0.00  0.00    +0.000 C 
ATOM      6  C   UNL     1       9.501  10.701  20.084  0.00  0.00    +0.000 C 
ENDROOT
BRANCH   1   7
ATOM      7  C   UNL     1       8.477   9.743  18.113  0.00  0.00    +0.000 C 
BRANCH   7   8
ATOM      8  C   UNL     1       8.233   8.298  18.557  0.00  0.00    +0.000 C 
BRANCH   8   9
ATOM      9  C   UNL     1       7.941   7.438  17.335  0.00  0.00    +0.000 C 
BRANCH   9  10
ATOM     10  O   UNL     1       6.559   7.461  17.005  0.00  0.00    +0.000 OA
BRANCH  10  16
ATOM     11  C   UNL     1       5.563   5.360  16.052  0.00  0.00    +0.000 A 
ATOM     12  C   UNL     1       4.963   4.136  16.370  0.00  0.00    +0.000 A 
ATOM     13  C   UNL     1       4.626   3.824  17.688  0.00  0.00    +0.000 A 
ATOM     14  C   UNL     1       4.913   4.729  18.705  0.00  0.00    +0.000 A 
ATOM     15  C   UNL     1       5.562   5.926  18.406  0.00  0.00    +0.000 A 
ATOM     16  C   UNL     1       5.906   6.253  17.086  0.00  0.00    +0.000 A 
BRANCH  11  18
ATOM     17  C   UNL     1       6.953   4.862  14.195  0.00  0.00    +0.000 C 
ATOM     18  O   UNL     1       5.883   5.632  14.749  0.00  0.00    +0.000 OA
ENDBRANCH  11  18
ENDBRANCH  10  16
ENDBRANCH   9  10
ENDBRANCH   8   9
ENDBRANCH   7   8
ENDBRANCH   1   7
BRANCH   4  19
ATOM     19  C   UNL     1       9.897  13.963  19.676  0.00  0.00    +0.000 C 
BRANCH  19  20
ATOM     20  C   UNL     1       9.364  14.322  21.095  0.00  0.00    +0.000 A 
ATOM     21  C   UNL     1      10.059  15.231  21.923  0.00  0.00    +0.000 A 
ATOM     22  C   UNL     1       9.630  15.518  23.222  0.00  0.00    +0.000 A 
ATOM     23  C   UNL     1       8.516  14.876  23.733  0.00  0.00    +0.000 A 
ATOM     24  F   UNL     1       8.123  15.126  24.988  0.00  0.00    +0.000 F 
ATOM     25  C   UNL     1       7.805  13.975  22.958  0.00  0.00    +0.000 A 
ATOM     26  C   UNL     1       8.209  13.721  21.643  0.00  0.00    +0.000 A 
ENDBRANCH  19  20
BRANCH  19  27
ATOM     27  C   UNL     1      10.434  15.208  18.922  0.00  0.00    +0.000 A 
ATOM     28  C   UNL     1       9.590  15.961  18.071  0.00  0.00    +0.000 A 
ATOM     29  C   UNL     1      10.045  17.098  17.398  0.00  0.00    +0.000 A 
ATOM     30  C   UNL     1      11.355  17.512  17.573  0.00  0.00    +0.000 A 
ATOM     31  F   UNL     1      11.789  18.617  16.955  0.00  0.00    +0.000 F 
ATOM     32  C   UNL     1      12.223  16.788  18.375  0.00  0.00    +0.000 A 
ATOM     33  C   UNL     1      11.772  15.634  19.028  0.00  0.00    +0.000 A 
ENDBRANCH  19  27
BRANCH  19  34
ATOM     34  O   UNL     1       8.800  13.498  18.878  0.00  0.00    +0.000 OA
ATOM     35  H   UNL     1       8.656  14.120  18.157  0.00  0.00    +0.000 HD
ENDBRANCH  19  34
ENDBRANCH   4  19
TORSDOF 10
ENDMDL
MODEL 9
REMARK VINA RESULT:      -7.6      4.438      7.745
REMARK  Name = 
REMARK  11 active torsions:
REMARK  status: ('A' for Active; 'I' for Inactive)
REMARK    1  A    between atoms: C_1  and  O_2
REMARK    2  A    between atoms: O_2  and  C_3
REMARK    3  A    between atoms: C_8  and  O_9
REMARK    4  A    between atoms: O_9  and  C_10
REMARK    5  A    between atoms: C_10  and  C_11
REMARK    6  A    between atoms: C_11  and  C_12
REMARK    7  A    between atoms: C_12  and  N_13
REMARK    8  A    between atoms: C_16  and  C_17
REMARK    9  A    between atoms: C_17  and  O_18
REMARK   10  A    between atoms: C_17  and  C_19
REMARK   11  A    between atoms: C_17  and  C_26
REMARK                            x       y       z     vdW  Elec       q    Type
REMARK                         _______ _______ _______ _____ _____    ______ ____
ROOT
ATOM      1  N   UNL     1       2.879   4.834  19.222  0.00  0.00    +0.000 NA
ATOM      2  C   UNL     1       2.747   4.341  17.845  0.00  0.00    +0.000 C 
ATOM      3  C   UNL     1       3.896   3.448  17.398  0.00  0.00    +0.000 C 
ATOM      4  C   UNL     1       5.270   4.113  17.578  0.00  0.00    +0.000 C 
ATOM      5  C   UNL     1       5.370   4.432  19.090  0.00  0.00    +0.000 C 
ATOM      6  C   UNL     1       4.212   5.271  19.637  0.00  0.00    +0.000 C 
ENDROOT
BRANCH   1   7
ATOM      7  C   UNL     1       1.874   5.879  19.509  0.00  0.00    +0.000 C 
BRANCH   7   8
ATOM      8  C   UNL     1       2.469   7.290  19.546  0.00  0.00    +0.000 C 
BRANCH   8   9
ATOM      9  C   UNL     1       1.370   8.290  19.881  0.00  0.00    +0.000 C 
BRANCH   9  10
ATOM     10  O   UNL     1       1.416   9.417  19.017  0.00  0.00    +0.000 OA
BRANCH  10  16
ATOM     11  C   UNL     1      -0.111  11.240  19.829  0.00  0.00    +0.000 A 
ATOM     12  C   UNL     1      -1.289  11.947  19.559  0.00  0.00    +0.000 A 
ATOM     13  C   UNL     1      -2.125  11.569  18.506  0.00  0.00    +0.000 A 
ATOM     14  C   UNL     1      -1.773  10.493  17.699  0.00  0.00    +0.000 A 
ATOM     15  C   UNL     1      -0.574   9.819  17.925  0.00  0.00    +0.000 A 
ATOM     16  C   UNL     1       0.276  10.186  18.978  0.00  0.00    +0.000 A 
BRANCH  11  18
ATOM     17  C   UNL     1       1.550  12.748  20.600  0.00  0.00    +0.000 C 
ATOM     18  O   UNL     1       0.688  11.640  20.867  0.00  0.00    +0.000 OA
ENDBRANCH  11  18
ENDBRANCH  10  16
ENDBRANCH   9  10
ENDBRANCH   8   9
ENDBRANCH   7   8
ENDBRANCH   1   7
BRANCH   4  19
ATOM     19  C   UNL     1       5.560   5.335  16.613  0.00  0.00    +0.000 C 
BRANCH  19  20
ATOM     20  C   UNL     1       6.593   6.299  17.266  0.00  0.00    +0.000 A 
ATOM     21  C   UNL     1       7.517   5.832  18.227  0.00  0.00    +0.000 A 
ATOM     22  C   UNL     1       8.410   6.694  18.869  0.00  0.00    +0.000 A 
ATOM     23  C   UNL     1       8.375   8.049  18.588  0.00  0.00    +0.000 A 
ATOM     24  F   UNL     1       9.209   8.880  19.226  0.00  0.00    +0.000 F 
ATOM     25  C   UNL     1       7.485   8.553  17.655  0.00  0.00    +0.000 A 
ATOM     26  C   UNL     1       6.620   7.683  16.981  0.00  0.00    +0.000 A 
ENDBRANCH  19  20
BRANCH  19  27
ATOM     27  C   UNL     1       6.000   4.877  15.198  0.00  0.00    +0.000 A 
ATOM     28  C   UNL     1       7.267   5.238  14.680  0.00  0.00    +0.000 A 
ATOM     29  C   UNL     1       7.694   4.819  13.416  0.00  0.00    +0.000 A 
ATOM     30  C   UNL     1       6.864   4.020  12.649  0.00  0.00    +0.000 A 
ATOM     31  F   UNL     1       7.280   3.591  11.451  0.00  0.00    +0.000 F 
ATOM     32  C   UNL     1       5.605   3.666  13.106  0.00  0.00    +0.000 A 
ATOM     33  C   UNL     1       5.168   4.108  14.362  0.00  0.00    +0.000 A 
ENDBRANCH  19  27
BRANCH  19  34
ATOM     34  O   UNL     1       4.335   6.049  16.401  0.00  0.00    +0.000 OA
ATOM     35  H   UNL     1       3.599   5.489  16.669  0.00  0.00    +0.000 HD
ENDBRANCH  19  34
ENDBRANCH   4  19
TORSDOF 10
ENDMDL
