MODEL 1
REMARK VINA RESULT:      -7.4      0.000      0.000
REMARK  Name = 
REMARK  4 active torsions:
REMARK  status: ('A' for Active; 'I' for Inactive)
REMARK    1  A    between atoms: C_2  and  C_3
REMARK    2  A    between atoms: C_3  and  N_4
REMARK    3  A    between atoms: C_10  and  O_11
REMARK    4  A    between atoms: O_11  and  C_12
REMARK                            x       y       z     vdW  Elec       q    Type
REMARK                         _______ _______ _______ _____ _____    ______ ____
ROOT
ATOM      1  N   UNL     1       5.632   5.056  16.386  0.00  0.00    +0.000 N 
ATOM      2  C   UNL     1       6.620   5.725  17.084  0.00  0.00    +0.000 A 
ATOM      3  N   UNL     1       7.588   6.456  16.665  0.00  0.00    +0.000 NA
ATOM      4  S   UNL     1       6.463   5.488  18.839  0.00  0.00    +0.000 S 
ATOM      5  C   UNL     1       5.032   4.467  18.583  0.00  0.00    +0.000 A 
ATOM      6  C   UNL     1       4.271   3.855  19.564  0.00  0.00    +0.000 A 
ATOM      7  C   UNL     1       3.176   3.078  19.183  0.00  0.00    +0.000 A 
ATOM      8  C   UNL     1       2.845   2.982  17.826  0.00  0.00    +0.000 A 
ATOM      9  C   UNL     1       3.634   3.601  16.840  0.00  0.00    +0.000 A 
ATOM     10  C   UNL     1       4.739   4.354  17.214  0.00  0.00    +0.000 A 
ATOM     11  H   UNL     1       7.579   6.515  15.649  0.00  0.00    +0.000 HD
ENDROOT
BRANCH   1  12
ATOM     12  C   UNL     1       5.472   5.106  14.946  0.00  0.00    +0.000 C 
BRANCH  12  14
ATOM     13  C   UNL     1       6.144   3.635  13.009  0.00  0.00    +0.000 C 
ATOM     14  C   UNL     1       6.202   3.956  14.308  0.00  0.00    +0.000 C 
ENDBRANCH  12  14
ENDBRANCH   1  12
BRANCH   7  15
ATOM     15  O   UNL     1       2.487   2.520  20.215  0.00  0.00    +0.000 OA
BRANCH  15  16
ATOM     16  C   UNL     1       1.251   3.088  20.627  0.00  0.00    +0.000 C 
ATOM     17  F   UNL     1       1.253   4.435  20.689  0.00  0.00    +0.000 F 
ATOM     18  F   UNL     1       0.295   2.717  19.747  0.00  0.00    +0.000 F 
ATOM     19  F   UNL     1       0.920   2.597  21.841  0.00  0.00    +0.000 F 
ENDBRANCH  15  16
ENDBRANCH   7  15
TORSDOF 4
ENDMDL
MODEL 2
REMARK VINA RESULT:      -7.4      1.777      2.977
REMARK  Name = 
REMARK  4 active torsions:
REMARK  status: ('A' for Active; 'I' for Inactive)
REMARK    1  A    between atoms: C_2  and  C_3
REMARK    2  A    between atoms: C_3  and  N_4
REMARK    3  A    between atoms: C_10  and  O_11
REMARK    4  A    between atoms: O_11  and  C_12
REMARK                            x       y       z     vdW  Elec       q    Type
REMARK                         _______ _______ _______ _____ _____    ______ ____
ROOT
ATOM      1  N   UNL     1       6.735   5.431  17.155  0.00  0.00    +0.000 N 
ATOM      2  C   UNL     1       6.849   5.108  15.815  0.00  0.00    +0.000 A 
ATOM      3  N   UNL     1       7.687   5.506  14.929  0.00  0.00    +0.000 NA
ATOM      4  S   UNL     1       5.598   3.951  15.308  0.00  0.00    +0.000 S 
ATOM      5  C   UNL     1       4.936   3.929  16.957  0.00  0.00    +0.000 A 
ATOM      6  C   UNL     1       3.853   3.188  17.399  0.00  0.00    +0.000 A 
ATOM      7  C   UNL     1       3.461   3.297  18.734  0.00  0.00    +0.000 A 
ATOM      8  C   UNL     1       4.204   4.107  19.601  0.00  0.00    +0.000 A 
ATOM      9  C   UNL     1       5.296   4.861  19.134  0.00  0.00    +0.000 A 
ATOM     10  C   UNL     1       5.673   4.776  17.801  0.00  0.00    +0.000 A 
ATOM     11  H   UNL     1       8.348   6.167  15.333  0.00  0.00    +0.000 HD
ENDROOT
BRANCH   1  12
ATOM     12  C   UNL     1       7.646   6.309  17.864  0.00  0.00    +0.000 C 
BRANCH  12  14
ATOM     13  C   UNL     1       8.089   8.792  17.899  0.00  0.00    +0.000 C 
ATOM     14  C   UNL     1       7.352   7.742  17.516  0.00  0.00    +0.000 C 
ENDBRANCH  12  14
ENDBRANCH   1  12
BRANCH   7  15
ATOM     15  O   UNL     1       2.391   2.531  19.078  0.00  0.00    +0.000 OA
BRANCH  15  16
ATOM     16  C   UNL     1       1.082   3.080  19.019  0.00  0.00    +0.000 C 
ATOM     17  F   UNL     1       0.962   4.143  18.197  0.00  0.00    +0.000 F 
ATOM     18  F   UNL     1       0.235   2.122  18.579  0.00  0.00    +0.000 F 
ATOM     19  F   UNL     1       0.696   3.445  20.260  0.00  0.00    +0.000 F 
ENDBRANCH  15  16
ENDBRANCH   7  15
TORSDOF 4
ENDMDL
MODEL 3
REMARK VINA RESULT:      -7.3      1.912      3.164
REMARK  Name = 
REMARK  4 active torsions:
REMARK  status: ('A' for Active; 'I' for Inactive)
REMARK    1  A    between atoms: C_2  and  C_3
REMARK    2  A    between atoms: C_3  and  N_4
REMARK    3  A    between atoms: C_10  and  O_11
REMARK    4  A    between atoms: O_11  and  C_12
REMARK                            x       y       z     vdW  Elec       q    Type
REMARK                         _______ _______ _______ _____ _____    ______ ____
ROOT
ATOM      1  N   UNL     1       6.496   5.675  17.282  0.00  0.00    +0.000 N 
ATOM      2  C   UNL     1       6.649   5.192  15.995  0.00  0.00    +0.000 A 
ATOM      3  N   UNL     1       7.632   5.296  15.177  0.00  0.00    +0.000 NA
ATOM      4  S   UNL     1       5.215   4.292  15.454  0.00  0.00    +0.000 S 
ATOM      5  C   UNL     1       4.423   4.596  17.016  0.00  0.00    +0.000 A 
ATOM      6  C   UNL     1       3.164   4.166  17.398  0.00  0.00    +0.000 A 
ATOM      7  C   UNL     1       2.692   4.503  18.667  0.00  0.00    +0.000 A 
ATOM      8  C   UNL     1       3.523   5.217  19.538  0.00  0.00    +0.000 A 
ATOM      9  C   UNL     1       4.796   5.656  19.132  0.00  0.00    +0.000 A 
ATOM     10  C   UNL     1       5.259   5.345  17.860  0.00  0.00    +0.000 A 
ATOM     11  H   UNL     1       8.390   5.833  15.593  0.00  0.00    +0.000 HD
ENDROOT
BRANCH   1  12
ATOM     12  C   UNL     1       7.519   6.401  18.009  0.00  0.00    +0.000 C 
BRANCH  12  14
ATOM     13  C   UNL     1       8.302   8.798  18.100  0.00  0.00    +0.000 C 
ATOM     14  C   UNL     1       7.565   7.830  17.541  0.00  0.00    +0.000 C 
ENDBRANCH  12  14
ENDBRANCH   1  12
BRANCH   7  15
ATOM     15  O   UNL     1       1.448   4.034  18.955  0.00  0.00    +0.000 OA
BRANCH  15  16
ATOM     16  C   UNL     1       1.289   2.716  19.462  0.00  0.00    +0.000 C 
ATOM     17  F   UNL     1       2.442   2.024  19.577  0.00  0.00    +0.000 F 
ATOM     18  F   UNL     1       0.731   2.795  20.691  0.00  0.00    +0.000 F 
ATOM     19  F   UNL     1       0.448   2.029  18.660  0.00  0.00    +0.000 F 
ENDBRANCH  15  16
ENDBRANCH   7  15
TORSDOF 4
ENDMDL
MODEL 4
REMARK VINA RESULT:      -7.1      1.954      3.059
REMARK  Name = 
REMARK  4 active torsions:
REMARK  status: ('A' for Active; 'I' for Inactive)
REMARK    1  A    between atoms: C_2  and  C_3
REMARK    2  A    between atoms: C_3  and  N_4
REMARK    3  A    between atoms: C_10  and  O_11
REMARK    4  A    between atoms: O_11  and  C_12
REMARK                            x       y       z     vdW  Elec       q    Type
REMARK                         _______ _______ _______ _____ _____    ______ ____
ROOT
ATOM      1  N   UNL     1       6.027   6.089  16.746  0.00  0.00    +0.000 N 
ATOM      2  C   UNL     1       6.559   5.260  15.776  0.00  0.00    +0.000 A 
ATOM      3  N   UNL     1       7.659   5.342  15.119  0.00  0.00    +0.000 NA
ATOM      4  S   UNL     1       5.495   3.878  15.434  0.00  0.00    +0.000 S 
ATOM      5  C   UNL     1       4.328   4.466  16.639  0.00  0.00    +0.000 A 
ATOM      6  C   UNL     1       3.128   3.867  16.984  0.00  0.00    +0.000 A 
ATOM      7  C   UNL     1       2.326   4.473  17.952  0.00  0.00    +0.000 A 
ATOM      8  C   UNL     1       2.779   5.636  18.586  0.00  0.00    +0.000 A 
ATOM      9  C   UNL     1       3.996   6.238  18.217  0.00  0.00    +0.000 A 
ATOM     10  C   UNL     1       4.785   5.653  17.236  0.00  0.00    +0.000 A 
ATOM     11  H   UNL     1       8.179   6.172  15.396  0.00  0.00    +0.000 HD
ENDROOT
BRANCH   1  12
ATOM     12  C   UNL     1       6.693   7.265  17.270  0.00  0.00    +0.000 C 
BRANCH  12  14
ATOM     13  C   UNL     1       7.710   5.895  19.129  0.00  0.00    +0.000 C 
ATOM     14  C   UNL     1       7.802   6.856  18.201  0.00  0.00    +0.000 C 
ENDBRANCH  12  14
ENDBRANCH   1  12
BRANCH   7  15
ATOM     15  O   UNL     1       1.170   3.811  18.228  0.00  0.00    +0.000 OA
BRANCH  15  16
ATOM     16  C   UNL     1       1.176   2.734  19.155  0.00  0.00    +0.000 C 
ATOM     17  F   UNL     1       2.404   2.253  19.436  0.00  0.00    +0.000 F 
ATOM     18  F   UNL     1       0.625   3.163  20.313  0.00  0.00    +0.000 F 
ATOM     19  F   UNL     1       0.415   1.728  18.673  0.00  0.00    +0.000 F 
ENDBRANCH  15  16
ENDBRANCH   7  15
TORSDOF 4
ENDMDL
MODEL 5
REMARK VINA RESULT:      -7.0      1.725      2.924
REMARK  Name = 
REMARK  4 active torsions:
REMARK  status: ('A' for Active; 'I' for Inactive)
REMARK    1  A    between atoms: C_2  and  C_3
REMARK    2  A    between atoms: C_3  and  N_4
REMARK    3  A    between atoms: C_10  and  O_11
REMARK    4  A    between atoms: O_11  and  C_12
REMARK                            x       y       z     vdW  Elec       q    Type
REMARK                         _______ _______ _______ _____ _____    ______ ____
ROOT
ATOM      1  N   UNL     1       6.226   5.938  16.851  0.00  0.00    +0.000 N 
ATOM      2  C   UNL     1       6.720   5.262  15.751  0.00  0.00    +0.000 A 
ATOM      3  N   UNL     1       7.629   5.592  14.908  0.00  0.00    +0.000 NA
ATOM      4  S   UNL     1       5.922   3.689  15.532  0.00  0.00    +0.000 S 
ATOM      5  C   UNL     1       4.915   3.989  16.965  0.00  0.00    +0.000 A 
ATOM      6  C   UNL     1       3.957   3.139  17.490  0.00  0.00    +0.000 A 
ATOM      7  C   UNL     1       3.250   3.539  18.625  0.00  0.00    +0.000 A 
ATOM      8  C   UNL     1       3.564   4.760  19.232  0.00  0.00    +0.000 A 
ATOM      9  C   UNL     1       4.533   5.618  18.680  0.00  0.00    +0.000 A 
ATOM     10  C   UNL     1       5.221   5.235  17.536  0.00  0.00    +0.000 A 
ATOM     11  H   UNL     1       8.008   6.510  15.131  0.00  0.00    +0.000 HD
ENDROOT
BRANCH   1  12
ATOM     12  C   UNL     1       6.720   7.222  17.311  0.00  0.00    +0.000 C 
BRANCH  12  14
ATOM     13  C   UNL     1       8.040   6.096  19.143  0.00  0.00    +0.000 C 
ATOM     14  C   UNL     1       7.929   7.023  18.184  0.00  0.00    +0.000 C 
ENDBRANCH  12  14
ENDBRANCH   1  12
BRANCH   7  15
ATOM     15  O   UNL     1       2.333   2.638  19.071  0.00  0.00    +0.000 OA
BRANCH  15  16
ATOM     16  C   UNL     1       0.946   2.922  18.948  0.00  0.00    +0.000 C 
ATOM     17  F   UNL     1       0.385   3.436  20.063  0.00  0.00    +0.000 F 
ATOM     18  F   UNL     1       0.779   3.819  17.951  0.00  0.00    +0.000 F 
ATOM     19  F   UNL     1       0.288   1.791  18.613  0.00  0.00    +0.000 F 
ENDBRANCH  15  16
ENDBRANCH   7  15
TORSDOF 4
ENDMDL
MODEL 6
REMARK VINA RESULT:      -7.0      1.802      2.988
REMARK  Name = 
REMARK  4 active torsions:
REMARK  status: ('A' for Active; 'I' for Inactive)
REMARK    1  A    between atoms: C_2  and  C_3
REMARK    2  A    between atoms: C_3  and  N_4
REMARK    3  A    between atoms: C_10  and  O_11
REMARK    4  A    between atoms: O_11  and  C_12
REMARK                            x       y       z     vdW  Elec       q    Type
REMARK                         _______ _______ _______ _____ _____    ______ ____
ROOT
ATOM      1  N   UNL     1       6.675   5.024  17.372  0.00  0.00    +0.000 N 
ATOM      2  C   UNL     1       6.714   4.826  16.005  0.00  0.00    +0.000 A 
ATOM      3  N   UNL     1       7.686   4.929  15.174  0.00  0.00    +0.000 NA
ATOM      4  S   UNL     1       5.125   4.355  15.362  0.00  0.00    +0.000 S 
ATOM      5  C   UNL     1       4.429   4.439  16.995  0.00  0.00    +0.000 A 
ATOM      6  C   UNL     1       3.116   4.175  17.345  0.00  0.00    +0.000 A 
ATOM      7  C   UNL     1       2.737   4.297  18.683  0.00  0.00    +0.000 A 
ATOM      8  C   UNL     1       3.702   4.628  19.641  0.00  0.00    +0.000 A 
ATOM      9  C   UNL     1       5.031   4.902  19.268  0.00  0.00    +0.000 A 
ATOM     10  C   UNL     1       5.406   4.808  17.934  0.00  0.00    +0.000 A 
ATOM     11  H   UNL     1       8.540   5.207  15.654  0.00  0.00    +0.000 HD
ENDROOT
BRANCH   1  12
ATOM     12  C   UNL     1       7.830   5.363  18.182  0.00  0.00    +0.000 C 
BRANCH  12  14
ATOM     13  C   UNL     1       7.728   7.807  17.562  0.00  0.00    +0.000 C 
ATOM     14  C   UNL     1       7.834   6.838  18.479  0.00  0.00    +0.000 C 
ENDBRANCH  12  14
ENDBRANCH   1  12
BRANCH   7  15
ATOM     15  O   UNL     1       1.429   4.015  18.931  0.00  0.00    +0.000 OA
BRANCH  15  16
ATOM     16  C   UNL     1       1.060   2.720  19.385  0.00  0.00    +0.000 C 
ATOM     17  F   UNL     1       0.093   2.130  18.652  0.00  0.00    +0.000 F 
ATOM     18  F   UNL     1       2.152   1.924  19.344  0.00  0.00    +0.000 F 
ATOM     19  F   UNL     1       0.644   2.800  20.668  0.00  0.00    +0.000 F 
ENDBRANCH  15  16
ENDBRANCH   7  15
TORSDOF 4
ENDMDL
MODEL 7
REMARK VINA RESULT:      -6.7      1.504      1.605
REMARK  Name = 
REMARK  4 active torsions:
REMARK  status: ('A' for Active; 'I' for Inactive)
REMARK    1  A    between atoms: C_2  and  C_3
REMARK    2  A    between atoms: C_3  and  N_4
REMARK    3  A    between atoms: C_10  and  O_11
REMARK    4  A    between atoms: O_11  and  C_12
REMARK                            x       y       z     vdW  Elec       q    Type
REMARK                         _______ _______ _______ _____ _____    ______ ____
ROOT
ATOM      1  N   UNL     1       5.118   4.590  16.372  0.00  0.00    +0.000 N 
ATOM      2  C   UNL     1       5.038   5.969  16.409  0.00  0.00    +0.000 A 
ATOM      3  N   UNL     1       5.660   6.860  15.726  0.00  0.00    +0.000 NA
ATOM      4  S   UNL     1       3.866   6.529  17.623  0.00  0.00    +0.000 S 
ATOM      5  C   UNL     1       3.502   4.846  18.061  0.00  0.00    +0.000 A 
ATOM      6  C   UNL     1       2.595   4.422  19.018  0.00  0.00    +0.000 A 
ATOM      7  C   UNL     1       2.439   3.053  19.239  0.00  0.00    +0.000 A 
ATOM      8  C   UNL     1       3.160   2.146  18.454  0.00  0.00    +0.000 A 
ATOM      9  C   UNL     1       4.085   2.592  17.493  0.00  0.00    +0.000 A 
ATOM     10  C   UNL     1       4.263   3.954  17.287  0.00  0.00    +0.000 A 
ATOM     11  H   UNL     1       6.304   6.423  15.070  0.00  0.00    +0.000 HD
ENDROOT
BRANCH   1  12
ATOM     12  C   UNL     1       5.949   3.844  15.446  0.00  0.00    +0.000 C 
BRANCH  12  14
ATOM     13  C   UNL     1       5.984   3.503  12.947  0.00  0.00    +0.000 C 
ATOM     14  C   UNL     1       5.549   4.157  14.030  0.00  0.00    +0.000 C 
ENDBRANCH  12  14
ENDBRANCH   1  12
BRANCH   7  15
ATOM     15  O   UNL     1       1.524   2.732  20.194  0.00  0.00    +0.000 OA
BRANCH  15  16
ATOM     16  C   UNL     1       1.865   2.855  21.568  0.00  0.00    +0.000 C 
ATOM     17  F   UNL     1       2.061   4.126  21.978  0.00  0.00    +0.000 F 
ATOM     18  F   UNL     1       0.860   2.334  22.307  0.00  0.00    +0.000 F 
ATOM     19  F   UNL     1       2.984   2.142  21.815  0.00  0.00    +0.000 F 
ENDBRANCH  15  16
ENDBRANCH   7  15
TORSDOF 4
ENDMDL
MODEL 8
REMARK VINA RESULT:      -6.7      1.004      1.274
REMARK  Name = 
REMARK  4 active torsions:
REMARK  status: ('A' for Active; 'I' for Inactive)
REMARK    1  A    between atoms: C_2  and  C_3
REMARK    2  A    between atoms: C_3  and  N_4
REMARK    3  A    between atoms: C_10  and  O_11
REMARK    4  A    between atoms: O_11  and  C_12
REMARK                            x       y       z     vdW  Elec       q    Type
REMARK                         _______ _______ _______ _____ _____    ______ ____
ROOT
ATOM      1  N   UNL     1       5.494   5.312  16.441  0.00  0.00    +0.000 N 
ATOM      2  C   UNL     1       6.642   5.798  17.039  0.00  0.00    +0.000 A 
ATOM      3  N   UNL     1       7.737   6.222  16.523  0.00  0.00    +0.000 NA
ATOM      4  S   UNL     1       6.506   5.807  18.812  0.00  0.00    +0.000 S 
ATOM      5  C   UNL     1       4.864   5.139  18.700  0.00  0.00    +0.000 A 
ATOM      6  C   UNL     1       4.021   4.844  19.758  0.00  0.00    +0.000 A 
ATOM      7  C   UNL     1       2.758   4.315  19.487  0.00  0.00    +0.000 A 
ATOM      8  C   UNL     1       2.357   4.148  18.157  0.00  0.00    +0.000 A 
ATOM      9  C   UNL     1       3.229   4.442  17.093  0.00  0.00    +0.000 A 
ATOM     10  C   UNL     1       4.496   4.945  17.358  0.00  0.00    +0.000 A 
ATOM     11  H   UNL     1       7.699   6.165  15.507  0.00  0.00    +0.000 HD
ENDROOT
BRANCH   1  12
ATOM     12  C   UNL     1       5.290   5.235  15.007  0.00  0.00    +0.000 C 
BRANCH  12  14
ATOM     13  C   UNL     1       6.055   3.700  13.156  0.00  0.00    +0.000 C 
ATOM     14  C   UNL     1       5.990   4.023  14.453  0.00  0.00    +0.000 C 
ENDBRANCH  12  14
ENDBRANCH   1  12
BRANCH   7  15
ATOM     15  O   UNL     1       2.000   4.061  20.588  0.00  0.00    +0.000 OA
BRANCH  15  16
ATOM     16  C   UNL     1       1.883   2.731  21.073  0.00  0.00    +0.000 C 
ATOM     17  F   UNL     1       1.665   1.808  20.113  0.00  0.00    +0.000 F 
ATOM     18  F   UNL     1       3.031   2.403  21.707  0.00  0.00    +0.000 F 
ATOM     19  F   UNL     1       0.875   2.671  21.969  0.00  0.00    +0.000 F 
ENDBRANCH  15  16
ENDBRANCH   7  15
TORSDOF 4
ENDMDL
MODEL 9
REMARK VINA RESULT:      -6.7      1.068      1.372
REMARK  Name = 
REMARK  4 active torsions:
REMARK  status: ('A' for Active; 'I' for Inactive)
REMARK    1  A    between atoms: C_2  and  C_3
REMARK    2  A    between atoms: C_3  and  N_4
REMARK    3  A    between atoms: C_10  and  O_11
REMARK    4  A    between atoms: O_11  and  C_12
REMARK                            x       y       z     vdW  Elec       q    Type
REMARK                         _______ _______ _______ _____ _____    ______ ____
ROOT
ATOM      1  N   UNL     1       5.898   4.451  16.342  0.00  0.00    +0.000 N 
ATOM      2  C   UNL     1       6.462   5.672  16.661  0.00  0.00    +0.000 A 
ATOM      3  N   UNL     1       7.445   6.302  16.127  0.00  0.00    +0.000 NA
ATOM      4  S   UNL     1       5.645   6.435  18.043  0.00  0.00    +0.000 S 
ATOM      5  C   UNL     1       4.533   5.055  18.160  0.00  0.00    +0.000 A 
ATOM      6  C   UNL     1       3.505   4.901  19.074  0.00  0.00    +0.000 A 
ATOM      7  C   UNL     1       2.728   3.742  19.028  0.00  0.00    +0.000 A 
ATOM      8  C   UNL     1       2.973   2.794  18.027  0.00  0.00    +0.000 A 
ATOM      9  C   UNL     1       4.027   2.960  17.111  0.00  0.00    +0.000 A 
ATOM     10  C   UNL     1       4.819   4.099  17.171  0.00  0.00    +0.000 A 
ATOM     11  H   UNL     1       7.834   5.768  15.353  0.00  0.00    +0.000 HD
ENDROOT
BRANCH   1  12
ATOM     12  C   UNL     1       6.318   3.622  15.229  0.00  0.00    +0.000 C 
BRANCH  12  14
ATOM     13  C   UNL     1       5.824   3.546  12.756  0.00  0.00    +0.000 C 
ATOM     14  C   UNL     1       5.737   4.152  13.947  0.00  0.00    +0.000 C 
ENDBRANCH  12  14
ENDBRANCH   1  12
BRANCH   7  15
ATOM     15  O   UNL     1       1.741   3.681  19.962  0.00  0.00    +0.000 OA
BRANCH  15  16
ATOM     16  C   UNL     1       2.038   3.227  21.275  0.00  0.00    +0.000 C 
ATOM     17  F   UNL     1       3.084   2.377  21.344  0.00  0.00    +0.000 F 
ATOM     18  F   UNL     1       2.327   4.300  22.045  0.00  0.00    +0.000 F 
ATOM     19  F   UNL     1       0.949   2.618  21.792  0.00  0.00    +0.000 F 
ENDBRANCH  15  16
ENDBRANCH   7  15
TORSDOF 4
ENDMDL
