MODEL 1
REMARK VINA RESULT:      -6.9      0.000      0.000
REMARK  Name = 
REMARK  10 active torsions:
REMARK  status: ('A' for Active; 'I' for Inactive)
REMARK    1  A    between atoms: C_2  and  C_3
REMARK    2  A    between atoms: C_2  and  C_7
REMARK    3  A    between atoms: C_3  and  O_5
REMARK    4  A    between atoms: O_5  and  C_6
REMARK    5  A    between atoms: C_10  and  C_11
REMARK    6  A    between atoms: C_14  and  O_15
REMARK    7  A    between atoms: O_15  and  C_16
REMARK    8  A    between atoms: C_16  and  C_17
REMARK    9  A    between atoms: C_19  and  C_20
REMARK   10  A    between atoms: C_19  and  O_21
REMARK                            x       y       z     vdW  Elec       q    Type
REMARK                         _______ _______ _______ _____ _____    ______ ____
ROOT
ATOM      1  C   UNL     1       2.764   7.068  18.070  0.00  0.00    +0.000 C 
ATOM      2  C   UNL     1       2.190   5.640  18.175  0.00  0.00    +0.000 C 
ATOM      3  C   UNL     1       2.992   4.591  17.400  0.00  0.00    +0.000 C 
ATOM      4  C   UNL     1       4.510   4.629  17.718  0.00  0.00    +0.000 C 
ATOM      5  C   UNL     1       4.690   4.245  19.207  0.00  0.00    +0.000 C 
ATOM      6  C   UNL     1       5.219   3.562  16.843  0.00  0.00    +0.000 C 
ATOM      7  C   UNL     1       6.729   3.765  16.711  0.00  0.00    +0.000 C 
ATOM      8  C   UNL     1       7.074   5.174  16.212  0.00  0.00    +0.000 C 
ATOM      9  C   UNL     1       6.541   6.246  17.213  0.00  0.00    +0.000 C 
ATOM     10  C   UNL     1       7.312   6.268  18.536  0.00  0.00    +0.000 C 
ATOM     11  C   UNL     1       4.998   6.067  17.346  0.00  0.00    +0.000 C 
ATOM     12  C   UNL     1       4.304   7.136  18.207  0.00  0.00    +0.000 C 
ENDROOT
BRANCH   1  14
ATOM     13  C   UNL     1       1.780   7.668  20.328  0.00  0.00    +0.000 C 
ATOM     14  C   UNL     1       2.033   7.986  19.045  0.00  0.00    +0.000 C 
BRANCH  14  15
ATOM     15  C   UNL     1       1.574   9.295  18.477  0.00  0.00    +0.000 C 
ATOM     16  O   UNL     1       2.003   9.770  17.432  0.00  0.00    +0.000 OA
BRANCH  15  17
ATOM     17  O   UNL     1       0.621   9.864  19.261  0.00  0.00    +0.000 OA
ATOM     18  C   UNL     1      -0.542  10.297  18.559  0.00  0.00    +0.000 C 
ENDBRANCH  15  17
ENDBRANCH  14  15
ENDBRANCH   1  14
BRANCH   9  19
ATOM     19  O   UNL     1       6.764   7.555  16.641  0.00  0.00    +0.000 OA
ATOM     20  H   UNL     1       7.096   7.434  15.735  0.00  0.00    +0.000 HD
ENDBRANCH   9  19
BRANCH   8  21
ATOM     21  O   UNL     1       6.424   5.478  14.942  0.00  0.00    +0.000 OA
BRANCH  21  22
ATOM     22  C   UNL     1       6.938   5.032  13.775  0.00  0.00    +0.000 C 
ATOM     23  C   UNL     1       6.123   3.873  13.268  0.00  0.00    +0.000 C 
ATOM     24  O   UNL     1       7.878   5.533  13.176  0.00  0.00    +0.000 OA
ENDBRANCH  21  22
ENDBRANCH   8  21
TORSDOF 6
ENDMDL
MODEL 2
REMARK VINA RESULT:      -6.2      2.954      6.687
REMARK  Name = 
REMARK  10 active torsions:
REMARK  status: ('A' for Active; 'I' for Inactive)
REMARK    1  A    between atoms: C_2  and  C_3
REMARK    2  A    between atoms: C_2  and  C_7
REMARK    3  A    between atoms: C_3  and  O_5
REMARK    4  A    between atoms: O_5  and  C_6
REMARK    5  A    between atoms: C_10  and  C_11
REMARK    6  A    between atoms: C_14  and  O_15
REMARK    7  A    between atoms: O_15  and  C_16
REMARK    8  A    between atoms: C_16  and  C_17
REMARK    9  A    between atoms: C_19  and  C_20
REMARK   10  A    between atoms: C_19  and  O_21
REMARK                            x       y       z     vdW  Elec       q    Type
REMARK                         _______ _______ _______ _____ _____    ______ ____
ROOT
ATOM      1  C   UNL     1       5.400   4.818  14.763  0.00  0.00    +0.000 C 
ATOM      2  C   UNL     1       5.274   6.349  14.895  0.00  0.00    +0.000 C 
ATOM      3  C   UNL     1       4.359   6.800  16.036  0.00  0.00    +0.000 C 
ATOM      4  C   UNL     1       4.704   6.130  17.393  0.00  0.00    +0.000 C 
ATOM      5  C   UNL     1       6.119   6.605  17.806  0.00  0.00    +0.000 C 
ATOM      6  C   UNL     1       3.687   6.625  18.454  0.00  0.00    +0.000 C 
ATOM      7  C   UNL     1       3.613   5.748  19.705  0.00  0.00    +0.000 C 
ATOM      8  C   UNL     1       3.344   4.279  19.357  0.00  0.00    +0.000 C 
ATOM      9  C   UNL     1       4.490   3.719  18.458  0.00  0.00    +0.000 C 
ATOM     10  C   UNL     1       5.813   3.546  19.208  0.00  0.00    +0.000 C 
ATOM     11  C   UNL     1       4.567   4.590  17.166  0.00  0.00    +0.000 C 
ATOM     12  C   UNL     1       5.572   4.085  16.116  0.00  0.00    +0.000 C 
ENDROOT
BRANCH   1  14
ATOM     13  C   UNL     1       7.745   4.969  13.813  0.00  0.00    +0.000 C 
ATOM     14  C   UNL     1       6.493   4.479  13.754  0.00  0.00    +0.000 C 
BRANCH  14  15
ATOM     15  C   UNL     1       6.083   3.561  12.643  0.00  0.00    +0.000 C 
ATOM     16  O   UNL     1       6.878   2.985  11.909  0.00  0.00    +0.000 OA
BRANCH  15  17
ATOM     17  O   UNL     1       4.731   3.445  12.574  0.00  0.00    +0.000 OA
ATOM     18  C   UNL     1       4.222   3.213  11.263  0.00  0.00    +0.000 C 
ENDBRANCH  15  17
ENDBRANCH  14  15
ENDBRANCH   1  14
BRANCH   9  19
ATOM     19  O   UNL     1       4.131   2.382  18.040  0.00  0.00    +0.000 OA
ATOM     20  H   UNL     1       4.692   2.143  17.282  0.00  0.00    +0.000 HD
ENDBRANCH   9  19
BRANCH   8  21
ATOM     21  O   UNL     1       2.125   4.118  18.571  0.00  0.00    +0.000 OA
BRANCH  21  22
ATOM     22  C   UNL     1       1.149   3.275  18.970  0.00  0.00    +0.000 C 
ATOM     23  C   UNL     1       0.897   3.446  20.444  0.00  0.00    +0.000 C 
ATOM     24  O   UNL     1       0.508   2.533  18.239  0.00  0.00    +0.000 OA
ENDBRANCH  21  22
ENDBRANCH   8  21
TORSDOF 6
ENDMDL
MODEL 3
REMARK VINA RESULT:      -6.2      1.078      1.187
REMARK  Name = 
REMARK  10 active torsions:
REMARK  status: ('A' for Active; 'I' for Inactive)
REMARK    1  A    between atoms: C_2  and  C_3
REMARK    2  A    between atoms: C_2  and  C_7
REMARK    3  A    between atoms: C_3  and  O_5
REMARK    4  A    between atoms: O_5  and  C_6
REMARK    5  A    between atoms: C_10  and  C_11
REMARK    6  A    between atoms: C_14  and  O_15
REMARK    7  A    between atoms: O_15  and  C_16
REMARK    8  A    between atoms: C_16  and  C_17
REMARK    9  A    between atoms: C_19  and  C_20
REMARK   10  A    between atoms: C_19  and  O_21
REMARK                            x       y       z     vdW  Elec       q    Type
REMARK                         _______ _______ _______ _____ _____    ______ ____
ROOT
ATOM      1  C   UNL     1       2.369   6.968  18.053  0.00  0.00    +0.000 C 
ATOM      2  C   UNL     1       1.803   5.610  18.512  0.00  0.00    +0.000 C 
ATOM      3  C   UNL     1       2.393   4.408  17.770  0.00  0.00    +0.000 C 
ATOM      4  C   UNL     1       3.945   4.410  17.747  0.00  0.00    +0.000 C 
ATOM      5  C   UNL     1       4.438   4.255  19.207  0.00  0.00    +0.000 C 
ATOM      6  C   UNL     1       4.423   3.180  16.931  0.00  0.00    +0.000 C 
ATOM      7  C   UNL     1       5.871   3.274  16.450  0.00  0.00    +0.000 C 
ATOM      8  C   UNL     1       6.128   4.565  15.663  0.00  0.00    +0.000 C 
ATOM      9  C   UNL     1       5.850   5.809  16.562  0.00  0.00    +0.000 C 
ATOM     10  C   UNL     1       6.891   5.996  17.668  0.00  0.00    +0.000 C 
ATOM     11  C   UNL     1       4.369   5.741  17.047  0.00  0.00    +0.000 C 
ATOM     12  C   UNL     1       3.904   6.970  17.846  0.00  0.00    +0.000 C 
ENDROOT
BRANCH   1  14
ATOM     13  C   UNL     1       1.796   7.924  20.330  0.00  0.00    +0.000 C 
ATOM     14  C   UNL     1       1.889   8.068  18.994  0.00  0.00    +0.000 C 
BRANCH  14  15
ATOM     15  C   UNL     1       1.490   9.353  18.335  0.00  0.00    +0.000 C 
ATOM     16  O   UNL     1       2.125   9.876  17.426  0.00  0.00    +0.000 OA
BRANCH  15  17
ATOM     17  O   UNL     1       0.338   9.841  18.864  0.00  0.00    +0.000 OA
ATOM     18  C   UNL     1       0.384  11.223  19.212  0.00  0.00    +0.000 C 
ENDBRANCH  15  17
ENDBRANCH  14  15
ENDBRANCH   1  14
BRANCH   9  19
ATOM     19  O   UNL     1       5.969   6.998  15.746  0.00  0.00    +0.000 OA
ATOM     20  H   UNL     1       5.131   7.119  15.267  0.00  0.00    +0.000 HD
ENDBRANCH   9  19
BRANCH   8  21
ATOM     21  O   UNL     1       5.222   4.702  14.527  0.00  0.00    +0.000 OA
BRANCH  21  22
ATOM     22  C   UNL     1       5.521   4.150  13.331  0.00  0.00    +0.000 C 
ATOM     23  C   UNL     1       6.991   4.311  13.047  0.00  0.00    +0.000 C 
ATOM     24  O   UNL     1       4.740   3.543  12.614  0.00  0.00    +0.000 OA
ENDBRANCH  21  22
ENDBRANCH   8  21
TORSDOF 6
ENDMDL
MODEL 4
REMARK VINA RESULT:      -6.1      1.152      1.494
REMARK  Name = 
REMARK  10 active torsions:
REMARK  status: ('A' for Active; 'I' for Inactive)
REMARK    1  A    between atoms: C_2  and  C_3
REMARK    2  A    between atoms: C_2  and  C_7
REMARK    3  A    between atoms: C_3  and  O_5
REMARK    4  A    between atoms: O_5  and  C_6
REMARK    5  A    between atoms: C_10  and  C_11
REMARK    6  A    between atoms: C_14  and  O_15
REMARK    7  A    between atoms: O_15  and  C_16
REMARK    8  A    between atoms: C_16  and  C_17
REMARK    9  A    between atoms: C_19  and  C_20
REMARK   10  A    between atoms: C_19  and  O_21
REMARK                            x       y       z     vdW  Elec       q    Type
REMARK                         _______ _______ _______ _____ _____    ______ ____
ROOT
ATOM      1  C   UNL     1       2.453   7.601  17.748  0.00  0.00    +0.000 C 
ATOM      2  C   UNL     1       1.650   6.360  18.186  0.00  0.00    +0.000 C 
ATOM      3  C   UNL     1       2.243   5.035  17.702  0.00  0.00    +0.000 C 
ATOM      4  C   UNL     1       3.754   4.890  18.026  0.00  0.00    +0.000 C 
ATOM      5  C   UNL     1       3.903   4.851  19.567  0.00  0.00    +0.000 C 
ATOM      6  C   UNL     1       4.250   3.539  17.448  0.00  0.00    +0.000 C 
ATOM      7  C   UNL     1       5.769   3.444  17.296  0.00  0.00    +0.000 C 
ATOM      8  C   UNL     1       6.334   4.611  16.476  0.00  0.00    +0.000 C 
ATOM      9  C   UNL     1       6.015   5.967  17.179  0.00  0.00    +0.000 C 
ATOM     10  C   UNL     1       6.812   6.177  18.469  0.00  0.00    +0.000 C 
ATOM     11  C   UNL     1       4.468   6.090  17.325  0.00  0.00    +0.000 C 
ATOM     12  C   UNL     1       3.986   7.438  17.890  0.00  0.00    +0.000 C 
ENDROOT
BRANCH   1  14
ATOM     13  C   UNL     1       1.887  10.067  17.911  0.00  0.00    +0.000 C 
ATOM     14  C   UNL     1       1.913   8.838  18.459  0.00  0.00    +0.000 C 
BRANCH  14  15
ATOM     15  C   UNL     1       1.415   8.613  19.855  0.00  0.00    +0.000 C 
ATOM     16  O   UNL     1       1.963   7.870  20.661  0.00  0.00    +0.000 OA
BRANCH  15  17
ATOM     17  O   UNL     1       0.299   9.348  20.104  0.00  0.00    +0.000 OA
ATOM     18  C   UNL     1      -0.139   9.318  21.460  0.00  0.00    +0.000 C 
ENDBRANCH  15  17
ENDBRANCH  14  15
ENDBRANCH   1  14
BRANCH   9  19
ATOM     19  O   UNL     1       6.441   7.043  16.311  0.00  0.00    +0.000 OA
ATOM     20  H   UNL     1       6.999   6.661  15.611  0.00  0.00    +0.000 HD
ENDBRANCH   9  19
BRANCH   8  21
ATOM     21  O   UNL     1       5.713   4.706  15.159  0.00  0.00    +0.000 OA
BRANCH  21  22
ATOM     22  C   UNL     1       6.459   4.648  14.035  0.00  0.00    +0.000 C 
ATOM     23  C   UNL     1       5.872   3.638  13.085  0.00  0.00    +0.000 C 
ATOM     24  O   UNL     1       7.423   5.356  13.785  0.00  0.00    +0.000 OA
ENDBRANCH  21  22
ENDBRANCH   8  21
TORSDOF 6
ENDMDL
MODEL 5
REMARK VINA RESULT:      -5.8      0.709      1.019
REMARK  Name = 
REMARK  10 active torsions:
REMARK  status: ('A' for Active; 'I' for Inactive)
REMARK    1  A    between atoms: C_2  and  C_3
REMARK    2  A    between atoms: C_2  and  C_7
REMARK    3  A    between atoms: C_3  and  O_5
REMARK    4  A    between atoms: O_5  and  C_6
REMARK    5  A    between atoms: C_10  and  C_11
REMARK    6  A    between atoms: C_14  and  O_15
REMARK    7  A    between atoms: O_15  and  C_16
REMARK    8  A    between atoms: C_16  and  C_17
REMARK    9  A    between atoms: C_19  and  C_20
REMARK   10  A    between atoms: C_19  and  O_21
REMARK                            x       y       z     vdW  Elec       q    Type
REMARK                         _______ _______ _______ _____ _____    ______ ____
ROOT
ATOM      1  C   UNL     1       2.724   6.658  18.384  0.00  0.00    +0.000 C 
ATOM      2  C   UNL     1       2.250   5.191  18.353  0.00  0.00    +0.000 C 
ATOM      3  C   UNL     1       3.093   4.285  17.453  0.00  0.00    +0.000 C 
ATOM      4  C   UNL     1       4.615   4.394  17.735  0.00  0.00    +0.000 C 
ATOM      5  C   UNL     1       4.866   3.871  19.171  0.00  0.00    +0.000 C 
ATOM      6  C   UNL     1       5.365   3.474  16.737  0.00  0.00    +0.000 C 
ATOM      7  C   UNL     1       6.853   3.792  16.590  0.00  0.00    +0.000 C 
ATOM      8  C   UNL     1       7.089   5.266  16.233  0.00  0.00    +0.000 C 
ATOM      9  C   UNL     1       6.519   6.189  17.354  0.00  0.00    +0.000 C 
ATOM     10  C   UNL     1       7.328   6.128  18.652  0.00  0.00    +0.000 C 
ATOM     11  C   UNL     1       4.996   5.892  17.505  0.00  0.00    +0.000 C 
ATOM     12  C   UNL     1       4.261   6.817  18.490  0.00  0.00    +0.000 C 
ENDROOT
BRANCH   1  14
ATOM     13  C   UNL     1       1.641   6.893  20.664  0.00  0.00    +0.000 C 
ATOM     14  C   UNL     1       1.966   7.418  19.468  0.00  0.00    +0.000 C 
BRANCH  14  15
ATOM     15  C   UNL     1       1.566   8.818  19.114  0.00  0.00    +0.000 C 
ATOM     16  O   UNL     1       0.866   9.527  19.828  0.00  0.00    +0.000 OA
BRANCH  15  17
ATOM     17  O   UNL     1       2.091   9.193  17.917  0.00  0.00    +0.000 OA
ATOM     18  C   UNL     1       2.308  10.595  17.778  0.00  0.00    +0.000 C 
ENDBRANCH  15  17
ENDBRANCH  14  15
ENDBRANCH   1  14
BRANCH   9  19
ATOM     19  O   UNL     1       6.637   7.563  16.917  0.00  0.00    +0.000 OA
ATOM     20  H   UNL     1       5.739   7.923  16.812  0.00  0.00    +0.000 HD
ENDBRANCH   9  19
BRANCH   8  21
ATOM     21  O   UNL     1       6.381   5.654  15.018  0.00  0.00    +0.000 OA
BRANCH  21  22
ATOM     22  C   UNL     1       6.746   5.160  13.815  0.00  0.00    +0.000 C 
ATOM     23  C   UNL     1       5.718   4.169  13.337  0.00  0.00    +0.000 C 
ATOM     24  O   UNL     1       7.721   5.512  13.169  0.00  0.00    +0.000 OA
ENDBRANCH  21  22
ENDBRANCH   8  21
TORSDOF 6
ENDMDL
MODEL 6
REMARK VINA RESULT:      -5.8      3.048      6.624
REMARK  Name = 
REMARK  10 active torsions:
REMARK  status: ('A' for Active; 'I' for Inactive)
REMARK    1  A    between atoms: C_2  and  C_3
REMARK    2  A    between atoms: C_2  and  C_7
REMARK    3  A    between atoms: C_3  and  O_5
REMARK    4  A    between atoms: O_5  and  C_6
REMARK    5  A    between atoms: C_10  and  C_11
REMARK    6  A    between atoms: C_14  and  O_15
REMARK    7  A    between atoms: O_15  and  C_16
REMARK    8  A    between atoms: C_16  and  C_17
REMARK    9  A    between atoms: C_19  and  C_20
REMARK   10  A    between atoms: C_19  and  O_21
REMARK                            x       y       z     vdW  Elec       q    Type
REMARK                         _______ _______ _______ _____ _____    ______ ____
ROOT
ATOM      1  C   UNL     1       5.041   3.953  17.183  0.00  0.00    +0.000 C 
ATOM      2  C   UNL     1       4.218   2.732  16.728  0.00  0.00    +0.000 C 
ATOM      3  C   UNL     1       3.120   2.322  17.712  0.00  0.00    +0.000 C 
ATOM      4  C   UNL     1       2.211   3.506  18.138  0.00  0.00    +0.000 C 
ATOM      5  C   UNL     1       1.453   3.994  16.878  0.00  0.00    +0.000 C 
ATOM      6  C   UNL     1       1.175   2.982  19.166  0.00  0.00    +0.000 C 
ATOM      7  C   UNL     1       0.508   4.079  19.996  0.00  0.00    +0.000 C 
ATOM      8  C   UNL     1       1.540   4.976  20.692  0.00  0.00    +0.000 C 
ATOM      9  C   UNL     1       2.449   5.673  19.634  0.00  0.00    +0.000 C 
ATOM     10  C   UNL     1       1.715   6.745  18.823  0.00  0.00    +0.000 C 
ATOM     11  C   UNL     1       3.154   4.568  18.790  0.00  0.00    +0.000 C 
ATOM     12  C   UNL     1       4.187   5.098  17.780  0.00  0.00    +0.000 C 
ENDROOT
BRANCH   1  14
ATOM     13  C   UNL     1       5.604   4.361  14.745  0.00  0.00    +0.000 C 
ATOM     14  C   UNL     1       5.948   4.412  16.045  0.00  0.00    +0.000 C 
BRANCH  14  15
ATOM     15  C   UNL     1       7.297   4.918  16.459  0.00  0.00    +0.000 C 
ATOM     16  O   UNL     1       8.161   4.212  16.965  0.00  0.00    +0.000 OA
BRANCH  15  17
ATOM     17  O   UNL     1       7.431   6.242  16.186  0.00  0.00    +0.000 OA
ATOM     18  C   UNL     1       7.411   7.089  17.333  0.00  0.00    +0.000 C 
ENDBRANCH  15  17
ENDBRANCH  14  15
ENDBRANCH   1  14
BRANCH   9  19
ATOM     19  O   UNL     1       3.491   6.396  20.331  0.00  0.00    +0.000 OA
ATOM     20  H   UNL     1       3.836   7.079  19.731  0.00  0.00    +0.000 HD
ENDBRANCH   9  19
BRANCH   8  21
ATOM     21  O   UNL     1       2.451   4.207  21.535  0.00  0.00    +0.000 OA
BRANCH  21  22
ATOM     22  C   UNL     1       2.163   2.936  21.887  0.00  0.00    +0.000 C 
ATOM     23  C   UNL     1       3.277   2.021  21.452  0.00  0.00    +0.000 C 
ATOM     24  O   UNL     1       1.185   2.581  22.529  0.00  0.00    +0.000 OA
ENDBRANCH  21  22
ENDBRANCH   8  21
TORSDOF 6
ENDMDL
MODEL 7
REMARK VINA RESULT:      -5.8      3.152      4.957
REMARK  Name = 
REMARK  10 active torsions:
REMARK  status: ('A' for Active; 'I' for Inactive)
REMARK    1  A    between atoms: C_2  and  C_3
REMARK    2  A    between atoms: C_2  and  C_7
REMARK    3  A    between atoms: C_3  and  O_5
REMARK    4  A    between atoms: O_5  and  C_6
REMARK    5  A    between atoms: C_10  and  C_11
REMARK    6  A    between atoms: C_14  and  O_15
REMARK    7  A    between atoms: O_15  and  C_16
REMARK    8  A    between atoms: C_16  and  C_17
REMARK    9  A    between atoms: C_19  and  C_20
REMARK   10  A    between atoms: C_19  and  O_21
REMARK                            x       y       z     vdW  Elec       q    Type
REMARK                         _______ _______ _______ _____ _____    ______ ____
ROOT
ATOM      1  C   UNL     1       3.679   4.995  19.724  0.00  0.00    +0.000 C 
ATOM      2  C   UNL     1       2.781   5.246  18.497  0.00  0.00    +0.000 C 
ATOM      3  C   UNL     1       3.412   6.159  17.443  0.00  0.00    +0.000 C 
ATOM      4  C   UNL     1       4.842   5.716  17.032  0.00  0.00    +0.000 C 
ATOM      5  C   UNL     1       4.727   4.334  16.342  0.00  0.00    +0.000 C 
ATOM      6  C   UNL     1       5.394   6.737  16.003  0.00  0.00    +0.000 C 
ATOM      7  C   UNL     1       6.913   6.698  15.835  0.00  0.00    +0.000 C 
ATOM      8  C   UNL     1       7.639   6.852  17.178  0.00  0.00    +0.000 C 
ATOM      9  C   UNL     1       7.242   5.692  18.142  0.00  0.00    +0.000 C 
ATOM     10  C   UNL     1       7.813   4.336  17.719  0.00  0.00    +0.000 C 
ATOM     11  C   UNL     1       5.696   5.729  18.341  0.00  0.00    +0.000 C 
ATOM     12  C   UNL     1       5.161   4.719  19.371  0.00  0.00    +0.000 C 
ENDROOT
BRANCH   1  14
ATOM     13  C   UNL     1       2.098   4.142  21.513  0.00  0.00    +0.000 C 
ATOM     14  C   UNL     1       3.059   3.909  20.599  0.00  0.00    +0.000 C 
BRANCH  14  15
ATOM     15  C   UNL     1       3.606   2.529  20.399  0.00  0.00    +0.000 C 
ATOM     16  O   UNL     1       4.595   2.099  20.983  0.00  0.00    +0.000 OA
BRANCH  15  17
ATOM     17  O   UNL     1       2.858   1.826  19.509  0.00  0.00    +0.000 OA
ATOM     18  C   UNL     1       3.532   1.496  18.297  0.00  0.00    +0.000 C 
ENDBRANCH  15  17
ENDBRANCH  14  15
ENDBRANCH   1  14
BRANCH   9  19
ATOM     19  O   UNL     1       7.837   5.949  19.435  0.00  0.00    +0.000 OA
ATOM     20  H   UNL     1       7.456   5.320  20.072  0.00  0.00    +0.000 HD
ENDBRANCH   9  19
BRANCH   8  21
ATOM     21  O   UNL     1       7.253   8.077  17.870  0.00  0.00    +0.000 OA
BRANCH  21  22
ATOM     22  C   UNL     1       8.181   8.982  18.248  0.00  0.00    +0.000 C 
ATOM     23  C   UNL     1       7.954  10.281  17.521  0.00  0.00    +0.000 C 
ATOM     24  O   UNL     1       9.035   8.808  19.105  0.00  0.00    +0.000 OA
ENDBRANCH  21  22
ENDBRANCH   8  21
TORSDOF 6
ENDMDL
MODEL 8
REMARK VINA RESULT:      -5.6      2.354      6.744
REMARK  Name = 
REMARK  10 active torsions:
REMARK  status: ('A' for Active; 'I' for Inactive)
REMARK    1  A    between atoms: C_2  and  C_3
REMARK    2  A    between atoms: C_2  and  C_7
REMARK    3  A    between atoms: C_3  and  O_5
REMARK    4  A    between atoms: O_5  and  C_6
REMARK    5  A    between atoms: C_10  and  C_11
REMARK    6  A    between atoms: C_14  and  O_15
REMARK    7  A    between atoms: O_15  and  C_16
REMARK    8  A    between atoms: C_16  and  C_17
REMARK    9  A    between atoms: C_19  and  C_20
REMARK   10  A    between atoms: C_19  and  O_21
REMARK                            x       y       z     vdW  Elec       q    Type
REMARK                         _______ _______ _______ _____ _____    ______ ____
ROOT
ATOM      1  C   UNL     1       5.773   4.674  14.055  0.00  0.00    +0.000 C 
ATOM      2  C   UNL     1       6.894   5.555  14.642  0.00  0.00    +0.000 C 
ATOM      3  C   UNL     1       6.543   6.188  15.991  0.00  0.00    +0.000 C 
ATOM      4  C   UNL     1       6.014   5.159  17.026  0.00  0.00    +0.000 C 
ATOM      5  C   UNL     1       7.165   4.171  17.338  0.00  0.00    +0.000 C 
ATOM      6  C   UNL     1       5.648   5.919  18.327  0.00  0.00    +0.000 C 
ATOM      7  C   UNL     1       4.723   5.142  19.266  0.00  0.00    +0.000 C 
ATOM      8  C   UNL     1       3.450   4.671  18.551  0.00  0.00    +0.000 C 
ATOM      9  C   UNL     1       3.817   3.727  17.364  0.00  0.00    +0.000 C 
ATOM     10  C   UNL     1       4.349   2.366  17.821  0.00  0.00    +0.000 C 
ATOM     11  C   UNL     1       4.745   4.509  16.385  0.00  0.00    +0.000 C 
ATOM     12  C   UNL     1       5.092   3.750  15.094  0.00  0.00    +0.000 C 
ENDROOT
BRANCH   1  14
ATOM     13  C   UNL     1       7.559   4.033  12.373  0.00  0.00    +0.000 C 
ATOM     14  C   UNL     1       6.300   3.922  12.836  0.00  0.00    +0.000 C 
BRANCH  14  15
ATOM     15  C   UNL     1       5.306   3.041  12.143  0.00  0.00    +0.000 C 
ATOM     16  O   UNL     1       5.531   1.877  11.830  0.00  0.00    +0.000 OA
BRANCH  15  17
ATOM     17  O   UNL     1       4.134   3.694  11.927  0.00  0.00    +0.000 OA
ATOM     18  C   UNL     1       3.502   3.385  10.688  0.00  0.00    +0.000 C 
ENDBRANCH  15  17
ENDBRANCH  14  15
ENDBRANCH   1  14
BRANCH   9  19
ATOM     19  O   UNL     1       2.605   3.417  16.636  0.00  0.00    +0.000 OA
ATOM     20  H   UNL     1       2.588   3.968  15.835  0.00  0.00    +0.000 HD
ENDBRANCH   9  19
BRANCH   8  21
ATOM     21  O   UNL     1       2.720   5.780  17.948  0.00  0.00    +0.000 OA
BRANCH  21  22
ATOM     22  C   UNL     1       2.450   6.899  18.655  0.00  0.00    +0.000 C 
ATOM     23  C   UNL     1       2.643   8.112  17.784  0.00  0.00    +0.000 C 
ATOM     24  O   UNL     1       2.040   6.930  19.806  0.00  0.00    +0.000 OA
ENDBRANCH  21  22
ENDBRANCH   8  21
TORSDOF 6
ENDMDL
MODEL 9
REMARK VINA RESULT:      -5.6      7.002      9.489
REMARK  Name = 
REMARK  10 active torsions:
REMARK  status: ('A' for Active; 'I' for Inactive)
REMARK    1  A    between atoms: C_2  and  C_3
REMARK    2  A    between atoms: C_2  and  C_7
REMARK    3  A    between atoms: C_3  and  O_5
REMARK    4  A    between atoms: O_5  and  C_6
REMARK    5  A    between atoms: C_10  and  C_11
REMARK    6  A    between atoms: C_14  and  O_15
REMARK    7  A    between atoms: O_15  and  C_16
REMARK    8  A    between atoms: C_16  and  C_17
REMARK    9  A    between atoms: C_19  and  C_20
REMARK   10  A    between atoms: C_19  and  O_21
REMARK                            x       y       z     vdW  Elec       q    Type
REMARK                         _______ _______ _______ _____ _____    ______ ____
ROOT
ATOM      1  C   UNL     1      -2.190  12.159  22.500  0.00  0.00    +0.000 C 
ATOM      2  C   UNL     1      -1.112  11.218  23.073  0.00  0.00    +0.000 C 
ATOM      3  C   UNL     1      -0.580  10.196  22.065  0.00  0.00    +0.000 C 
ATOM      4  C   UNL     1      -0.132  10.840  20.726  0.00  0.00    +0.000 C 
ATOM      5  C   UNL     1       1.074  11.764  21.028  0.00  0.00    +0.000 C 
ATOM      6  C   UNL     1       0.338   9.710  19.773  0.00  0.00    +0.000 C 
ATOM      7  C   UNL     1       0.393  10.117  18.300  0.00  0.00    +0.000 C 
ATOM      8  C   UNL     1      -0.943  10.695  17.818  0.00  0.00    +0.000 C 
ATOM      9  C   UNL     1      -1.310  11.967  18.643  0.00  0.00    +0.000 C 
ATOM     10  C   UNL     1      -0.408  13.165  18.333  0.00  0.00    +0.000 C 
ATOM     11  C   UNL     1      -1.389  11.567  20.149  0.00  0.00    +0.000 C 
ATOM     12  C   UNL     1      -1.867  12.692  21.082  0.00  0.00    +0.000 C 
ENDROOT
BRANCH   1  14
ATOM     13  C   UNL     1      -1.586  14.187  23.897  0.00  0.00    +0.000 C 
ATOM     14  C   UNL     1      -2.488  13.268  23.505  0.00  0.00    +0.000 C 
BRANCH  14  15
ATOM     15  C   UNL     1      -3.876  13.269  24.070  0.00  0.00    +0.000 C 
ATOM     16  O   UNL     1      -4.205  12.632  25.064  0.00  0.00    +0.000 OA
BRANCH  15  17
ATOM     17  O   UNL     1      -4.700  14.074  23.350  0.00  0.00    +0.000 OA
ATOM     18  C   UNL     1      -5.009  15.318  23.975  0.00  0.00    +0.000 C 
ENDBRANCH  15  17
ENDBRANCH  14  15
ENDBRANCH   1  14
BRANCH   9  19
ATOM     19  O   UNL     1      -2.634  12.398  18.254  0.00  0.00    +0.000 OA
ATOM     20  H   UNL     1      -2.678  12.392  17.282  0.00  0.00    +0.000 HD
ENDBRANCH   9  19
BRANCH   8  21
ATOM     21  O   UNL     1      -2.049   9.767  18.031  0.00  0.00    +0.000 OA
BRANCH  21  22
ATOM     22  C   UNL     1      -3.181   9.856  17.300  0.00  0.00    +0.000 C 
ATOM     23  C   UNL     1      -2.851   9.750  15.834  0.00  0.00    +0.000 C 
ATOM     24  O   UNL     1      -4.314   9.936  17.751  0.00  0.00    +0.000 OA
ENDBRANCH  21  22
ENDBRANCH   8  21
TORSDOF 6
ENDMDL
