MODEL 1
REMARK VINA RESULT:      -6.2      0.000      0.000
REMARK  Name = 
REMARK  4 active torsions:
REMARK  status: ('A' for Active; 'I' for Inactive)
REMARK    1  A    between atoms: C_1  and  O_2
REMARK    2  A    between atoms: O_2  and  C_3
REMARK    3  A    between atoms: C_11  and  C_12
REMARK    4  A    between atoms: N_13  and  O_14
REMARK                            x       y       z     vdW  Elec       q    Type
REMARK                         _______ _______ _______ _____ _____    ______ ____
ROOT
ATOM      1  C   UNL     1       2.034   3.892  19.578  0.00  0.00    +0.000 A 
ATOM      2  C   UNL     1       1.692   3.595  18.248  0.00  0.00    +0.000 A 
ATOM      3  C   UNL     1       2.631   3.662  17.207  0.00  0.00    +0.000 A 
ATOM      4  C   UNL     1       3.934   4.038  17.542  0.00  0.00    +0.000 A 
ATOM      5  C   UNL     1       4.272   4.333  18.871  0.00  0.00    +0.000 A 
ATOM      6  C   UNL     1       3.344   4.266  19.910  0.00  0.00    +0.000 A 
ATOM      7  N   UNL     1       5.587   4.659  18.854  0.00  0.00    +0.000 N 
ATOM      8  O   UNL     1       6.353   5.002  19.789  0.00  0.00    +0.000 OA
ATOM      9  C   UNL     1       6.054   4.584  17.634  0.00  0.00    +0.000 A 
ATOM     10  C   UNL     1       7.446   4.873  17.216  0.00  0.00    +0.000 C 
ATOM     11  N   UNL     1       5.069   4.197  16.776  0.00  0.00    +0.000 N 
ENDROOT
BRANCH   1  13
ATOM     12  C   UNL     1       1.329   2.771  21.555  0.00  0.00    +0.000 C 
ATOM     13  O   UNL     1       1.169   3.850  20.641  0.00  0.00    +0.000 OA
ENDBRANCH   1  13
BRANCH  11  14
ATOM     14  O   UNL     1       5.148   3.982  15.412  0.00  0.00    +0.000 OA
ATOM     15  H   UNL     1       5.957   3.456  15.341  0.00  0.00    +0.000 HD
ENDBRANCH  11  14
TORSDOF 2
ENDMDL
MODEL 2
REMARK VINA RESULT:      -6.1      1.656      1.819
REMARK  Name = 
REMARK  4 active torsions:
REMARK  status: ('A' for Active; 'I' for Inactive)
REMARK    1  A    between atoms: C_1  and  O_2
REMARK    2  A    between atoms: O_2  and  C_3
REMARK    3  A    between atoms: C_11  and  C_12
REMARK    4  A    between atoms: N_13  and  O_14
REMARK                            x       y       z     vdW  Elec       q    Type
REMARK                         _______ _______ _______ _____ _____    ______ ____
ROOT
ATOM      1  C   UNL     1       3.573   3.004  18.761  0.00  0.00    +0.000 A 
ATOM      2  C   UNL     1       3.191   3.387  17.464  0.00  0.00    +0.000 A 
ATOM      3  C   UNL     1       3.881   4.379  16.749  0.00  0.00    +0.000 A 
ATOM      4  C   UNL     1       4.973   4.980  17.378  0.00  0.00    +0.000 A 
ATOM      5  C   UNL     1       5.351   4.595  18.673  0.00  0.00    +0.000 A 
ATOM      6  C   UNL     1       4.672   3.608  19.387  0.00  0.00    +0.000 A 
ATOM      7  N   UNL     1       6.425   5.360  18.987  0.00  0.00    +0.000 N 
ATOM      8  O   UNL     1       7.122   5.395  20.032  0.00  0.00    +0.000 OA
ATOM      9  C   UNL     1       6.713   6.162  17.993  0.00  0.00    +0.000 A 
ATOM     10  C   UNL     1       7.816   7.150  17.965  0.00  0.00    +0.000 C 
ATOM     11  N   UNL     1       5.843   5.966  16.963  0.00  0.00    +0.000 N 
ENDROOT
BRANCH   1  13
ATOM     12  C   UNL     1       1.884   2.486  20.356  0.00  0.00    +0.000 C 
ATOM     13  O   UNL     1       2.945   2.047  19.515  0.00  0.00    +0.000 OA
ENDBRANCH   1  13
BRANCH  11  14
ATOM     14  O   UNL     1       5.810   6.591  15.730  0.00  0.00    +0.000 OA
ATOM     15  H   UNL     1       5.746   7.523  15.983  0.00  0.00    +0.000 HD
ENDBRANCH  11  14
TORSDOF 2
ENDMDL
MODEL 3
REMARK VINA RESULT:      -6.1      1.889      2.963
REMARK  Name = 
REMARK  4 active torsions:
REMARK  status: ('A' for Active; 'I' for Inactive)
REMARK    1  A    between atoms: C_1  and  O_2
REMARK    2  A    between atoms: O_2  and  C_3
REMARK    3  A    between atoms: C_11  and  C_12
REMARK    4  A    between atoms: N_13  and  O_14
REMARK                            x       y       z     vdW  Elec       q    Type
REMARK                         _______ _______ _______ _____ _____    ______ ____
ROOT
ATOM      1  C   UNL     1       3.039   3.453  18.044  0.00  0.00    +0.000 A 
ATOM      2  C   UNL     1       3.697   3.078  19.228  0.00  0.00    +0.000 A 
ATOM      3  C   UNL     1       4.888   3.694  19.642  0.00  0.00    +0.000 A 
ATOM      4  C   UNL     1       5.406   4.704  18.828  0.00  0.00    +0.000 A 
ATOM      5  C   UNL     1       4.746   5.075  17.646  0.00  0.00    +0.000 A 
ATOM      6  C   UNL     1       3.561   4.470  17.231  0.00  0.00    +0.000 A 
ATOM      7  N   UNL     1       5.498   6.062  17.099  0.00  0.00    +0.000 N 
ATOM      8  O   UNL     1       5.333   6.718  16.041  0.00  0.00    +0.000 OA
ATOM      9  C   UNL     1       6.541   6.304  17.851  0.00  0.00    +0.000 A 
ATOM     10  C   UNL     1       7.595   7.309  17.580  0.00  0.00    +0.000 C 
ATOM     11  N   UNL     1       6.532   5.490  18.944  0.00  0.00    +0.000 N 
ENDROOT
BRANCH   1  13
ATOM     12  C   UNL     1       0.938   2.461  18.556  0.00  0.00    +0.000 C 
ATOM     13  O   UNL     1       1.877   2.895  17.579  0.00  0.00    +0.000 OA
ENDBRANCH   1  13
BRANCH  11  14
ATOM     14  O   UNL     1       7.438   5.437  19.988  0.00  0.00    +0.000 OA
ATOM     15  H   UNL     1       6.854   5.318  20.750  0.00  0.00    +0.000 HD
ENDBRANCH  11  14
TORSDOF 2
ENDMDL
MODEL 4
REMARK VINA RESULT:      -6.0      2.259      4.688
REMARK  Name = 
REMARK  4 active torsions:
REMARK  status: ('A' for Active; 'I' for Inactive)
REMARK    1  A    between atoms: C_1  and  O_2
REMARK    2  A    between atoms: O_2  and  C_3
REMARK    3  A    between atoms: C_11  and  C_12
REMARK    4  A    between atoms: N_13  and  O_14
REMARK                            x       y       z     vdW  Elec       q    Type
REMARK                         _______ _______ _______ _____ _____    ______ ____
ROOT
ATOM      1  C   UNL     1       5.338   6.030  16.855  0.00  0.00    +0.000 A 
ATOM      2  C   UNL     1       5.386   4.792  16.192  0.00  0.00    +0.000 A 
ATOM      3  C   UNL     1       4.515   3.741  16.519  0.00  0.00    +0.000 A 
ATOM      4  C   UNL     1       3.588   3.969  17.539  0.00  0.00    +0.000 A 
ATOM      5  C   UNL     1       3.544   5.207  18.198  0.00  0.00    +0.000 A 
ATOM      6  C   UNL     1       4.404   6.256  17.876  0.00  0.00    +0.000 A 
ATOM      7  N   UNL     1       2.553   5.099  19.118  0.00  0.00    +0.000 N 
ATOM      8  O   UNL     1       2.127   5.933  19.956  0.00  0.00    +0.000 OA
ATOM      9  C   UNL     1       2.012   3.909  19.060  0.00  0.00    +0.000 A 
ATOM     10  C   UNL     1       0.904   3.415  19.911  0.00  0.00    +0.000 C 
ATOM     11  N   UNL     1       2.614   3.165  18.091  0.00  0.00    +0.000 N 
ENDROOT
BRANCH   1  13
ATOM     12  C   UNL     1       7.308   7.242  17.414  0.00  0.00    +0.000 C 
ATOM     13  O   UNL     1       6.157   7.097  16.590  0.00  0.00    +0.000 OA
ENDBRANCH   1  13
BRANCH  11  14
ATOM     14  O   UNL     1       2.331   1.870  17.697  0.00  0.00    +0.000 OA
ATOM     15  H   UNL     1       2.365   1.395  18.539  0.00  0.00    +0.000 HD
ENDBRANCH  11  14
TORSDOF 2
ENDMDL
MODEL 5
REMARK VINA RESULT:      -6.0      1.947      5.145
REMARK  Name = 
REMARK  4 active torsions:
REMARK  status: ('A' for Active; 'I' for Inactive)
REMARK    1  A    between atoms: C_1  and  O_2
REMARK    2  A    between atoms: O_2  and  C_3
REMARK    3  A    between atoms: C_11  and  C_12
REMARK    4  A    between atoms: N_13  and  O_14
REMARK                            x       y       z     vdW  Elec       q    Type
REMARK                         _______ _______ _______ _____ _____    ______ ____
ROOT
ATOM      1  C   UNL     1       6.074   4.515  17.153  0.00  0.00    +0.000 A 
ATOM      2  C   UNL     1       6.210   5.338  18.284  0.00  0.00    +0.000 A 
ATOM      3  C   UNL     1       5.213   5.415  19.270  0.00  0.00    +0.000 A 
ATOM      4  C   UNL     1       4.068   4.637  19.087  0.00  0.00    +0.000 A 
ATOM      5  C   UNL     1       3.936   3.817  17.956  0.00  0.00    +0.000 A 
ATOM      6  C   UNL     1       4.924   3.734  16.974  0.00  0.00    +0.000 A 
ATOM      7  N   UNL     1       2.730   3.211  18.078  0.00  0.00    +0.000 N 
ATOM      8  O   UNL     1       2.152   2.388  17.324  0.00  0.00    +0.000 OA
ATOM      9  C   UNL     1       2.139   3.601  19.179  0.00  0.00    +0.000 A 
ATOM     10  C   UNL     1       0.806   3.162  19.653  0.00  0.00    +0.000 C 
ATOM     11  N   UNL     1       2.929   4.486  19.848  0.00  0.00    +0.000 N 
ENDROOT
BRANCH   1  13
ATOM     12  C   UNL     1       6.505   4.279  14.825  0.00  0.00    +0.000 C 
ATOM     13  O   UNL     1       7.003   4.393  16.153  0.00  0.00    +0.000 OA
ENDBRANCH   1  13
BRANCH  11  14
ATOM     14  O   UNL     1       2.687   5.119  21.054  0.00  0.00    +0.000 OA
ATOM     15  H   UNL     1       2.685   4.374  21.672  0.00  0.00    +0.000 HD
ENDBRANCH  11  14
TORSDOF 2
ENDMDL
MODEL 6
REMARK VINA RESULT:      -6.0      2.952      3.728
REMARK  Name = 
REMARK  4 active torsions:
REMARK  status: ('A' for Active; 'I' for Inactive)
REMARK    1  A    between atoms: C_1  and  O_2
REMARK    2  A    between atoms: O_2  and  C_3
REMARK    3  A    between atoms: C_11  and  C_12
REMARK    4  A    between atoms: N_13  and  O_14
REMARK                            x       y       z     vdW  Elec       q    Type
REMARK                         _______ _______ _______ _____ _____    ______ ____
ROOT
ATOM      1  C   UNL     1       2.438   7.562  18.815  0.00  0.00    +0.000 A 
ATOM      2  C   UNL     1       2.534   6.538  19.772  0.00  0.00    +0.000 A 
ATOM      3  C   UNL     1       3.430   5.467  19.627  0.00  0.00    +0.000 A 
ATOM      4  C   UNL     1       4.233   5.453  18.485  0.00  0.00    +0.000 A 
ATOM      5  C   UNL     1       4.135   6.479  17.532  0.00  0.00    +0.000 A 
ATOM      6  C   UNL     1       3.249   7.547  17.672  0.00  0.00    +0.000 A 
ATOM      7  N   UNL     1       5.033   6.170  16.564  0.00  0.00    +0.000 N 
ATOM      8  O   UNL     1       5.321   6.771  15.499  0.00  0.00    +0.000 OA
ATOM      9  C   UNL     1       5.649   5.054  16.860  0.00  0.00    +0.000 A 
ATOM     10  C   UNL     1       6.693   4.393  16.043  0.00  0.00    +0.000 C 
ATOM     11  N   UNL     1       5.194   4.566  18.048  0.00  0.00    +0.000 N 
ENDROOT
BRANCH   1  13
ATOM     12  C   UNL     1       1.735   9.643  17.901  0.00  0.00    +0.000 C 
ATOM     13  O   UNL     1       1.587   8.633  18.892  0.00  0.00    +0.000 OA
ENDBRANCH   1  13
BRANCH  11  14
ATOM     14  O   UNL     1       5.594   3.428  18.724  0.00  0.00    +0.000 OA
ATOM     15  H   UNL     1       6.125   3.800  19.442  0.00  0.00    +0.000 HD
ENDBRANCH  11  14
TORSDOF 2
ENDMDL
MODEL 7
REMARK VINA RESULT:      -5.9      2.134      4.983
REMARK  Name = 
REMARK  4 active torsions:
REMARK  status: ('A' for Active; 'I' for Inactive)
REMARK    1  A    between atoms: C_1  and  O_2
REMARK    2  A    between atoms: O_2  and  C_3
REMARK    3  A    between atoms: C_11  and  C_12
REMARK    4  A    between atoms: N_13  and  O_14
REMARK                            x       y       z     vdW  Elec       q    Type
REMARK                         _______ _______ _______ _____ _____    ______ ____
ROOT
ATOM      1  C   UNL     1       4.787   4.737  16.447  0.00  0.00    +0.000 A 
ATOM      2  C   UNL     1       4.643   6.022  16.998  0.00  0.00    +0.000 A 
ATOM      3  C   UNL     1       3.910   6.248  18.173  0.00  0.00    +0.000 A 
ATOM      4  C   UNL     1       3.320   5.139  18.785  0.00  0.00    +0.000 A 
ATOM      5  C   UNL     1       3.467   3.858  18.232  0.00  0.00    +0.000 A 
ATOM      6  C   UNL     1       4.196   3.626  17.066  0.00  0.00    +0.000 A 
ATOM      7  N   UNL     1       2.783   3.022  19.051  0.00  0.00    +0.000 N 
ATOM      8  O   UNL     1       2.610   1.779  18.986  0.00  0.00    +0.000 OA
ATOM      9  C   UNL     1       2.246   3.696  20.036  0.00  0.00    +0.000 A 
ATOM     10  C   UNL     1       1.420   3.131  21.128  0.00  0.00    +0.000 C 
ATOM     11  N   UNL     1       2.552   5.018  19.923  0.00  0.00    +0.000 N 
ENDROOT
BRANCH   1  13
ATOM     12  C   UNL     1       6.891   4.662  15.338  0.00  0.00    +0.000 C 
ATOM     13  O   UNL     1       5.485   4.445  15.304  0.00  0.00    +0.000 OA
ENDBRANCH   1  13
BRANCH  11  14
ATOM     14  O   UNL     1       2.199   6.061  20.760  0.00  0.00    +0.000 OA
ATOM     15  H   UNL     1       1.793   5.590  21.502  0.00  0.00    +0.000 HD
ENDBRANCH  11  14
TORSDOF 2
ENDMDL
MODEL 8
REMARK VINA RESULT:      -5.9      2.249      5.020
REMARK  Name = 
REMARK  4 active torsions:
REMARK  status: ('A' for Active; 'I' for Inactive)
REMARK    1  A    between atoms: C_1  and  O_2
REMARK    2  A    between atoms: O_2  and  C_3
REMARK    3  A    between atoms: C_11  and  C_12
REMARK    4  A    between atoms: N_13  and  O_14
REMARK                            x       y       z     vdW  Elec       q    Type
REMARK                         _______ _______ _______ _____ _____    ______ ____
ROOT
ATOM      1  C   UNL     1       5.447   5.429  15.750  0.00  0.00    +0.000 A 
ATOM      2  C   UNL     1       5.172   6.609  16.461  0.00  0.00    +0.000 A 
ATOM      3  C   UNL     1       4.438   6.601  17.658  0.00  0.00    +0.000 A 
ATOM      4  C   UNL     1       3.985   5.365  18.124  0.00  0.00    +0.000 A 
ATOM      5  C   UNL     1       4.262   4.189  17.411  0.00  0.00    +0.000 A 
ATOM      6  C   UNL     1       4.993   4.190  16.223  0.00  0.00    +0.000 A 
ATOM      7  N   UNL     1       3.688   3.185  18.119  0.00  0.00    +0.000 N 
ATOM      8  O   UNL     1       3.652   1.949  17.895  0.00  0.00    +0.000 OA
ATOM      9  C   UNL     1       3.097   3.664  19.183  0.00  0.00    +0.000 A 
ATOM     10  C   UNL     1       2.357   2.877  20.196  0.00  0.00    +0.000 C 
ATOM     11  N   UNL     1       3.253   5.016  19.239  0.00  0.00    +0.000 N 
ENDROOT
BRANCH   1  13
ATOM     12  C   UNL     1       6.293   4.079  13.983  0.00  0.00    +0.000 C 
ATOM     13  O   UNL     1       6.154   5.364  14.577  0.00  0.00    +0.000 OA
ENDBRANCH   1  13
BRANCH  11  14
ATOM     14  O   UNL     1       2.802   5.898  20.205  0.00  0.00    +0.000 OA
ATOM     15  H   UNL     1       2.625   6.692  19.680  0.00  0.00    +0.000 HD
ENDBRANCH  11  14
TORSDOF 2
ENDMDL
MODEL 9
REMARK VINA RESULT:      -5.9      2.225      4.599
REMARK  Name = 
REMARK  4 active torsions:
REMARK  status: ('A' for Active; 'I' for Inactive)
REMARK    1  A    between atoms: C_1  and  O_2
REMARK    2  A    between atoms: O_2  and  C_3
REMARK    3  A    between atoms: C_11  and  C_12
REMARK    4  A    between atoms: N_13  and  O_14
REMARK                            x       y       z     vdW  Elec       q    Type
REMARK                         _______ _______ _______ _____ _____    ______ ____
ROOT
ATOM      1  C   UNL     1       6.333   6.097  18.058  0.00  0.00    +0.000 A 
ATOM      2  C   UNL     1       5.315   6.641  17.257  0.00  0.00    +0.000 A 
ATOM      3  C   UNL     1       4.048   6.044  17.161  0.00  0.00    +0.000 A 
ATOM      4  C   UNL     1       3.831   4.876  17.895  0.00  0.00    +0.000 A 
ATOM      5  C   UNL     1       4.851   4.336  18.694  0.00  0.00    +0.000 A 
ATOM      6  C   UNL     1       6.110   4.926  18.797  0.00  0.00    +0.000 A 
ATOM      7  N   UNL     1       4.325   3.222  19.260  0.00  0.00    +0.000 N 
ATOM      8  O   UNL     1       4.839   2.392  20.051  0.00  0.00    +0.000 OA
ATOM      9  C   UNL     1       3.088   3.057  18.866  0.00  0.00    +0.000 A 
ATOM     10  C   UNL     1       2.189   1.950  19.265  0.00  0.00    +0.000 C 
ATOM     11  N   UNL     1       2.727   4.060  18.018  0.00  0.00    +0.000 N 
ENDROOT
BRANCH   1  13
ATOM     12  C   UNL     1       7.805   7.923  17.656  0.00  0.00    +0.000 C 
ATOM     13  O   UNL     1       7.591   6.625  18.197  0.00  0.00    +0.000 OA
ENDBRANCH   1  13
BRANCH  11  14
ATOM     14  O   UNL     1       1.509   4.267  17.395  0.00  0.00    +0.000 OA
ATOM     15  H   UNL     1       1.650   5.122  16.965  0.00  0.00    +0.000 HD
ENDBRANCH  11  14
TORSDOF 2
ENDMDL
