MODEL 1
REMARK VINA RESULT:      -7.9      0.000      0.000
REMARK  Name = 
REMARK  8 active torsions:
REMARK  status: ('A' for Active; 'I' for Inactive)
REMARK    1  A    between atoms: C_1  and  N_2
REMARK    2  A    between atoms: N_2  and  C_3
REMARK    3  A    between atoms: C_3  and  C_4
REMARK    4  A    between atoms: C_4  and  C_5
REMARK    5  A    between atoms: C_5  and  C_6
REMARK    6  A    between atoms: C_6  and  N_7
REMARK    7  A    between atoms: C_13  and  C_15
REMARK    8  A    between atoms: C_20  and  C_21
REMARK                            x       y       z     vdW  Elec       q    Type
REMARK                         _______ _______ _______ _____ _____    ______ ____
ROOT
ATOM      1  C   UNL     1       1.242   9.630  19.258  0.00  0.00    +0.000 A 
ATOM      2  C   UNL     1       1.003   9.003  20.490  0.00  0.00    +0.000 A 
ATOM      3  C   UNL     1       1.529   7.730  20.774  0.00  0.00    +0.000 A 
ATOM      4  C   UNL     1       2.244   7.068  19.768  0.00  0.00    +0.000 A 
ATOM      5  N   UNL     1       2.881   5.856  19.763  0.00  0.00    +0.000 NA
ATOM      6  C   UNL     1       3.388   5.769  18.547  0.00  0.00    +0.000 A 
ATOM      7  O   UNL     1       3.113   6.844  17.738  0.00  0.00    +0.000 OA
ATOM      8  C   UNL     1       2.391   7.682  18.536  0.00  0.00    +0.000 A 
ATOM      9  C   UNL     1       1.908   8.944  18.219  0.00  0.00    +0.000 A 
ENDROOT
BRANCH   6  10
ATOM     10  C   UNL     1       4.293   4.723  17.965  0.00  0.00    +0.000 C 
ATOM     11  C   UNL     1       4.997   3.887  19.047  0.00  0.00    +0.000 C 
ATOM     12  C   UNL     1       4.084   2.842  19.695  0.00  0.00    +0.000 C 
ATOM     13  C   UNL     1       3.396   1.962  18.660  0.00  0.00    +0.000 C 
ATOM     14  C   UNL     1       2.660   2.785  17.606  0.00  0.00    +0.000 C 
ATOM     15  C   UNL     1       3.570   3.823  16.952  0.00  0.00    +0.000 C 
ENDBRANCH   6  10
BRANCH   1  18
ATOM     16  C   UNL     1      -0.770  12.730  18.303  0.00  0.00    +0.000 C 
ATOM     17  N   UNL     1      -0.492  11.311  18.503  0.00  0.00    +0.000 N 
ATOM     18  C   UNL     1       0.803  11.020  18.963  0.00  0.00    +0.000 C 
ATOM     19  O   UNL     1       1.620  11.911  19.202  0.00  0.00    +0.000 OA
BRANCH  17  20
ATOM     20  C   UNL     1      -1.632  10.397  18.346  0.00  0.00    +0.000 C 
BRANCH  20  21
ATOM     21  C   UNL     1      -2.235  10.282  16.944  0.00  0.00    +0.000 C 
BRANCH  21  22
ATOM     22  C   UNL     1      -3.700  10.703  16.898  0.00  0.00    +0.000 C 
BRANCH  22  23
ATOM     23  C   UNL     1      -4.137  11.261  18.256  0.00  0.00    +0.000 C 
BRANCH  23  24
ATOM     24  N   UNL     1      -5.387  12.034  18.188  0.00  0.00    +0.000 NA
ATOM     25  C   UNL     1      -5.604  12.921  19.357  0.00  0.00    +0.000 C 
ATOM     26  C   UNL     1      -5.910  12.165  20.657  0.00  0.00    +0.000 C 
ATOM     27  O   UNL     1      -7.065  11.328  20.505  0.00  0.00    +0.000 OA
ATOM     28  C   UNL     1      -6.893  10.405  19.421  0.00  0.00    +0.000 C 
ATOM     29  C   UNL     1      -6.558  11.127  18.101  0.00  0.00    +0.000 C 
ENDBRANCH  23  24
ENDBRANCH  22  23
ENDBRANCH  21  22
ENDBRANCH  20  21
ENDBRANCH  17  20
ENDBRANCH   1  18
TORSDOF 7
ENDMDL
MODEL 2
REMARK VINA RESULT:      -7.7      2.314      3.578
REMARK  Name = 
REMARK  8 active torsions:
REMARK  status: ('A' for Active; 'I' for Inactive)
REMARK    1  A    between atoms: C_1  and  N_2
REMARK    2  A    between atoms: N_2  and  C_3
REMARK    3  A    between atoms: C_3  and  C_4
REMARK    4  A    between atoms: C_4  and  C_5
REMARK    5  A    between atoms: C_5  and  C_6
REMARK    6  A    between atoms: C_6  and  N_7
REMARK    7  A    between atoms: C_13  and  C_15
REMARK    8  A    between atoms: C_20  and  C_21
REMARK                            x       y       z     vdW  Elec       q    Type
REMARK                         _______ _______ _______ _____ _____    ______ ____
ROOT
ATOM      1  C   UNL     1       0.735   9.181  20.516  0.00  0.00    +0.000 A 
ATOM      2  C   UNL     1       0.808   9.870  19.295  0.00  0.00    +0.000 A 
ATOM      3  C   UNL     1       1.533   9.351  18.208  0.00  0.00    +0.000 A 
ATOM      4  C   UNL     1       2.242   8.158  18.392  0.00  0.00    +0.000 A 
ATOM      5  N   UNL     1       3.001   7.417  17.526  0.00  0.00    +0.000 NA
ATOM      6  C   UNL     1       3.407   6.393  18.255  0.00  0.00    +0.000 A 
ATOM      7  O   UNL     1       2.977   6.419  19.559  0.00  0.00    +0.000 OA
ATOM      8  C   UNL     1       2.215   7.547  19.634  0.00  0.00    +0.000 A 
ATOM      9  C   UNL     1       1.497   8.013  20.728  0.00  0.00    +0.000 A 
ENDROOT
BRANCH   6  10
ATOM     10  C   UNL     1       4.178   5.175  17.841  0.00  0.00    +0.000 C 
ATOM     11  C   UNL     1       5.042   5.423  16.592  0.00  0.00    +0.000 C 
ATOM     12  C   UNL     1       6.316   6.219  16.886  0.00  0.00    +0.000 C 
ATOM     13  C   UNL     1       7.126   5.607  18.020  0.00  0.00    +0.000 C 
ATOM     14  C   UNL     1       6.285   5.397  19.277  0.00  0.00    +0.000 C 
ATOM     15  C   UNL     1       5.017   4.595  18.989  0.00  0.00    +0.000 C 
ENDBRANCH   6  10
BRANCH   1  18
ATOM     16  C   UNL     1      -1.424  11.231  22.905  0.00  0.00    +0.000 C 
ATOM     17  N   UNL     1      -0.568  10.962  21.753  0.00  0.00    +0.000 N 
ATOM     18  C   UNL     1      -0.113   9.638  21.648  0.00  0.00    +0.000 C 
ATOM     19  O   UNL     1      -0.445   8.774  22.461  0.00  0.00    +0.000 OA
BRANCH  17  20
ATOM     20  C   UNL     1      -0.419  12.058  20.784  0.00  0.00    +0.000 C 
BRANCH  20  21
ATOM     21  C   UNL     1      -1.597  13.027  20.653  0.00  0.00    +0.000 C 
BRANCH  21  22
ATOM     22  C   UNL     1      -2.695  12.497  19.738  0.00  0.00    +0.000 C 
BRANCH  22  23
ATOM     23  C   UNL     1      -2.084  11.850  18.490  0.00  0.00    +0.000 C 
BRANCH  23  24
ATOM     24  N   UNL     1      -2.698  10.558  18.150  0.00  0.00    +0.000 NA
ATOM     25  C   UNL     1      -2.200   9.978  16.879  0.00  0.00    +0.000 C 
ATOM     26  C   UNL     1      -2.651  10.747  15.630  0.00  0.00    +0.000 C 
ATOM     27  O   UNL     1      -4.082  10.821  15.561  0.00  0.00    +0.000 OA
ATOM     28  C   UNL     1      -4.623  11.428  16.742  0.00  0.00    +0.000 C 
ATOM     29  C   UNL     1      -4.170  10.697  18.022  0.00  0.00    +0.000 C 
ENDBRANCH  23  24
ENDBRANCH  22  23
ENDBRANCH  21  22
ENDBRANCH  20  21
ENDBRANCH  17  20
ENDBRANCH   1  18
TORSDOF 7
ENDMDL
MODEL 3
REMARK VINA RESULT:      -7.7      1.378      1.737
REMARK  Name = 
REMARK  8 active torsions:
REMARK  status: ('A' for Active; 'I' for Inactive)
REMARK    1  A    between atoms: C_1  and  N_2
REMARK    2  A    between atoms: N_2  and  C_3
REMARK    3  A    between atoms: C_3  and  C_4
REMARK    4  A    between atoms: C_4  and  C_5
REMARK    5  A    between atoms: C_5  and  C_6
REMARK    6  A    between atoms: C_6  and  N_7
REMARK    7  A    between atoms: C_13  and  C_15
REMARK    8  A    between atoms: C_20  and  C_21
REMARK                            x       y       z     vdW  Elec       q    Type
REMARK                         _______ _______ _______ _____ _____    ______ ____
ROOT
ATOM      1  C   UNL     1       1.146   9.645  19.723  0.00  0.00    +0.000 A 
ATOM      2  C   UNL     1       1.718   9.788  18.450  0.00  0.00    +0.000 A 
ATOM      3  C   UNL     1       2.431   8.736  17.849  0.00  0.00    +0.000 A 
ATOM      4  C   UNL     1       2.617   7.557  18.581  0.00  0.00    +0.000 A 
ATOM      5  N   UNL     1       3.234   6.379  18.252  0.00  0.00    +0.000 NA
ATOM      6  C   UNL     1       3.087   5.632  19.331  0.00  0.00    +0.000 A 
ATOM      7  O   UNL     1       2.422   6.248  20.363  0.00  0.00    +0.000 OA
ATOM      8  C   UNL     1       2.110   7.479  19.866  0.00  0.00    +0.000 A 
ATOM      9  C   UNL     1       1.383   8.484  20.491  0.00  0.00    +0.000 A 
ENDROOT
BRANCH   6  10
ATOM     10  C   UNL     1       3.450   4.193  19.550  0.00  0.00    +0.000 C 
ATOM     11  C   UNL     1       2.463   3.474  20.485  0.00  0.00    +0.000 C 
ATOM     12  C   UNL     1       1.138   3.113  19.807  0.00  0.00    +0.000 C 
ATOM     13  C   UNL     1       1.350   2.343  18.511  0.00  0.00    +0.000 C 
ATOM     14  C   UNL     1       2.295   3.072  17.559  0.00  0.00    +0.000 C 
ATOM     15  C   UNL     1       3.621   3.425  18.231  0.00  0.00    +0.000 C 
ENDBRANCH   6  10
BRANCH   1  18
ATOM     16  C   UNL     1      -1.639  12.136  20.504  0.00  0.00    +0.000 C 
ATOM     17  N   UNL     1      -0.899  11.135  19.741  0.00  0.00    +0.000 N 
ATOM     18  C   UNL     1       0.289  10.690  20.343  0.00  0.00    +0.000 C 
ATOM     19  O   UNL     1       0.650  11.104  21.447  0.00  0.00    +0.000 OA
BRANCH  17  20
ATOM     20  C   UNL     1      -1.559  10.618  18.533  0.00  0.00    +0.000 C 
BRANCH  20  21
ATOM     21  C   UNL     1      -2.430  11.604  17.750  0.00  0.00    +0.000 C 
BRANCH  21  22
ATOM     22  C   UNL     1      -3.755  10.993  17.308  0.00  0.00    +0.000 C 
BRANCH  22  23
ATOM     23  C   UNL     1      -4.695  10.834  18.508  0.00  0.00    +0.000 C 
BRANCH  23  24
ATOM     24  N   UNL     1      -5.675  11.925  18.622  0.00  0.00    +0.000 NA
ATOM     25  C   UNL     1      -5.355  12.903  19.690  0.00  0.00    +0.000 C 
ATOM     26  C   UNL     1      -5.516  12.343  21.110  0.00  0.00    +0.000 C 
ATOM     27  O   UNL     1      -6.850  11.863  21.325  0.00  0.00    +0.000 OA
ATOM     28  C   UNL     1      -7.199  10.866  20.355  0.00  0.00    +0.000 C 
ATOM     29  C   UNL     1      -7.026  11.385  18.913  0.00  0.00    +0.000 C 
ENDBRANCH  23  24
ENDBRANCH  22  23
ENDBRANCH  21  22
ENDBRANCH  20  21
ENDBRANCH  17  20
ENDBRANCH   1  18
TORSDOF 7
ENDMDL
MODEL 4
REMARK VINA RESULT:      -7.5      1.218      2.042
REMARK  Name = 
REMARK  8 active torsions:
REMARK  status: ('A' for Active; 'I' for Inactive)
REMARK    1  A    between atoms: C_1  and  N_2
REMARK    2  A    between atoms: N_2  and  C_3
REMARK    3  A    between atoms: C_3  and  C_4
REMARK    4  A    between atoms: C_4  and  C_5
REMARK    5  A    between atoms: C_5  and  C_6
REMARK    6  A    between atoms: C_6  and  N_7
REMARK    7  A    between atoms: C_13  and  C_15
REMARK    8  A    between atoms: C_20  and  C_21
REMARK                            x       y       z     vdW  Elec       q    Type
REMARK                         _______ _______ _______ _____ _____    ______ ____
ROOT
ATOM      1  C   UNL     1       1.294   9.542  19.119  0.00  0.00    +0.000 A 
ATOM      2  C   UNL     1       1.074   8.929  20.362  0.00  0.00    +0.000 A 
ATOM      3  C   UNL     1       1.641   7.680  20.670  0.00  0.00    +0.000 A 
ATOM      4  C   UNL     1       2.380   7.025  19.677  0.00  0.00    +0.000 A 
ATOM      5  N   UNL     1       3.057   5.834  19.695  0.00  0.00    +0.000 NA
ATOM      6  C   UNL     1       3.569   5.742  18.481  0.00  0.00    +0.000 A 
ATOM      7  O   UNL     1       3.260   6.793  17.652  0.00  0.00    +0.000 OA
ATOM      8  C   UNL     1       2.509   7.620  18.435  0.00  0.00    +0.000 A 
ATOM      9  C   UNL     1       1.984   8.860  18.095  0.00  0.00    +0.000 A 
ENDROOT
BRANCH   6  10
ATOM     10  C   UNL     1       4.509   4.717  17.919  0.00  0.00    +0.000 C 
ATOM     11  C   UNL     1       4.743   4.900  16.410  0.00  0.00    +0.000 C 
ATOM     12  C   UNL     1       5.691   6.056  16.080  0.00  0.00    +0.000 C 
ATOM     13  C   UNL     1       7.002   5.959  16.847  0.00  0.00    +0.000 C 
ATOM     14  C   UNL     1       6.778   5.820  18.350  0.00  0.00    +0.000 C 
ATOM     15  C   UNL     1       5.840   4.661  18.683  0.00  0.00    +0.000 C 
ENDBRANCH   6  10
BRANCH   1  18
ATOM     16  C   UNL     1      -0.843  12.571  18.213  0.00  0.00    +0.000 C 
ATOM     17  N   UNL     1      -0.528  11.167  18.457  0.00  0.00    +0.000 N 
ATOM     18  C   UNL     1       0.809  10.910  18.800  0.00  0.00    +0.000 C 
ATOM     19  O   UNL     1       1.635  11.819  18.909  0.00  0.00    +0.000 OA
BRANCH  17  20
ATOM     20  C   UNL     1      -1.666  10.236  18.462  0.00  0.00    +0.000 C 
BRANCH  20  21
ATOM     21  C   UNL     1      -2.554  10.227  17.215  0.00  0.00    +0.000 C 
BRANCH  21  22
ATOM     22  C   UNL     1      -4.041  10.230  17.552  0.00  0.00    +0.000 C 
BRANCH  22  23
ATOM     23  C   UNL     1      -4.602  11.654  17.476  0.00  0.00    +0.000 C 
BRANCH  23  24
ATOM     24  N   UNL     1      -6.069  11.692  17.378  0.00  0.00    +0.000 NA
ATOM     25  C   UNL     1      -6.636  13.061  17.460  0.00  0.00    +0.000 C 
ATOM     26  C   UNL     1      -6.514  13.697  18.851  0.00  0.00    +0.000 C 
ATOM     27  O   UNL     1      -7.152  12.885  19.846  0.00  0.00    +0.000 OA
ATOM     28  C   UNL     1      -6.605  11.560  19.856  0.00  0.00    +0.000 C 
ATOM     29  C   UNL     1      -6.686  10.896  18.467  0.00  0.00    +0.000 C 
ENDBRANCH  23  24
ENDBRANCH  22  23
ENDBRANCH  21  22
ENDBRANCH  20  21
ENDBRANCH  17  20
ENDBRANCH   1  18
TORSDOF 7
ENDMDL
MODEL 5
REMARK VINA RESULT:      -7.5      4.767     10.281
REMARK  Name = 
REMARK  8 active torsions:
REMARK  status: ('A' for Active; 'I' for Inactive)
REMARK    1  A    between atoms: C_1  and  N_2
REMARK    2  A    between atoms: N_2  and  C_3
REMARK    3  A    between atoms: C_3  and  C_4
REMARK    4  A    between atoms: C_4  and  C_5
REMARK    5  A    between atoms: C_5  and  C_6
REMARK    6  A    between atoms: C_6  and  N_7
REMARK    7  A    between atoms: C_13  and  C_15
REMARK    8  A    between atoms: C_20  and  C_21
REMARK                            x       y       z     vdW  Elec       q    Type
REMARK                         _______ _______ _______ _____ _____    ______ ____
ROOT
ATOM      1  C   UNL     1       4.217   6.272  17.723  0.00  0.00    +0.000 A 
ATOM      2  C   UNL     1       3.751   5.781  18.952  0.00  0.00    +0.000 A 
ATOM      3  C   UNL     1       2.750   6.454  19.674  0.00  0.00    +0.000 A 
ATOM      4  C   UNL     1       2.273   7.671  19.170  0.00  0.00    +0.000 A 
ATOM      5  N   UNL     1       1.304   8.520  19.632  0.00  0.00    +0.000 NA
ATOM      6  C   UNL     1       1.283   9.494  18.741  0.00  0.00    +0.000 A 
ATOM      7  O   UNL     1       2.193   9.351  17.722  0.00  0.00    +0.000 OA
ATOM      8  C   UNL     1       2.813   8.168  17.997  0.00  0.00    +0.000 A 
ATOM      9  C   UNL     1       3.787   7.527  17.242  0.00  0.00    +0.000 A 
ENDROOT
BRANCH   6  10
ATOM     10  C   UNL     1       0.354  10.667  18.632  0.00  0.00    +0.000 C 
ATOM     11  C   UNL     1      -0.885  10.519  19.531  0.00  0.00    +0.000 C 
ATOM     12  C   UNL     1      -0.597  10.793  21.009  0.00  0.00    +0.000 C 
ATOM     13  C   UNL     1       0.098  12.131  21.220  0.00  0.00    +0.000 C 
ATOM     14  C   UNL     1       1.353  12.267  20.361  0.00  0.00    +0.000 C 
ATOM     15  C   UNL     1       1.066  12.003  18.884  0.00  0.00    +0.000 C 
ENDBRANCH   6  10
BRANCH   1  18
ATOM     16  C   UNL     1       7.386   4.883  16.111  0.00  0.00    +0.000 C 
ATOM     17  N   UNL     1       6.575   5.721  16.990  0.00  0.00    +0.000 N 
ATOM     18  C   UNL     1       5.188   5.531  16.876  0.00  0.00    +0.000 C 
ATOM     19  O   UNL     1       4.711   4.694  16.107  0.00  0.00    +0.000 OA
BRANCH  17  20
ATOM     20  C   UNL     1       7.307   6.533  17.973  0.00  0.00    +0.000 C 
BRANCH  20  21
ATOM     21  C   UNL     1       7.631   7.974  17.571  0.00  0.00    +0.000 C 
BRANCH  21  22
ATOM     22  C   UNL     1       8.614   8.643  18.525  0.00  0.00    +0.000 C 
BRANCH  22  23
ATOM     23  C   UNL     1       8.738  10.136  18.203  0.00  0.00    +0.000 C 
BRANCH  23  24
ATOM     24  N   UNL     1       9.698  10.837  19.070  0.00  0.00    +0.000 NA
ATOM     25  C   UNL     1       9.140  12.048  19.718  0.00  0.00    +0.000 C 
ATOM     26  C   UNL     1       8.875  13.204  18.744  0.00  0.00    +0.000 C 
ATOM     27  O   UNL     1      10.074  13.575  18.049  0.00  0.00    +0.000 OA
ATOM     28  C   UNL     1      10.632  12.454  17.352  0.00  0.00    +0.000 C 
ATOM     29  C   UNL     1      10.889  11.262  18.295  0.00  0.00    +0.000 C 
ENDBRANCH  23  24
ENDBRANCH  22  23
ENDBRANCH  21  22
ENDBRANCH  20  21
ENDBRANCH  17  20
ENDBRANCH   1  18
TORSDOF 7
ENDMDL
MODEL 6
REMARK VINA RESULT:      -7.3      3.207      9.759
REMARK  Name = 
REMARK  8 active torsions:
REMARK  status: ('A' for Active; 'I' for Inactive)
REMARK    1  A    between atoms: C_1  and  N_2
REMARK    2  A    between atoms: N_2  and  C_3
REMARK    3  A    between atoms: C_3  and  C_4
REMARK    4  A    between atoms: C_4  and  C_5
REMARK    5  A    between atoms: C_5  and  C_6
REMARK    6  A    between atoms: C_6  and  N_7
REMARK    7  A    between atoms: C_13  and  C_15
REMARK    8  A    between atoms: C_20  and  C_21
REMARK                            x       y       z     vdW  Elec       q    Type
REMARK                         _______ _______ _______ _____ _____    ______ ____
ROOT
ATOM      1  C   UNL     1       3.151   6.559  19.184  0.00  0.00    +0.000 A 
ATOM      2  C   UNL     1       3.274   7.155  17.920  0.00  0.00    +0.000 A 
ATOM      3  C   UNL     1       2.588   8.341  17.603  0.00  0.00    +0.000 A 
ATOM      4  C   UNL     1       1.720   8.881  18.560  0.00  0.00    +0.000 A 
ATOM      5  N   UNL     1       0.954  10.016  18.544  0.00  0.00    +0.000 NA
ATOM      6  C   UNL     1       0.359  10.014  19.723  0.00  0.00    +0.000 A 
ATOM      7  O   UNL     1       0.672   8.937  20.516  0.00  0.00    +0.000 OA
ATOM      8  C   UNL     1       1.560   8.223  19.767  0.00  0.00    +0.000 A 
ATOM      9  C   UNL     1       2.232   7.063  20.129  0.00  0.00    +0.000 A 
ENDROOT
BRANCH   6  10
ATOM     10  C   UNL     1      -0.520  11.057  20.349  0.00  0.00    +0.000 C 
ATOM     11  C   UNL     1       0.257  11.989  21.294  0.00  0.00    +0.000 C 
ATOM     12  C   UNL     1       1.098  13.035  20.557  0.00  0.00    +0.000 C 
ATOM     13  C   UNL     1       0.278  13.817  19.541  0.00  0.00    +0.000 C 
ATOM     14  C   UNL     1      -0.462  12.899  18.573  0.00  0.00    +0.000 C 
ATOM     15  C   UNL     1      -1.309  11.860  19.305  0.00  0.00    +0.000 C 
ENDBRANCH   6  10
BRANCH   1  18
ATOM     16  C   UNL     1       4.363   3.016  19.925  0.00  0.00    +0.000 C 
ATOM     17  N   UNL     1       3.435   4.068  19.520  0.00  0.00    +0.000 N 
ATOM     18  C   UNL     1       3.947   5.373  19.595  0.00  0.00    +0.000 C 
ATOM     19  O   UNL     1       5.106   5.593  19.952  0.00  0.00    +0.000 OA
BRANCH  17  20
ATOM     20  C   UNL     1       2.155   3.621  18.950  0.00  0.00    +0.000 C 
BRANCH  20  21
ATOM     21  C   UNL     1       2.008   3.716  17.429  0.00  0.00    +0.000 C 
BRANCH  21  22
ATOM     22  C   UNL     1       3.181   3.088  16.685  0.00  0.00    +0.000 C 
BRANCH  22  23
ATOM     23  C   UNL     1       4.223   4.155  16.332  0.00  0.00    +0.000 C 
BRANCH  23  24
ATOM     24  N   UNL     1       5.601   3.643  16.348  0.00  0.00    +0.000 NA
ATOM     25  C   UNL     1       6.521   4.436  17.200  0.00  0.00    +0.000 C 
ATOM     26  C   UNL     1       6.834   5.830  16.641  0.00  0.00    +0.000 C 
ATOM     27  O   UNL     1       7.402   5.741  15.327  0.00  0.00    +0.000 OA
ATOM     28  C   UNL     1       6.529   5.032  14.437  0.00  0.00    +0.000 C 
ATOM     29  C   UNL     1       6.171   3.634  14.978  0.00  0.00    +0.000 C 
ENDBRANCH  23  24
ENDBRANCH  22  23
ENDBRANCH  21  22
ENDBRANCH  20  21
ENDBRANCH  17  20
ENDBRANCH   1  18
TORSDOF 7
ENDMDL
MODEL 7
REMARK VINA RESULT:      -7.3      3.276      9.707
REMARK  Name = 
REMARK  8 active torsions:
REMARK  status: ('A' for Active; 'I' for Inactive)
REMARK    1  A    between atoms: C_1  and  N_2
REMARK    2  A    between atoms: N_2  and  C_3
REMARK    3  A    between atoms: C_3  and  C_4
REMARK    4  A    between atoms: C_4  and  C_5
REMARK    5  A    between atoms: C_5  and  C_6
REMARK    6  A    between atoms: C_6  and  N_7
REMARK    7  A    between atoms: C_13  and  C_15
REMARK    8  A    between atoms: C_20  and  C_21
REMARK                            x       y       z     vdW  Elec       q    Type
REMARK                         _______ _______ _______ _____ _____    ______ ____
ROOT
ATOM      1  C   UNL     1       2.088   6.492  19.584  0.00  0.00    +0.000 A 
ATOM      2  C   UNL     1       2.283   6.924  18.263  0.00  0.00    +0.000 A 
ATOM      3  C   UNL     1       2.108   8.272  17.903  0.00  0.00    +0.000 A 
ATOM      4  C   UNL     1       1.666   9.168  18.884  0.00  0.00    +0.000 A 
ATOM      5  N   UNL     1       1.436  10.517  18.834  0.00  0.00    +0.000 NA
ATOM      6  C   UNL     1       1.046  10.818  20.059  0.00  0.00    +0.000 A 
ATOM      7  O   UNL     1       0.988   9.746  20.917  0.00  0.00    +0.000 OA
ATOM      8  C   UNL     1       1.404   8.693  20.157  0.00  0.00    +0.000 A 
ATOM      9  C   UNL     1       1.582   7.376  20.561  0.00  0.00    +0.000 A 
ENDROOT
BRANCH   6  10
ATOM     10  C   UNL     1       0.757  12.160  20.665  0.00  0.00    +0.000 C 
ATOM     11  C   UNL     1       0.502  13.241  19.601  0.00  0.00    +0.000 C 
ATOM     12  C   UNL     1      -0.886  13.148  18.963  0.00  0.00    +0.000 C 
ATOM     13  C   UNL     1      -1.994  13.110  20.007  0.00  0.00    +0.000 C 
ATOM     14  C   UNL     1      -1.770  12.011  21.042  0.00  0.00    +0.000 C 
ATOM     15  C   UNL     1      -0.388  12.106  21.686  0.00  0.00    +0.000 C 
ENDBRANCH   6  10
BRANCH   1  18
ATOM     16  C   UNL     1       2.821   2.749  19.719  0.00  0.00    +0.000 C 
ATOM     17  N   UNL     1       2.500   4.040  19.118  0.00  0.00    +0.000 N 
ATOM     18  C   UNL     1       2.373   5.102  20.027  0.00  0.00    +0.000 C 
ATOM     19  O   UNL     1       2.552   4.943  21.236  0.00  0.00    +0.000 OA
BRANCH  17  20
ATOM     20  C   UNL     1       2.501   4.092  17.648  0.00  0.00    +0.000 C 
BRANCH  20  21
ATOM     21  C   UNL     1       3.612   3.319  16.933  0.00  0.00    +0.000 C 
BRANCH  21  22
ATOM     22  C   UNL     1       4.627   4.237  16.262  0.00  0.00    +0.000 C 
BRANCH  22  23
ATOM     23  C   UNL     1       5.806   4.508  17.203  0.00  0.00    +0.000 C 
BRANCH  23  24
ATOM     24  N   UNL     1       5.580   5.653  18.098  0.00  0.00    +0.000 NA
ATOM     25  C   UNL     1       5.974   6.956  17.509  0.00  0.00    +0.000 C 
ATOM     26  C   UNL     1       7.490   7.128  17.348  0.00  0.00    +0.000 C 
ATOM     27  O   UNL     1       8.160   6.981  18.608  0.00  0.00    +0.000 OA
ATOM     28  C   UNL     1       7.864   5.711  19.203  0.00  0.00    +0.000 C 
ATOM     29  C   UNL     1       6.346   5.491  19.358  0.00  0.00    +0.000 C 
ENDBRANCH  23  24
ENDBRANCH  22  23
ENDBRANCH  21  22
ENDBRANCH  20  21
ENDBRANCH  17  20
ENDBRANCH   1  18
TORSDOF 7
ENDMDL
MODEL 8
REMARK VINA RESULT:      -7.2      2.387      3.667
REMARK  Name = 
REMARK  8 active torsions:
REMARK  status: ('A' for Active; 'I' for Inactive)
REMARK    1  A    between atoms: C_1  and  N_2
REMARK    2  A    between atoms: N_2  and  C_3
REMARK    3  A    between atoms: C_3  and  C_4
REMARK    4  A    between atoms: C_4  and  C_5
REMARK    5  A    between atoms: C_5  and  C_6
REMARK    6  A    between atoms: C_6  and  N_7
REMARK    7  A    between atoms: C_13  and  C_15
REMARK    8  A    between atoms: C_20  and  C_21
REMARK                            x       y       z     vdW  Elec       q    Type
REMARK                         _______ _______ _______ _____ _____    ______ ____
ROOT
ATOM      1  C   UNL     1       1.114   8.719  20.092  0.00  0.00    +0.000 A 
ATOM      2  C   UNL     1       1.223   9.286  18.813  0.00  0.00    +0.000 A 
ATOM      3  C   UNL     1       2.017   8.690  17.816  0.00  0.00    +0.000 A 
ATOM      4  C   UNL     1       2.754   7.547  18.151  0.00  0.00    +0.000 A 
ATOM      5  N   UNL     1       3.576   6.752  17.398  0.00  0.00    +0.000 NA
ATOM      6  C   UNL     1       3.979   5.822  18.244  0.00  0.00    +0.000 A 
ATOM      7  O   UNL     1       3.486   5.960  19.519  0.00  0.00    +0.000 OA
ATOM      8  C   UNL     1       2.686   7.062  19.446  0.00  0.00    +0.000 A 
ATOM      9  C   UNL     1       1.901   7.606  20.454  0.00  0.00    +0.000 A 
ENDROOT
BRANCH   6  10
ATOM     10  C   UNL     1       4.808   4.597  17.989  0.00  0.00    +0.000 C 
ATOM     11  C   UNL     1       4.664   4.081  16.547  0.00  0.00    +0.000 C 
ATOM     12  C   UNL     1       5.446   4.912  15.526  0.00  0.00    +0.000 C 
ATOM     13  C   UNL     1       6.906   5.081  15.922  0.00  0.00    +0.000 C 
ATOM     14  C   UNL     1       7.055   5.634  17.337  0.00  0.00    +0.000 C 
ATOM     15  C   UNL     1       6.284   4.802  18.360  0.00  0.00    +0.000 C 
ENDBRANCH   6  10
BRANCH   1  18
ATOM     16  C   UNL     1      -0.801  10.974  22.504  0.00  0.00    +0.000 C 
ATOM     17  N   UNL     1       0.188  10.611  21.494  0.00  0.00    +0.000 N 
ATOM     18  C   UNL     1       0.198   9.254  21.133  0.00  0.00    +0.000 C 
ATOM     19  O   UNL     1      -0.597   8.449  21.623  0.00  0.00    +0.000 OA
BRANCH  17  20
ATOM     20  C   UNL     1       0.932  11.723  20.883  0.00  0.00    +0.000 C 
BRANCH  20  21
ATOM     21  C   UNL     1       0.316  12.359  19.634  0.00  0.00    +0.000 C 
BRANCH  21  22
ATOM     22  C   UNL     1      -1.196  12.520  19.741  0.00  0.00    +0.000 C 
BRANCH  22  23
ATOM     23  C   UNL     1      -1.858  12.260  18.383  0.00  0.00    +0.000 C 
BRANCH  23  24
ATOM     24  N   UNL     1      -2.881  11.205  18.432  0.00  0.00    +0.000 NA
ATOM     25  C   UNL     1      -2.359   9.854  18.110  0.00  0.00    +0.000 C 
ATOM     26  C   UNL     1      -1.965   9.679  16.638  0.00  0.00    +0.000 C 
ATOM     27  O   UNL     1      -3.076   9.951  15.772  0.00  0.00    +0.000 OA
ATOM     28  C   UNL     1      -3.591  11.270  15.996  0.00  0.00    +0.000 C 
ATOM     29  C   UNL     1      -3.975  11.493  17.472  0.00  0.00    +0.000 C 
ENDBRANCH  23  24
ENDBRANCH  22  23
ENDBRANCH  21  22
ENDBRANCH  20  21
ENDBRANCH  17  20
ENDBRANCH   1  18
TORSDOF 7
ENDMDL
MODEL 9
REMARK VINA RESULT:      -7.2      1.421      2.074
REMARK  Name = 
REMARK  8 active torsions:
REMARK  status: ('A' for Active; 'I' for Inactive)
REMARK    1  A    between atoms: C_1  and  N_2
REMARK    2  A    between atoms: N_2  and  C_3
REMARK    3  A    between atoms: C_3  and  C_4
REMARK    4  A    between atoms: C_4  and  C_5
REMARK    5  A    between atoms: C_5  and  C_6
REMARK    6  A    between atoms: C_6  and  N_7
REMARK    7  A    between atoms: C_13  and  C_15
REMARK    8  A    between atoms: C_20  and  C_21
REMARK                            x       y       z     vdW  Elec       q    Type
REMARK                         _______ _______ _______ _____ _____    ______ ____
ROOT
ATOM      1  C   UNL     1       1.077   9.249  20.128  0.00  0.00    +0.000 A 
ATOM      2  C   UNL     1       0.965   8.164  21.011  0.00  0.00    +0.000 A 
ATOM      3  C   UNL     1       1.618   6.946  20.755  0.00  0.00    +0.000 A 
ATOM      4  C   UNL     1       2.333   6.815  19.558  0.00  0.00    +0.000 A 
ATOM      5  N   UNL     1       3.075   5.777  19.060  0.00  0.00    +0.000 NA
ATOM      6  C   UNL     1       3.520   6.231  17.902  0.00  0.00    +0.000 A 
ATOM      7  O   UNL     1       3.103   7.504  17.594  0.00  0.00    +0.000 OA
ATOM      8  C   UNL     1       2.355   7.877  18.671  0.00  0.00    +0.000 A 
ATOM      9  C   UNL     1       1.743   9.103  18.892  0.00  0.00    +0.000 A 
ENDROOT
BRANCH   6  10
ATOM     10  C   UNL     1       4.480   5.602  16.937  0.00  0.00    +0.000 C 
ATOM     11  C   UNL     1       5.438   6.629  16.308  0.00  0.00    +0.000 C 
ATOM     12  C   UNL     1       6.560   7.068  17.253  0.00  0.00    +0.000 C 
ATOM     13  C   UNL     1       7.311   5.882  17.840  0.00  0.00    +0.000 C 
ATOM     14  C   UNL     1       6.371   4.879  18.504  0.00  0.00    +0.000 C 
ATOM     15  C   UNL     1       5.255   4.432  17.561  0.00  0.00    +0.000 C 
ENDBRANCH   6  10
BRANCH   1  18
ATOM     16  C   UNL     1      -0.854  12.537  19.971  0.00  0.00    +0.000 C 
ATOM     17  N   UNL     1      -0.341  11.251  19.510  0.00  0.00    +0.000 N 
ATOM     18  C   UNL     1       0.498  10.587  20.419  0.00  0.00    +0.000 C 
ATOM     19  O   UNL     1       0.748  11.057  21.530  0.00  0.00    +0.000 OA
BRANCH  17  20
ATOM     20  C   UNL     1      -0.881  10.754  18.236  0.00  0.00    +0.000 C 
BRANCH  20  21
ATOM     21  C   UNL     1      -2.293  10.163  18.271  0.00  0.00    +0.000 C 
BRANCH  21  22
ATOM     22  C   UNL     1      -3.337  11.100  17.674  0.00  0.00    +0.000 C 
BRANCH  22  23
ATOM     23  C   UNL     1      -4.193  11.721  18.783  0.00  0.00    +0.000 C 
BRANCH  23  24
ATOM     24  N   UNL     1      -5.442  12.315  18.284  0.00  0.00    +0.000 NA
ATOM     25  C   UNL     1      -6.032  13.319  19.203  0.00  0.00    +0.000 C 
ATOM     26  C   UNL     1      -6.603  12.716  20.493  0.00  0.00    +0.000 C 
ATOM     27  O   UNL     1      -7.602  11.729  20.201  0.00  0.00    +0.000 OA
ATOM     28  C   UNL     1      -7.074  10.696  19.360  0.00  0.00    +0.000 C 
ATOM     29  C   UNL     1      -6.468  11.267  18.062  0.00  0.00    +0.000 C 
ENDBRANCH  23  24
ENDBRANCH  22  23
ENDBRANCH  21  22
ENDBRANCH  20  21
ENDBRANCH  17  20
ENDBRANCH   1  18
TORSDOF 7
ENDMDL
