MODEL 1
REMARK VINA RESULT:      -7.6      0.000      0.000
REMARK  Name = 
REMARK  11 active torsions:
REMARK  status: ('A' for Active; 'I' for Inactive)
REMARK    1  A    between atoms: C_1  and  O_2
REMARK    2  A    between atoms: O_2  and  C_3
REMARK    3  A    between atoms: C_3  and  C_4
REMARK    4  A    between atoms: C_4  and  N_5
REMARK    5  A    between atoms: C_6  and  C_8
REMARK    6  A    between atoms: C_9  and  C_10
REMARK    7  A    between atoms: C_10  and  S_11
REMARK    8  A    between atoms: S_11  and  C_14
REMARK    9  A    between atoms: C_22  and  C_23
REMARK   10  A    between atoms: N_25  and  C_26
REMARK   11  A    between atoms: C_26  and  C_27
REMARK                            x       y       z     vdW  Elec       q    Type
REMARK                         _______ _______ _______ _____ _____    ______ ____
ROOT
ATOM      1  C   UNL     1       4.974   4.829  18.170  0.00  0.00    +0.000 A 
ATOM      2  C   UNL     1       4.896   4.000  17.010  0.00  0.00    +0.000 A 
ATOM      3  N   UNL     1       3.657   3.518  16.850  0.00  0.00    +0.000 NA
ATOM      4  O   UNL     1       2.901   4.057  17.865  0.00  0.00    +0.000 OA
ATOM      5  C   UNL     1       3.673   4.851  18.665  0.00  0.00    +0.000 A 
ENDROOT
BRANCH   1   7
ATOM      6  N   UNL     1       6.801   6.356  17.967  0.00  0.00    +0.000 N 
ATOM      7  C   UNL     1       6.094   5.515  18.781  0.00  0.00    +0.000 C 
ATOM      8  O   UNL     1       6.447   5.276  19.929  0.00  0.00    +0.000 OA
ATOM      9  H   UNL     1       6.339   6.815  17.200  0.00  0.00    +0.000 HD
BRANCH   6  10
ATOM     10  C   UNL     1       7.947   7.075  18.484  0.00  0.00    +0.000 C 
BRANCH  10  11
ATOM     11  C   UNL     1       8.040   8.443  17.825  0.00  0.00    +0.000 C 
BRANCH  11  13
ATOM     12  C   UNL     1       9.197  10.468  18.142  0.00  0.00    +0.000 C 
ATOM     13  O   UNL     1       8.546   9.381  18.787  0.00  0.00    +0.000 OA
ENDBRANCH  11  13
ENDBRANCH  10  11
ENDBRANCH   6  10
ENDBRANCH   1   7
BRANCH   5  14
ATOM     14  C   UNL     1       3.003   5.449  19.814  0.00  0.00    +0.000 C 
ATOM     15  O   UNL     1       2.784   4.832  20.856  0.00  0.00    +0.000 OA
ATOM     16  N   UNL     1       2.632   6.766  19.680  0.00  0.00    +0.000 N 
ATOM     17  H   UNL     1       2.734   7.224  18.782  0.00  0.00    +0.000 HD
BRANCH  16  18
ATOM     18  C   UNL     1       1.995   7.562  20.696  0.00  0.00    +0.000 C 
BRANCH  18  19
ATOM     19  C   UNL     1       1.223   8.697  20.066  0.00  0.00    +0.000 A 
ATOM     20  C   UNL     1       0.180   9.341  20.753  0.00  0.00    +0.000 A 
ATOM     21  C   UNL     1      -0.532  10.379  20.149  0.00  0.00    +0.000 A 
ATOM     22  C   UNL     1      -0.219  10.776  18.849  0.00  0.00    +0.000 A 
ATOM     23  C   UNL     1       0.801  10.133  18.152  0.00  0.00    +0.000 A 
ATOM     24  C   UNL     1       1.514   9.094  18.754  0.00  0.00    +0.000 A 
ENDBRANCH  18  19
ENDBRANCH  16  18
ENDBRANCH   5  14
BRANCH   2  25
ATOM     25  C   UNL     1       5.935   3.581  16.030  0.00  0.00    +0.000 C 
BRANCH  25  26
ATOM     26  S   UNL     1       6.340   4.858  14.843  0.00  0.00    +0.000 S 
ATOM     27  O   UNL     1       5.340   5.906  14.901  0.00  0.00    +0.000 OA
ATOM     28  O   UNL     1       7.751   5.175  14.944  0.00  0.00    +0.000 OA
BRANCH  26  29
ATOM     29  C   UNL     1       6.129   4.002  13.300  0.00  0.00    +0.000 A 
ATOM     30  C   UNL     1       4.845   3.655  12.878  0.00  0.00    +0.000 A 
ATOM     31  C   UNL     1       4.693   2.916  11.707  0.00  0.00    +0.000 A 
ATOM     32  C   UNL     1       5.813   2.546  10.962  0.00  0.00    +0.000 A 
ATOM     33  C   UNL     1       7.091   2.935  11.368  0.00  0.00    +0.000 A 
ATOM     34  C   UNL     1       7.256   3.674  12.538  0.00  0.00    +0.000 A 
ENDBRANCH  26  29
ENDBRANCH  25  26
ENDBRANCH   2  25
TORSDOF 10
ENDMDL
MODEL 2
REMARK VINA RESULT:      -7.4      3.070      5.208
REMARK  Name = 
REMARK  11 active torsions:
REMARK  status: ('A' for Active; 'I' for Inactive)
REMARK    1  A    between atoms: C_1  and  O_2
REMARK    2  A    between atoms: O_2  and  C_3
REMARK    3  A    between atoms: C_3  and  C_4
REMARK    4  A    between atoms: C_4  and  N_5
REMARK    5  A    between atoms: C_6  and  C_8
REMARK    6  A    between atoms: C_9  and  C_10
REMARK    7  A    between atoms: C_10  and  S_11
REMARK    8  A    between atoms: S_11  and  C_14
REMARK    9  A    between atoms: C_22  and  C_23
REMARK   10  A    between atoms: N_25  and  C_26
REMARK   11  A    between atoms: C_26  and  C_27
REMARK                            x       y       z     vdW  Elec       q    Type
REMARK                         _______ _______ _______ _____ _____    ______ ____
ROOT
ATOM      1  C   UNL     1       2.710   5.960  18.721  0.00  0.00    +0.000 A 
ATOM      2  C   UNL     1       3.594   5.865  17.604  0.00  0.00    +0.000 A 
ATOM      3  N   UNL     1       3.860   7.077  17.101  0.00  0.00    +0.000 NA
ATOM      4  O   UNL     1       3.198   7.980  17.901  0.00  0.00    +0.000 OA
ATOM      5  C   UNL     1       2.506   7.328  18.883  0.00  0.00    +0.000 A 
ENDROOT
BRANCH   1   7
ATOM      6  N   UNL     1       2.617   4.786  20.800  0.00  0.00    +0.000 N 
ATOM      7  C   UNL     1       2.097   4.938  19.545  0.00  0.00    +0.000 C 
ATOM      8  O   UNL     1       1.234   4.188  19.105  0.00  0.00    +0.000 OA
ATOM      9  H   UNL     1       3.028   5.575  21.270  0.00  0.00    +0.000 HD
BRANCH   6  10
ATOM     10  C   UNL     1       2.080   3.779  21.692  0.00  0.00    +0.000 C 
BRANCH  10  11
ATOM     11  C   UNL     1       2.598   2.406  21.294  0.00  0.00    +0.000 C 
BRANCH  11  13
ATOM     12  C   UNL     1       4.414   2.049  19.841  0.00  0.00    +0.000 C 
ATOM     13  O   UNL     1       4.023   2.482  21.137  0.00  0.00    +0.000 OA
ENDBRANCH  11  13
ENDBRANCH  10  11
ENDBRANCH   6  10
ENDBRANCH   1   7
BRANCH   5  14
ATOM     14  C   UNL     1       1.717   8.167  19.777  0.00  0.00    +0.000 C 
ATOM     15  O   UNL     1       1.501   7.874  20.952  0.00  0.00    +0.000 OA
ATOM     16  N   UNL     1       1.224   9.331  19.235  0.00  0.00    +0.000 N 
ATOM     17  H   UNL     1       1.331   9.505  18.243  0.00  0.00    +0.000 HD
BRANCH  16  18
ATOM     18  C   UNL     1       0.455  10.321  19.943  0.00  0.00    +0.000 C 
BRANCH  18  19
ATOM     19  C   UNL     1      -0.782  10.685  19.157  0.00  0.00    +0.000 A 
ATOM     20  C   UNL     1      -1.710  11.619  19.646  0.00  0.00    +0.000 A 
ATOM     21  C   UNL     1      -2.856  11.932  18.911  0.00  0.00    +0.000 A 
ATOM     22  C   UNL     1      -3.093  11.306  17.688  0.00  0.00    +0.000 A 
ATOM     23  C   UNL     1      -2.188  10.364  17.202  0.00  0.00    +0.000 A 
ATOM     24  C   UNL     1      -1.042  10.050  17.935  0.00  0.00    +0.000 A 
ENDBRANCH  18  19
ENDBRANCH  16  18
ENDBRANCH   5  14
BRANCH   2  25
ATOM     25  C   UNL     1       4.199   4.685  16.928  0.00  0.00    +0.000 C 
BRANCH  25  26
ATOM     26  S   UNL     1       5.672   5.085  15.993  0.00  0.00    +0.000 S 
ATOM     27  O   UNL     1       6.336   3.862  15.591  0.00  0.00    +0.000 OA
ATOM     28  O   UNL     1       5.354   6.110  15.017  0.00  0.00    +0.000 OA
BRANCH  26  29
ATOM     29  C   UNL     1       6.686   5.866  17.225  0.00  0.00    +0.000 A 
ATOM     30  C   UNL     1       7.131   7.173  17.020  0.00  0.00    +0.000 A 
ATOM     31  C   UNL     1       7.990   7.751  17.952  0.00  0.00    +0.000 A 
ATOM     32  C   UNL     1       8.383   7.033  19.082  0.00  0.00    +0.000 A 
ATOM     33  C   UNL     1       7.899   5.742  19.302  0.00  0.00    +0.000 A 
ATOM     34  C   UNL     1       7.039   5.153  18.376  0.00  0.00    +0.000 A 
ENDBRANCH  26  29
ENDBRANCH  25  26
ENDBRANCH   2  25
TORSDOF 10
ENDMDL
MODEL 3
REMARK VINA RESULT:      -7.4      2.682      5.052
REMARK  Name = 
REMARK  11 active torsions:
REMARK  status: ('A' for Active; 'I' for Inactive)
REMARK    1  A    between atoms: C_1  and  O_2
REMARK    2  A    between atoms: O_2  and  C_3
REMARK    3  A    between atoms: C_3  and  C_4
REMARK    4  A    between atoms: C_4  and  N_5
REMARK    5  A    between atoms: C_6  and  C_8
REMARK    6  A    between atoms: C_9  and  C_10
REMARK    7  A    between atoms: C_10  and  S_11
REMARK    8  A    between atoms: S_11  and  C_14
REMARK    9  A    between atoms: C_22  and  C_23
REMARK   10  A    between atoms: N_25  and  C_26
REMARK   11  A    between atoms: C_26  and  C_27
REMARK                            x       y       z     vdW  Elec       q    Type
REMARK                         _______ _______ _______ _____ _____    ______ ____
ROOT
ATOM      1  C   UNL     1       3.576   5.598  17.519  0.00  0.00    +0.000 A 
ATOM      2  C   UNL     1       4.336   6.356  16.578  0.00  0.00    +0.000 A 
ATOM      3  N   UNL     1       4.347   7.654  16.908  0.00  0.00    +0.000 NA
ATOM      4  O   UNL     1       3.642   7.758  18.085  0.00  0.00    +0.000 OA
ATOM      5  C   UNL     1       3.175   6.533  18.471  0.00  0.00    +0.000 A 
ENDROOT
BRANCH   1   7
ATOM      6  N   UNL     1       3.897   3.432  18.477  0.00  0.00    +0.000 N 
ATOM      7  C   UNL     1       3.229   4.192  17.557  0.00  0.00    +0.000 C 
ATOM      8  O   UNL     1       2.459   3.697  16.744  0.00  0.00    +0.000 OA
ATOM      9  H   UNL     1       4.221   3.853  19.332  0.00  0.00    +0.000 HD
BRANCH   6  10
ATOM     10  C   UNL     1       3.628   2.013  18.579  0.00  0.00    +0.000 C 
BRANCH  10  11
ATOM     11  C   UNL     1       2.478   1.772  19.546  0.00  0.00    +0.000 C 
BRANCH  11  13
ATOM     12  C   UNL     1       1.618   2.499  21.612  0.00  0.00    +0.000 C 
ATOM     13  O   UNL     1       2.769   2.445  20.780  0.00  0.00    +0.000 OA
ENDBRANCH  11  13
ENDBRANCH  10  11
ENDBRANCH   6  10
ENDBRANCH   1   7
BRANCH   5  14
ATOM     14  C   UNL     1       2.365   6.508  19.683  0.00  0.00    +0.000 C 
ATOM     15  O   UNL     1       2.000   5.464  20.221  0.00  0.00    +0.000 OA
ATOM     16  N   UNL     1       2.031   7.732  20.213  0.00  0.00    +0.000 N 
ATOM     17  H   UNL     1       2.258   8.576  19.701  0.00  0.00    +0.000 HD
BRANCH  16  18
ATOM     18  C   UNL     1       1.273   7.941  21.418  0.00  0.00    +0.000 C 
BRANCH  18  19
ATOM     19  C   UNL     1       0.484   9.225  21.326  0.00  0.00    +0.000 A 
ATOM     20  C   UNL     1      -0.030   9.851  22.474  0.00  0.00    +0.000 A 
ATOM     21  C   UNL     1      -0.770  11.031  22.367  0.00  0.00    +0.000 A 
ATOM     22  C   UNL     1      -1.015  11.590  21.114  0.00  0.00    +0.000 A 
ATOM     23  C   UNL     1      -0.525  10.968  19.967  0.00  0.00    +0.000 A 
ATOM     24  C   UNL     1       0.214   9.788  20.072  0.00  0.00    +0.000 A 
ENDBRANCH  18  19
ENDBRANCH  16  18
ENDBRANCH   5  14
BRANCH   2  25
ATOM     25  C   UNL     1       5.043   5.950  15.333  0.00  0.00    +0.000 C 
BRANCH  25  26
ATOM     26  S   UNL     1       6.478   4.924  15.639  0.00  0.00    +0.000 S 
ATOM     27  O   UNL     1       6.047   3.610  16.074  0.00  0.00    +0.000 OA
ATOM     28  O   UNL     1       7.414   5.071  14.542  0.00  0.00    +0.000 OA
BRANCH  26  29
ATOM     29  C   UNL     1       7.216   5.735  17.038  0.00  0.00    +0.000 A 
ATOM     30  C   UNL     1       7.413   5.020  18.220  0.00  0.00    +0.000 A 
ATOM     31  C   UNL     1       7.919   5.682  19.336  0.00  0.00    +0.000 A 
ATOM     32  C   UNL     1       8.238   7.038  19.261  0.00  0.00    +0.000 A 
ATOM     33  C   UNL     1       8.079   7.736  18.062  0.00  0.00    +0.000 A 
ATOM     34  C   UNL     1       7.573   7.084  16.939  0.00  0.00    +0.000 A 
ENDBRANCH  26  29
ENDBRANCH  25  26
ENDBRANCH   2  25
TORSDOF 10
ENDMDL
MODEL 4
REMARK VINA RESULT:      -7.4      2.510      4.316
REMARK  Name = 
REMARK  11 active torsions:
REMARK  status: ('A' for Active; 'I' for Inactive)
REMARK    1  A    between atoms: C_1  and  O_2
REMARK    2  A    between atoms: O_2  and  C_3
REMARK    3  A    between atoms: C_3  and  C_4
REMARK    4  A    between atoms: C_4  and  N_5
REMARK    5  A    between atoms: C_6  and  C_8
REMARK    6  A    between atoms: C_9  and  C_10
REMARK    7  A    between atoms: C_10  and  S_11
REMARK    8  A    between atoms: S_11  and  C_14
REMARK    9  A    between atoms: C_22  and  C_23
REMARK   10  A    between atoms: N_25  and  C_26
REMARK   11  A    between atoms: C_26  and  C_27
REMARK                            x       y       z     vdW  Elec       q    Type
REMARK                         _______ _______ _______ _____ _____    ______ ____
ROOT
ATOM      1  C   UNL     1       2.862   6.086  18.318  0.00  0.00    +0.000 A 
ATOM      2  C   UNL     1       3.929   6.071  17.369  0.00  0.00    +0.000 A 
ATOM      3  N   UNL     1       4.311   7.317  17.060  0.00  0.00    +0.000 NA
ATOM      4  O   UNL     1       3.541   8.157  17.831  0.00  0.00    +0.000 OA
ATOM      5  C   UNL     1       2.668   7.437  18.596  0.00  0.00    +0.000 A 
ENDROOT
BRANCH   1   7
ATOM      6  N   UNL     1       2.216   4.840  20.252  0.00  0.00    +0.000 N 
ATOM      7  C   UNL     1       2.086   5.011  18.902  0.00  0.00    +0.000 C 
ATOM      8  O   UNL     1       1.434   4.239  18.210  0.00  0.00    +0.000 OA
ATOM      9  H   UNL     1       2.427   5.630  20.838  0.00  0.00    +0.000 HD
BRANCH   6  10
ATOM     10  C   UNL     1       1.491   3.780  20.923  0.00  0.00    +0.000 C 
BRANCH  10  11
ATOM     11  C   UNL     1       2.157   2.441  20.645  0.00  0.00    +0.000 C 
BRANCH  11  13
ATOM     12  C   UNL     1       4.364   2.159  19.881  0.00  0.00    +0.000 C 
ATOM     13  O   UNL     1       3.548   2.543  20.979  0.00  0.00    +0.000 OA
ENDBRANCH  11  13
ENDBRANCH  10  11
ENDBRANCH   6  10
ENDBRANCH   1   7
BRANCH   5  14
ATOM     14  C   UNL     1       1.754   8.210  19.428  0.00  0.00    +0.000 C 
ATOM     15  O   UNL     1       1.430   7.867  20.564  0.00  0.00    +0.000 OA
ATOM     16  N   UNL     1       1.270   9.373  18.875  0.00  0.00    +0.000 N 
ATOM     17  H   UNL     1       1.471   9.586  17.905  0.00  0.00    +0.000 HD
BRANCH  16  18
ATOM     18  C   UNL     1       0.388  10.305  19.528  0.00  0.00    +0.000 C 
BRANCH  18  19
ATOM     19  C   UNL     1      -0.874  10.487  18.720  0.00  0.00    +0.000 A 
ATOM     20  C   UNL     1      -1.079   9.792  17.517  0.00  0.00    +0.000 A 
ATOM     21  C   UNL     1      -2.246   9.985  16.776  0.00  0.00    +0.000 A 
ATOM     22  C   UNL     1      -3.215  10.883  17.221  0.00  0.00    +0.000 A 
ATOM     23  C   UNL     1      -3.015  11.592  18.404  0.00  0.00    +0.000 A 
ATOM     24  C   UNL     1      -1.848  11.401  19.146  0.00  0.00    +0.000 A 
ENDBRANCH  18  19
ENDBRANCH  16  18
ENDBRANCH   5  14
BRANCH   2  25
ATOM     25  C   UNL     1       4.613   4.943  16.680  0.00  0.00    +0.000 C 
BRANCH  25  26
ATOM     26  S   UNL     1       6.349   5.254  16.372  0.00  0.00    +0.000 S 
ATOM     27  O   UNL     1       6.609   6.677  16.470  0.00  0.00    +0.000 OA
ATOM     28  O   UNL     1       7.145   4.303  17.123  0.00  0.00    +0.000 OA
BRANCH  26  29
ATOM     29  C   UNL     1       6.505   4.798  14.662  0.00  0.00    +0.000 A 
ATOM     30  C   UNL     1       5.585   3.912  14.102  0.00  0.00    +0.000 A 
ATOM     31  C   UNL     1       5.758   3.497  12.783  0.00  0.00    +0.000 A 
ATOM     32  C   UNL     1       6.832   3.980  12.033  0.00  0.00    +0.000 A 
ATOM     33  C   UNL     1       7.723   4.900  12.587  0.00  0.00    +0.000 A 
ATOM     34  C   UNL     1       7.559   5.322  13.906  0.00  0.00    +0.000 A 
ENDBRANCH  26  29
ENDBRANCH  25  26
ENDBRANCH   2  25
TORSDOF 10
ENDMDL
MODEL 5
REMARK VINA RESULT:      -7.4      2.426      4.403
REMARK  Name = 
REMARK  11 active torsions:
REMARK  status: ('A' for Active; 'I' for Inactive)
REMARK    1  A    between atoms: C_1  and  O_2
REMARK    2  A    between atoms: O_2  and  C_3
REMARK    3  A    between atoms: C_3  and  C_4
REMARK    4  A    between atoms: C_4  and  N_5
REMARK    5  A    between atoms: C_6  and  C_8
REMARK    6  A    between atoms: C_9  and  C_10
REMARK    7  A    between atoms: C_10  and  S_11
REMARK    8  A    between atoms: S_11  and  C_14
REMARK    9  A    between atoms: C_22  and  C_23
REMARK   10  A    between atoms: N_25  and  C_26
REMARK   11  A    between atoms: C_26  and  C_27
REMARK                            x       y       z     vdW  Elec       q    Type
REMARK                         _______ _______ _______ _____ _____    ______ ____
ROOT
ATOM      1  C   UNL     1       3.472   6.038  18.268  0.00  0.00    +0.000 A 
ATOM      2  C   UNL     1       4.500   5.873  17.291  0.00  0.00    +0.000 A 
ATOM      3  N   UNL     1       4.675   6.999  16.586  0.00  0.00    +0.000 NA
ATOM      4  O   UNL     1       3.806   7.924  17.119  0.00  0.00    +0.000 OA
ATOM      5  C   UNL     1       3.079   7.367  18.132  0.00  0.00    +0.000 A 
ENDROOT
BRANCH   1   7
ATOM      6  N   UNL     1       1.739   4.484  18.809  0.00  0.00    +0.000 N 
ATOM      7  C   UNL     1       2.890   5.104  19.210  0.00  0.00    +0.000 C 
ATOM      8  O   UNL     1       3.346   4.959  20.338  0.00  0.00    +0.000 OA
ATOM      9  H   UNL     1       1.577   4.316  17.831  0.00  0.00    +0.000 HD
BRANCH   6  10
ATOM     10  C   UNL     1       1.076   3.544  19.690  0.00  0.00    +0.000 C 
BRANCH  10  11
ATOM     11  C   UNL     1       1.767   2.191  19.618  0.00  0.00    +0.000 C 
BRANCH  11  13
ATOM     12  C   UNL     1       3.524   1.599  18.169  0.00  0.00    +0.000 C 
ATOM     13  O   UNL     1       2.147   1.942  18.257  0.00  0.00    +0.000 OA
ENDBRANCH  11  13
ENDBRANCH  10  11
ENDBRANCH   6  10
ENDBRANCH   1   7
BRANCH   5  14
ATOM     14  C   UNL     1       2.081   8.229  18.755  0.00  0.00    +0.000 C 
ATOM     15  O   UNL     1       1.739   8.116  19.931  0.00  0.00    +0.000 OA
ATOM     16  N   UNL     1       1.535   9.201  17.950  0.00  0.00    +0.000 N 
ATOM     17  H   UNL     1       1.757   9.214  16.961  0.00  0.00    +0.000 HD
BRANCH  16  18
ATOM     18  C   UNL     1       0.565  10.180  18.363  0.00  0.00    +0.000 C 
BRANCH  18  19
ATOM     19  C   UNL     1       1.256  11.408  18.906  0.00  0.00    +0.000 A 
ATOM     20  C   UNL     1       1.004  11.874  20.207  0.00  0.00    +0.000 A 
ATOM     21  C   UNL     1       1.642  13.019  20.687  0.00  0.00    +0.000 A 
ATOM     22  C   UNL     1       2.529  13.718  19.869  0.00  0.00    +0.000 A 
ATOM     23  C   UNL     1       2.774  13.276  18.570  0.00  0.00    +0.000 A 
ATOM     24  C   UNL     1       2.135  12.131  18.089  0.00  0.00    +0.000 A 
ENDBRANCH  18  19
ENDBRANCH  16  18
ENDBRANCH   5  14
BRANCH   2  25
ATOM     25  C   UNL     1       5.331   4.692  16.929  0.00  0.00    +0.000 C 
BRANCH  25  26
ATOM     26  S   UNL     1       6.986   5.128  16.406  0.00  0.00    +0.000 S 
ATOM     27  O   UNL     1       7.162   6.564  16.505  0.00  0.00    +0.000 OA
ATOM     28  O   UNL     1       7.936   4.222  17.022  0.00  0.00    +0.000 OA
BRANCH  26  29
ATOM     29  C   UNL     1       6.946   4.712  14.679  0.00  0.00    +0.000 A 
ATOM     30  C   UNL     1       7.810   5.362  13.797  0.00  0.00    +0.000 A 
ATOM     31  C   UNL     1       7.720   5.088  12.434  0.00  0.00    +0.000 A 
ATOM     32  C   UNL     1       6.786   4.162  11.966  0.00  0.00    +0.000 A 
ATOM     33  C   UNL     1       5.956   3.483  12.861  0.00  0.00    +0.000 A 
ATOM     34  C   UNL     1       6.038   3.750  14.226  0.00  0.00    +0.000 A 
ENDBRANCH  26  29
ENDBRANCH  25  26
ENDBRANCH   2  25
TORSDOF 10
ENDMDL
MODEL 6
REMARK VINA RESULT:      -7.3      5.715     11.277
REMARK  Name = 
REMARK  11 active torsions:
REMARK  status: ('A' for Active; 'I' for Inactive)
REMARK    1  A    between atoms: C_1  and  O_2
REMARK    2  A    between atoms: O_2  and  C_3
REMARK    3  A    between atoms: C_3  and  C_4
REMARK    4  A    between atoms: C_4  and  N_5
REMARK    5  A    between atoms: C_6  and  C_8
REMARK    6  A    between atoms: C_9  and  C_10
REMARK    7  A    between atoms: C_10  and  S_11
REMARK    8  A    between atoms: S_11  and  C_14
REMARK    9  A    between atoms: C_22  and  C_23
REMARK   10  A    between atoms: N_25  and  C_26
REMARK   11  A    between atoms: C_26  and  C_27
REMARK                            x       y       z     vdW  Elec       q    Type
REMARK                         _______ _______ _______ _____ _____    ______ ____
ROOT
ATOM      1  C   UNL     1      -0.303  10.504  20.973  0.00  0.00    +0.000 A 
ATOM      2  C   UNL     1      -0.517  10.804  22.353  0.00  0.00    +0.000 A 
ATOM      3  N   UNL     1       0.275  10.055  23.132  0.00  0.00    +0.000 NA
ATOM      4  O   UNL     1       1.045   9.297  22.282  0.00  0.00    +0.000 OA
ATOM      5  C   UNL     1       0.717   9.556  20.981  0.00  0.00    +0.000 A 
ENDROOT
BRANCH   1   7
ATOM      6  N   UNL     1      -1.453  10.050  18.928  0.00  0.00    +0.000 N 
ATOM      7  C   UNL     1      -0.952  10.999  19.776  0.00  0.00    +0.000 C 
ATOM      8  O   UNL     1      -0.958  12.190  19.493  0.00  0.00    +0.000 OA
ATOM      9  H   UNL     1      -1.768   9.168  19.295  0.00  0.00    +0.000 HD
BRANCH   6  10
ATOM     10  C   UNL     1      -2.105  10.447  17.698  0.00  0.00    +0.000 C 
BRANCH  10  11
ATOM     11  C   UNL     1      -3.392   9.656  17.516  0.00  0.00    +0.000 C 
BRANCH  11  13
ATOM     12  C   UNL     1      -4.448  11.595  16.703  0.00  0.00    +0.000 C 
ATOM     13  O   UNL     1      -4.504  10.550  17.665  0.00  0.00    +0.000 OA
ENDBRANCH  11  13
ENDBRANCH  10  11
ENDBRANCH   6  10
ENDBRANCH   1   7
BRANCH   5  14
ATOM     14  C   UNL     1       1.427   8.779  19.973  0.00  0.00    +0.000 C 
ATOM     15  O   UNL     1       1.535   9.142  18.802  0.00  0.00    +0.000 OA
ATOM     16  N   UNL     1       1.992   7.602  20.403  0.00  0.00    +0.000 N 
ATOM     17  H   UNL     1       1.809   7.274  21.344  0.00  0.00    +0.000 HD
BRANCH  16  18
ATOM     18  C   UNL     1       2.767   6.701  19.590  0.00  0.00    +0.000 C 
BRANCH  18  19
ATOM     19  C   UNL     1       2.108   5.343  19.538  0.00  0.00    +0.000 A 
ATOM     20  C   UNL     1       1.623   4.721  20.700  0.00  0.00    +0.000 A 
ATOM     21  C   UNL     1       1.030   3.459  20.634  0.00  0.00    +0.000 A 
ATOM     22  C   UNL     1       0.926   2.800  19.410  0.00  0.00    +0.000 A 
ATOM     23  C   UNL     1       1.420   3.399  18.253  0.00  0.00    +0.000 A 
ATOM     24  C   UNL     1       2.015   4.661  18.317  0.00  0.00    +0.000 A 
ENDBRANCH  18  19
ENDBRANCH  16  18
ENDBRANCH   5  14
BRANCH   2  25
ATOM     25  C   UNL     1      -1.463  11.739  23.020  0.00  0.00    +0.000 C 
BRANCH  25  26
ATOM     26  S   UNL     1      -0.936  13.448  22.943  0.00  0.00    +0.000 S 
ATOM     27  O   UNL     1      -0.948  14.017  24.276  0.00  0.00    +0.000 OA
ATOM     28  O   UNL     1       0.245  13.547  22.107  0.00  0.00    +0.000 OA
BRANCH  26  29
ATOM     29  C   UNL     1      -2.260  14.200  22.028  0.00  0.00    +0.000 A 
ATOM     30  C   UNL     1      -2.194  15.559  21.717  0.00  0.00    +0.000 A 
ATOM     31  C   UNL     1      -3.271  16.159  21.069  0.00  0.00    +0.000 A 
ATOM     32  C   UNL     1      -4.391  15.402  20.723  0.00  0.00    +0.000 A 
ATOM     33  C   UNL     1      -4.431  14.034  20.999  0.00  0.00    +0.000 A 
ATOM     34  C   UNL     1      -3.359  13.422  21.648  0.00  0.00    +0.000 A 
ENDBRANCH  26  29
ENDBRANCH  25  26
ENDBRANCH   2  25
TORSDOF 10
ENDMDL
MODEL 7
REMARK VINA RESULT:      -7.3      2.510      4.259
REMARK  Name = 
REMARK  11 active torsions:
REMARK  status: ('A' for Active; 'I' for Inactive)
REMARK    1  A    between atoms: C_1  and  O_2
REMARK    2  A    between atoms: O_2  and  C_3
REMARK    3  A    between atoms: C_3  and  C_4
REMARK    4  A    between atoms: C_4  and  N_5
REMARK    5  A    between atoms: C_6  and  C_8
REMARK    6  A    between atoms: C_9  and  C_10
REMARK    7  A    between atoms: C_10  and  S_11
REMARK    8  A    between atoms: S_11  and  C_14
REMARK    9  A    between atoms: C_22  and  C_23
REMARK   10  A    between atoms: N_25  and  C_26
REMARK   11  A    between atoms: C_26  and  C_27
REMARK                            x       y       z     vdW  Elec       q    Type
REMARK                         _______ _______ _______ _____ _____    ______ ____
ROOT
ATOM      1  C   UNL     1       3.047   5.968  18.299  0.00  0.00    +0.000 A 
ATOM      2  C   UNL     1       4.004   6.041  17.242  0.00  0.00    +0.000 A 
ATOM      3  N   UNL     1       4.230   7.313  16.889  0.00  0.00    +0.000 NA
ATOM      4  O   UNL     1       3.468   8.088  17.733  0.00  0.00    +0.000 OA
ATOM      5  C   UNL     1       2.755   7.299  18.590  0.00  0.00    +0.000 A 
ENDROOT
BRANCH   1   7
ATOM      6  N   UNL     1       2.992   4.483  20.171  0.00  0.00    +0.000 N 
ATOM      7  C   UNL     1       2.445   4.833  18.967  0.00  0.00    +0.000 C 
ATOM      8  O   UNL     1       1.566   4.165  18.436  0.00  0.00    +0.000 OA
ATOM      9  H   UNL     1       3.420   5.187  20.748  0.00  0.00    +0.000 HD
BRANCH   6  10
ATOM     10  C   UNL     1       2.466   3.351  20.906  0.00  0.00    +0.000 C 
BRANCH  10  11
ATOM     11  C   UNL     1       3.528   2.267  21.015  0.00  0.00    +0.000 C 
BRANCH  11  13
ATOM     12  C   UNL     1       3.603   1.355  18.847  0.00  0.00    +0.000 C 
ATOM     13  O   UNL     1       4.253   2.210  19.778  0.00  0.00    +0.000 OA
ENDBRANCH  11  13
ENDBRANCH  10  11
ENDBRANCH   6  10
ENDBRANCH   1   7
BRANCH   5  14
ATOM     14  C   UNL     1       1.863   7.993  19.512  0.00  0.00    +0.000 C 
ATOM     15  O   UNL     1       1.600   7.569  20.636  0.00  0.00    +0.000 OA
ATOM     16  N   UNL     1       1.329   9.177  19.059  0.00  0.00    +0.000 N 
ATOM     17  H   UNL     1       1.480   9.458  18.098  0.00  0.00    +0.000 HD
BRANCH  16  18
ATOM     18  C   UNL     1       0.458  10.042  19.811  0.00  0.00    +0.000 C 
BRANCH  18  19
ATOM     19  C   UNL     1      -0.750  10.417  18.987  0.00  0.00    +0.000 A 
ATOM     20  C   UNL     1      -0.984   9.838  17.728  0.00  0.00    +0.000 A 
ATOM     21  C   UNL     1      -2.099  10.208  16.974  0.00  0.00    +0.000 A 
ATOM     22  C   UNL     1      -2.985  11.167  17.462  0.00  0.00    +0.000 A 
ATOM     23  C   UNL     1      -2.753  11.761  18.701  0.00  0.00    +0.000 A 
ATOM     24  C   UNL     1      -1.638  11.393  19.456  0.00  0.00    +0.000 A 
ENDBRANCH  18  19
ENDBRANCH  16  18
ENDBRANCH   5  14
BRANCH   2  25
ATOM     25  C   UNL     1       4.717   4.975  16.488  0.00  0.00    +0.000 C 
BRANCH  25  26
ATOM     26  S   UNL     1       6.460   5.317  16.260  0.00  0.00    +0.000 S 
ATOM     27  O   UNL     1       6.684   6.747  16.328  0.00  0.00    +0.000 OA
ATOM     28  O   UNL     1       7.236   4.406  17.079  0.00  0.00    +0.000 OA
BRANCH  26  29
ATOM     29  C   UNL     1       6.714   4.814  14.575  0.00  0.00    +0.000 A 
ATOM     30  C   UNL     1       7.695   5.448  13.811  0.00  0.00    +0.000 A 
ATOM     31  C   UNL     1       7.837   5.105  12.469  0.00  0.00    +0.000 A 
ATOM     32  C   UNL     1       7.016   4.126  11.906  0.00  0.00    +0.000 A 
ATOM     33  C   UNL     1       6.067   3.465  12.689  0.00  0.00    +0.000 A 
ATOM     34  C   UNL     1       5.916   3.801  14.033  0.00  0.00    +0.000 A 
ENDBRANCH  26  29
ENDBRANCH  25  26
ENDBRANCH   2  25
TORSDOF 10
ENDMDL
MODEL 8
REMARK VINA RESULT:      -7.3      5.648     11.640
REMARK  Name = 
REMARK  11 active torsions:
REMARK  status: ('A' for Active; 'I' for Inactive)
REMARK    1  A    between atoms: C_1  and  O_2
REMARK    2  A    between atoms: O_2  and  C_3
REMARK    3  A    between atoms: C_3  and  C_4
REMARK    4  A    between atoms: C_4  and  N_5
REMARK    5  A    between atoms: C_6  and  C_8
REMARK    6  A    between atoms: C_9  and  C_10
REMARK    7  A    between atoms: C_10  and  S_11
REMARK    8  A    between atoms: S_11  and  C_14
REMARK    9  A    between atoms: C_22  and  C_23
REMARK   10  A    between atoms: N_25  and  C_26
REMARK   11  A    between atoms: C_26  and  C_27
REMARK                            x       y       z     vdW  Elec       q    Type
REMARK                         _______ _______ _______ _____ _____    ______ ____
ROOT
ATOM      1  C   UNL     1      -0.045  10.607  20.795  0.00  0.00    +0.000 A 
ATOM      2  C   UNL     1      -0.423  10.842  22.152  0.00  0.00    +0.000 A 
ATOM      3  N   UNL     1       0.129   9.933  22.966  0.00  0.00    +0.000 NA
ATOM      4  O   UNL     1       0.908   9.126  22.169  0.00  0.00    +0.000 OA
ATOM      5  C   UNL     1       0.821   9.518  20.863  0.00  0.00    +0.000 A 
ENDROOT
BRANCH   1   7
ATOM      6  N   UNL     1      -1.666  10.963  19.076  0.00  0.00    +0.000 N 
ATOM      7  C   UNL     1      -0.428  11.273  19.567  0.00  0.00    +0.000 C 
ATOM      8  O   UNL     1       0.352  11.990  18.952  0.00  0.00    +0.000 OA
ATOM      9  H   UNL     1      -2.402  10.698  19.708  0.00  0.00    +0.000 HD
BRANCH   6  10
ATOM     10  C   UNL     1      -2.131  11.567  17.844  0.00  0.00    +0.000 C 
BRANCH  10  11
ATOM     11  C   UNL     1      -2.816  10.518  16.981  0.00  0.00    +0.000 C 
BRANCH  11  13
ATOM     12  C   UNL     1      -3.062  10.176  14.666  0.00  0.00    +0.000 C 
ATOM     13  O   UNL     1      -3.168  11.118  15.725  0.00  0.00    +0.000 OA
ENDBRANCH  11  13
ENDBRANCH  10  11
ENDBRANCH   6  10
ENDBRANCH   1   7
BRANCH   5  14
ATOM     14  C   UNL     1       1.562   8.713  19.900  0.00  0.00    +0.000 C 
ATOM     15  O   UNL     1       1.745   9.063  18.735  0.00  0.00    +0.000 OA
ATOM     16  N   UNL     1       2.069   7.523  20.369  0.00  0.00    +0.000 N 
ATOM     17  H   UNL     1       1.825   7.209  21.300  0.00  0.00    +0.000 HD
BRANCH  16  18
ATOM     18  C   UNL     1       2.860   6.594  19.606  0.00  0.00    +0.000 C 
BRANCH  18  19
ATOM     19  C   UNL     1       2.178   5.248  19.548  0.00  0.00    +0.000 A 
ATOM     20  C   UNL     1       1.929   4.607  18.323  0.00  0.00    +0.000 A 
ATOM     21  C   UNL     1       1.284   3.369  18.288  0.00  0.00    +0.000 A 
ATOM     22  C   UNL     1       0.870   2.764  19.475  0.00  0.00    +0.000 A 
ATOM     23  C   UNL     1       1.096   3.399  20.695  0.00  0.00    +0.000 A 
ATOM     24  C   UNL     1       1.740   4.638  20.731  0.00  0.00    +0.000 A 
ENDBRANCH  18  19
ENDBRANCH  16  18
ENDBRANCH   5  14
BRANCH   2  25
ATOM     25  C   UNL     1      -1.321  11.863  22.758  0.00  0.00    +0.000 C 
BRANCH  25  26
ATOM     26  S   UNL     1      -0.971  13.528  22.203  0.00  0.00    +0.000 S 
ATOM     27  O   UNL     1       0.431  13.824  22.417  0.00  0.00    +0.000 OA
ATOM     28  O   UNL     1      -1.582  13.737  20.904  0.00  0.00    +0.000 OA
BRANCH  26  29
ATOM     29  C   UNL     1      -1.906  14.503  23.357  0.00  0.00    +0.000 A 
ATOM     30  C   UNL     1      -3.200  14.906  23.024  0.00  0.00    +0.000 A 
ATOM     31  C   UNL     1      -3.899  15.735  23.899  0.00  0.00    +0.000 A 
ATOM     32  C   UNL     1      -3.311  16.140  25.099  0.00  0.00    +0.000 A 
ATOM     33  C   UNL     1      -2.033  15.696  25.444  0.00  0.00    +0.000 A 
ATOM     34  C   UNL     1      -1.325  14.866  24.576  0.00  0.00    +0.000 A 
ENDBRANCH  26  29
ENDBRANCH  25  26
ENDBRANCH   2  25
TORSDOF 10
ENDMDL
MODEL 9
REMARK VINA RESULT:      -7.3      2.356      4.142
REMARK  Name = 
REMARK  11 active torsions:
REMARK  status: ('A' for Active; 'I' for Inactive)
REMARK    1  A    between atoms: C_1  and  O_2
REMARK    2  A    between atoms: O_2  and  C_3
REMARK    3  A    between atoms: C_3  and  C_4
REMARK    4  A    between atoms: C_4  and  N_5
REMARK    5  A    between atoms: C_6  and  C_8
REMARK    6  A    between atoms: C_9  and  C_10
REMARK    7  A    between atoms: C_10  and  S_11
REMARK    8  A    between atoms: S_11  and  C_14
REMARK    9  A    between atoms: C_22  and  C_23
REMARK   10  A    between atoms: N_25  and  C_26
REMARK   11  A    between atoms: C_26  and  C_27
REMARK                            x       y       z     vdW  Elec       q    Type
REMARK                         _______ _______ _______ _____ _____    ______ ____
ROOT
ATOM      1  C   UNL     1       3.954   6.256  18.434  0.00  0.00    +0.000 A 
ATOM      2  C   UNL     1       4.340   6.846  17.192  0.00  0.00    +0.000 A 
ATOM      3  N   UNL     1       3.550   7.885  16.891  0.00  0.00    +0.000 NA
ATOM      4  O   UNL     1       2.674   8.019  17.943  0.00  0.00    +0.000 OA
ATOM      5  C   UNL     1       2.904   7.053  18.882  0.00  0.00    +0.000 A 
ENDROOT
BRANCH   1   7
ATOM      6  N   UNL     1       3.664   3.980  19.103  0.00  0.00    +0.000 N 
ATOM      7  C   UNL     1       4.457   5.093  19.137  0.00  0.00    +0.000 C 
ATOM      8  O   UNL     1       5.482   5.139  19.806  0.00  0.00    +0.000 OA
ATOM      9  H   UNL     1       3.062   3.820  18.314  0.00  0.00    +0.000 HD
BRANCH   6  10
ATOM     10  C   UNL     1       4.076   2.774  19.791  0.00  0.00    +0.000 C 
BRANCH  10  11
ATOM     11  C   UNL     1       3.082   1.655  19.513  0.00  0.00    +0.000 C 
BRANCH  11  13
ATOM     12  C   UNL     1       0.897   2.207  18.836  0.00  0.00    +0.000 C 
ATOM     13  O   UNL     1       1.781   2.082  19.942  0.00  0.00    +0.000 OA
ENDBRANCH  11  13
ENDBRANCH  10  11
ENDBRANCH   6  10
ENDBRANCH   1   7
BRANCH   5  14
ATOM     14  C   UNL     1       2.009   7.050  20.033  0.00  0.00    +0.000 C 
ATOM     15  O   UNL     1       1.685   6.022  20.625  0.00  0.00    +0.000 OA
ATOM     16  N   UNL     1       1.544   8.278  20.440  0.00  0.00    +0.000 N 
ATOM     17  H   UNL     1       1.744   9.099  19.881  0.00  0.00    +0.000 HD
BRANCH  16  18
ATOM     18  C   UNL     1       0.683   8.513  21.570  0.00  0.00    +0.000 C 
BRANCH  18  19
ATOM     19  C   UNL     1      -0.104   9.786  21.375  0.00  0.00    +0.000 A 
ATOM     20  C   UNL     1      -0.455  10.240  20.093  0.00  0.00    +0.000 A 
ATOM     21  C   UNL     1      -1.170  11.428  19.932  0.00  0.00    +0.000 A 
ATOM     22  C   UNL     1      -1.532  12.182  21.048  0.00  0.00    +0.000 A 
ATOM     23  C   UNL     1      -1.173  11.751  22.324  0.00  0.00    +0.000 A 
ATOM     24  C   UNL     1      -0.457  10.563  22.486  0.00  0.00    +0.000 A 
ENDBRANCH  18  19
ENDBRANCH  16  18
ENDBRANCH   5  14
BRANCH   2  25
ATOM     25  C   UNL     1       5.402   6.476  16.217  0.00  0.00    +0.000 C 
BRANCH  25  26
ATOM     26  S   UNL     1       5.651   4.709  16.084  0.00  0.00    +0.000 S 
ATOM     27  O   UNL     1       6.737   4.307  16.955  0.00  0.00    +0.000 OA
ATOM     28  O   UNL     1       4.367   4.039  16.145  0.00  0.00    +0.000 OA
BRANCH  26  29
ATOM     29  C   UNL     1       6.221   4.545  14.409  0.00  0.00    +0.000 A 
ATOM     30  C   UNL     1       5.568   3.665  13.545  0.00  0.00    +0.000 A 
ATOM     31  C   UNL     1       6.067   3.482  12.257  0.00  0.00    +0.000 A 
ATOM     32  C   UNL     1       7.197   4.186  11.838  0.00  0.00    +0.000 A 
ATOM     33  C   UNL     1       7.819   5.097  12.694  0.00  0.00    +0.000 A 
ATOM     34  C   UNL     1       7.328   5.288  13.984  0.00  0.00    +0.000 A 
ENDBRANCH  26  29
ENDBRANCH  25  26
ENDBRANCH   2  25
TORSDOF 10
ENDMDL
