MODEL 1
REMARK VINA RESULT:      -8.2      0.000      0.000
REMARK  Name = 
REMARK  10 active torsions:
REMARK  status: ('A' for Active; 'I' for Inactive)
REMARK    1  A    between atoms: C_1  and  O_2
REMARK    2  A    between atoms: O_2  and  C_3
REMARK    3  A    between atoms: C_3  and  C_5
REMARK    4  A    between atoms: C_10  and  N_11
REMARK    5  A    between atoms: N_11  and  S_12
REMARK    6  A    between atoms: S_12  and  C_15
REMARK    7  A    between atoms: C_20  and  C_21
REMARK    8  A    between atoms: C_24  and  O_25
REMARK    9  A    between atoms: C_28  and  C_29
REMARK   10  A    between atoms: C_32  and  O_33
REMARK                            x       y       z     vdW  Elec       q    Type
REMARK                         _______ _______ _______ _____ _____    ______ ____
ROOT
ATOM      1  C   UNL     1       4.882   5.313  16.128  0.00  0.00    +0.000 C 
ATOM      2  C   UNL     1       4.627   6.811  15.911  0.00  0.00    +0.000 C 
ATOM      3  C   UNL     1       4.283   7.294  17.334  0.00  0.00    +0.000 C 
ATOM      4  O   UNL     1       5.103   6.392  18.109  0.00  0.00    +0.000 OA
ATOM      5  C   UNL     1       4.497   5.157  17.601  0.00  0.00    +0.000 C 
ATOM      6  C   UNL     1       3.068   5.472  18.001  0.00  0.00    +0.000 C 
ATOM      7  C   UNL     1       2.942   6.817  17.857  0.00  0.00    +0.000 C 
ENDROOT
BRANCH   6   8
ATOM      8  C   UNL     1       2.440   4.659  19.059  0.00  0.00    +0.000 A 
ATOM      9  C   UNL     1       1.195   4.038  18.922  0.00  0.00    +0.000 A 
ATOM     10  C   UNL     1       0.665   3.277  19.977  0.00  0.00    +0.000 A 
ATOM     11  C   UNL     1       1.377   3.147  21.167  0.00  0.00    +0.000 A 
ATOM     12  C   UNL     1       2.601   3.771  21.330  0.00  0.00    +0.000 A 
ATOM     13  C   UNL     1       3.121   4.530  20.284  0.00  0.00    +0.000 A 
BRANCH  11  14
ATOM     14  O   UNL     1       0.906   2.414  22.215  0.00  0.00    +0.000 OA
ATOM     15  H   UNL     1      -0.003   2.143  22.023  0.00  0.00    +0.000 HD
ENDBRANCH  11  14
ENDBRANCH   6   8
BRANCH   7  16
ATOM     16  C   UNL     1       2.171   7.670  18.778  0.00  0.00    +0.000 A 
ATOM     17  C   UNL     1       1.577   8.839  18.274  0.00  0.00    +0.000 A 
ATOM     18  C   UNL     1       0.907   9.732  19.108  0.00  0.00    +0.000 A 
ATOM     19  C   UNL     1       0.828   9.456  20.465  0.00  0.00    +0.000 A 
ATOM     20  C   UNL     1       1.394   8.294  20.987  0.00  0.00    +0.000 A 
ATOM     21  C   UNL     1       2.074   7.404  20.147  0.00  0.00    +0.000 A 
BRANCH  19  22
ATOM     22  O   UNL     1       0.208  10.314  21.325  0.00  0.00    +0.000 OA
ATOM     23  H   UNL     1      -0.083   9.809  22.106  0.00  0.00    +0.000 HD
ENDBRANCH  19  22
ENDBRANCH   7  16
BRANCH   1  24
ATOM     24  S   UNL     1       6.625   4.729  16.114  0.00  0.00    +0.000 S 
ATOM     25  O   UNL     1       6.765   3.881  17.282  0.00  0.00    +0.000 OA
ATOM     26  O   UNL     1       7.532   5.837  15.927  0.00  0.00    +0.000 OA
BRANCH  24  27
ATOM     27  N   UNL     1       6.825   3.670  14.792  0.00  0.00    +0.000 N 
ATOM     28  H   UNL     1       7.660   3.109  14.998  0.00  0.00    +0.000 HD
BRANCH  27  34
ATOM     29  C   UNL     1       6.530   4.004  12.275  0.00  0.00    +0.000 A 
ATOM     30  C   UNL     1       6.983   4.676  11.116  0.00  0.00    +0.000 A 
ATOM     31  C   UNL     1       7.923   5.700  11.186  0.00  0.00    +0.000 A 
ATOM     32  C   UNL     1       8.413   6.087  12.424  0.00  0.00    +0.000 A 
ATOM     33  C   UNL     1       7.965   5.452  13.587  0.00  0.00    +0.000 A 
ATOM     34  C   UNL     1       7.028   4.403  13.536  0.00  0.00    +0.000 A 
BRANCH  29  35
ATOM     35  C   UNL     1       5.575   2.893  11.982  0.00  0.00    +0.000 C 
ATOM     36  O   UNL     1       5.967   1.784  11.645  0.00  0.00    +0.000 OA
BRANCH  35  38
ATOM     37  C   UNL     1       3.581   3.275  10.814  0.00  0.00    +0.000 C 
ATOM     38  O   UNL     1       4.276   3.262  12.071  0.00  0.00    +0.000 OA
ENDBRANCH  35  38
ENDBRANCH  29  35
ENDBRANCH  27  34
ENDBRANCH  24  27
ENDBRANCH   1  24
TORSDOF 9
ENDMDL
MODEL 2
REMARK VINA RESULT:      -8.0      4.750      9.205
REMARK  Name = 
REMARK  10 active torsions:
REMARK  status: ('A' for Active; 'I' for Inactive)
REMARK    1  A    between atoms: C_1  and  O_2
REMARK    2  A    between atoms: O_2  and  C_3
REMARK    3  A    between atoms: C_3  and  C_5
REMARK    4  A    between atoms: C_10  and  N_11
REMARK    5  A    between atoms: N_11  and  S_12
REMARK    6  A    between atoms: S_12  and  C_15
REMARK    7  A    between atoms: C_20  and  C_21
REMARK    8  A    between atoms: C_24  and  O_25
REMARK    9  A    between atoms: C_28  and  C_29
REMARK   10  A    between atoms: C_32  and  O_33
REMARK                            x       y       z     vdW  Elec       q    Type
REMARK                         _______ _______ _______ _____ _____    ______ ____
ROOT
ATOM      1  C   UNL     1       0.868   9.840  21.881  0.00  0.00    +0.000 C 
ATOM      2  C   UNL     1       0.002   9.718  23.142  0.00  0.00    +0.000 C 
ATOM      3  C   UNL     1      -1.157  10.689  22.838  0.00  0.00    +0.000 C 
ATOM      4  O   UNL     1      -1.232  10.547  21.403  0.00  0.00    +0.000 OA
ATOM      5  C   UNL     1       0.148  10.966  21.134  0.00  0.00    +0.000 C 
ATOM      6  C   UNL     1       0.065  12.325  21.803  0.00  0.00    +0.000 C 
ATOM      7  C   UNL     1      -0.774  12.156  22.858  0.00  0.00    +0.000 C 
ENDROOT
BRANCH   6   8
ATOM      8  C   UNL     1       0.150  13.530  20.957  0.00  0.00    +0.000 A 
ATOM      9  C   UNL     1      -0.670  13.757  19.849  0.00  0.00    +0.000 A 
ATOM     10  C   UNL     1      -0.528  14.933  19.094  0.00  0.00    +0.000 A 
ATOM     11  C   UNL     1       0.438  15.873  19.445  0.00  0.00    +0.000 A 
ATOM     12  C   UNL     1       1.274  15.657  20.527  0.00  0.00    +0.000 A 
ATOM     13  C   UNL     1       1.134  14.487  21.269  0.00  0.00    +0.000 A 
BRANCH  11  14
ATOM     14  O   UNL     1       0.608  17.031  18.747  0.00  0.00    +0.000 OA
ATOM     15  H   UNL     1       0.168  16.946  17.890  0.00  0.00    +0.000 HD
ENDBRANCH  11  14
ENDBRANCH   6   8
BRANCH   7  16
ATOM     16  C   UNL     1      -1.759  13.164  23.290  0.00  0.00    +0.000 A 
ATOM     17  C   UNL     1      -1.302  14.299  23.979  0.00  0.00    +0.000 A 
ATOM     18  C   UNL     1      -2.188  15.246  24.488  0.00  0.00    +0.000 A 
ATOM     19  C   UNL     1      -3.551  15.058  24.308  0.00  0.00    +0.000 A 
ATOM     20  C   UNL     1      -4.028  13.948  23.613  0.00  0.00    +0.000 A 
ATOM     21  C   UNL     1      -3.135  12.994  23.111  0.00  0.00    +0.000 A 
BRANCH  19  22
ATOM     22  O   UNL     1      -4.458  15.942  24.814  0.00  0.00    +0.000 OA
ATOM     23  H   UNL     1      -4.970  15.491  25.510  0.00  0.00    +0.000 HD
ENDBRANCH  19  22
ENDBRANCH   7  16
BRANCH   1  24
ATOM     24  S   UNL     1       0.810   8.463  20.664  0.00  0.00    +0.000 S 
ATOM     25  O   UNL     1       0.906   9.087  19.358  0.00  0.00    +0.000 OA
ATOM     26  O   UNL     1      -0.294   7.578  20.950  0.00  0.00    +0.000 OA
BRANCH  24  27
ATOM     27  N   UNL     1       2.249   7.558  20.811  0.00  0.00    +0.000 N 
ATOM     28  H   UNL     1       2.992   8.130  20.390  0.00  0.00    +0.000 HD
BRANCH  27  34
ATOM     29  C   UNL     1       2.640   6.038  18.794  0.00  0.00    +0.000 A 
ATOM     30  C   UNL     1       2.291   4.830  18.146  0.00  0.00    +0.000 A 
ATOM     31  C   UNL     1       1.468   3.886  18.753  0.00  0.00    +0.000 A 
ATOM     32  C   UNL     1       0.993   4.124  20.034  0.00  0.00    +0.000 A 
ATOM     33  C   UNL     1       1.341   5.303  20.704  0.00  0.00    +0.000 A 
ATOM     34  C   UNL     1       2.159   6.277  20.100  0.00  0.00    +0.000 A 
BRANCH  29  35
ATOM     35  C   UNL     1       3.474   6.946  17.950  0.00  0.00    +0.000 C 
ATOM     36  O   UNL     1       3.084   8.061  17.632  0.00  0.00    +0.000 OA
BRANCH  35  38
ATOM     37  C   UNL     1       4.998   6.698  16.188  0.00  0.00    +0.000 C 
ATOM     38  O   UNL     1       4.637   6.386  17.543  0.00  0.00    +0.000 OA
ENDBRANCH  35  38
ENDBRANCH  29  35
ENDBRANCH  27  34
ENDBRANCH  24  27
ENDBRANCH   1  24
TORSDOF 9
ENDMDL
MODEL 3
REMARK VINA RESULT:      -8.0      3.683      9.460
REMARK  Name = 
REMARK  10 active torsions:
REMARK  status: ('A' for Active; 'I' for Inactive)
REMARK    1  A    between atoms: C_1  and  O_2
REMARK    2  A    between atoms: O_2  and  C_3
REMARK    3  A    between atoms: C_3  and  C_5
REMARK    4  A    between atoms: C_10  and  N_11
REMARK    5  A    between atoms: N_11  and  S_12
REMARK    6  A    between atoms: S_12  and  C_15
REMARK    7  A    between atoms: C_20  and  C_21
REMARK    8  A    between atoms: C_24  and  O_25
REMARK    9  A    between atoms: C_28  and  C_29
REMARK   10  A    between atoms: C_32  and  O_33
REMARK                            x       y       z     vdW  Elec       q    Type
REMARK                         _______ _______ _______ _____ _____    ______ ____
ROOT
ATOM      1  C   UNL     1       1.278   9.365  19.187  0.00  0.00    +0.000 C 
ATOM      2  C   UNL     1       2.496   9.969  18.476  0.00  0.00    +0.000 C 
ATOM      3  C   UNL     1       2.883   8.853  17.485  0.00  0.00    +0.000 C 
ATOM      4  O   UNL     1       1.578   8.301  17.209  0.00  0.00    +0.000 OA
ATOM      5  C   UNL     1       1.260   7.952  18.598  0.00  0.00    +0.000 C 
ATOM      6  C   UNL     1       2.463   7.062  18.847  0.00  0.00    +0.000 C 
ATOM      7  C   UNL     1       3.475   7.614  18.129  0.00  0.00    +0.000 C 
ENDROOT
BRANCH   6   8
ATOM      8  C   UNL     1       2.238   5.618  19.045  0.00  0.00    +0.000 A 
ATOM      9  C   UNL     1       2.408   4.968  20.270  0.00  0.00    +0.000 A 
ATOM     10  C   UNL     1       2.171   3.588  20.377  0.00  0.00    +0.000 A 
ATOM     11  C   UNL     1       1.773   2.861  19.257  0.00  0.00    +0.000 A 
ATOM     12  C   UNL     1       1.620   3.482  18.030  0.00  0.00    +0.000 A 
ATOM     13  C   UNL     1       1.861   4.850  17.926  0.00  0.00    +0.000 A 
BRANCH  11  14
ATOM     14  O   UNL     1       1.526   1.522  19.314  0.00  0.00    +0.000 OA
ATOM     15  H   UNL     1       1.008   1.335  20.109  0.00  0.00    +0.000 HD
ENDBRANCH  11  14
ENDBRANCH   6   8
BRANCH   7  16
ATOM     16  C   UNL     1       4.489   6.827  17.404  0.00  0.00    +0.000 A 
ATOM     17  C   UNL     1       5.496   6.186  18.143  0.00  0.00    +0.000 A 
ATOM     18  C   UNL     1       6.532   5.497  17.515  0.00  0.00    +0.000 A 
ATOM     19  C   UNL     1       6.565   5.448  16.129  0.00  0.00    +0.000 A 
ATOM     20  C   UNL     1       5.567   6.062  15.374  0.00  0.00    +0.000 A 
ATOM     21  C   UNL     1       4.533   6.760  16.009  0.00  0.00    +0.000 A 
BRANCH  19  22
ATOM     22  O   UNL     1       7.575   4.812  15.469  0.00  0.00    +0.000 OA
ATOM     23  H   UNL     1       7.971   4.159  16.072  0.00  0.00    +0.000 HD
ENDBRANCH  19  22
ENDBRANCH   7  16
BRANCH   1  24
ATOM     24  S   UNL     1      -0.385  10.002  18.730  0.00  0.00    +0.000 S 
ATOM     25  O   UNL     1      -1.284   9.534  19.768  0.00  0.00    +0.000 OA
ATOM     26  O   UNL     1      -0.681   9.707  17.348  0.00  0.00    +0.000 OA
BRANCH  24  27
ATOM     27  N   UNL     1      -0.376  11.698  18.905  0.00  0.00    +0.000 N 
ATOM     28  H   UNL     1       0.549  11.943  19.278  0.00  0.00    +0.000 HD
BRANCH  27  34
ATOM     29  C   UNL     1      -1.321  12.091  21.248  0.00  0.00    +0.000 A 
ATOM     30  C   UNL     1      -2.475  12.353  22.022  0.00  0.00    +0.000 A 
ATOM     31  C   UNL     1      -3.701  12.644  21.431  0.00  0.00    +0.000 A 
ATOM     32  C   UNL     1      -3.791  12.700  20.048  0.00  0.00    +0.000 A 
ATOM     33  C   UNL     1      -2.658  12.465  19.260  0.00  0.00    +0.000 A 
ATOM     34  C   UNL     1      -1.414  12.152  19.839  0.00  0.00    +0.000 A 
BRANCH  29  35
ATOM     35  C   UNL     1      -0.124  11.733  22.067  0.00  0.00    +0.000 C 
ATOM     36  O   UNL     1       1.011  11.977  21.683  0.00  0.00    +0.000 OA
BRANCH  35  38
ATOM     37  C   UNL     1      -0.154   9.666  23.171  0.00  0.00    +0.000 C 
ATOM     38  O   UNL     1      -0.431  11.075  23.210  0.00  0.00    +0.000 OA
ENDBRANCH  35  38
ENDBRANCH  29  35
ENDBRANCH  27  34
ENDBRANCH  24  27
ENDBRANCH   1  24
TORSDOF 9
ENDMDL
MODEL 4
REMARK VINA RESULT:      -7.9      4.765      9.271
REMARK  Name = 
REMARK  10 active torsions:
REMARK  status: ('A' for Active; 'I' for Inactive)
REMARK    1  A    between atoms: C_1  and  O_2
REMARK    2  A    between atoms: O_2  and  C_3
REMARK    3  A    between atoms: C_3  and  C_5
REMARK    4  A    between atoms: C_10  and  N_11
REMARK    5  A    between atoms: N_11  and  S_12
REMARK    6  A    between atoms: S_12  and  C_15
REMARK    7  A    between atoms: C_20  and  C_21
REMARK    8  A    between atoms: C_24  and  O_25
REMARK    9  A    between atoms: C_28  and  C_29
REMARK   10  A    between atoms: C_32  and  O_33
REMARK                            x       y       z     vdW  Elec       q    Type
REMARK                         _______ _______ _______ _____ _____    ______ ____
ROOT
ATOM      1  C   UNL     1       0.821   9.896  21.916  0.00  0.00    +0.000 C 
ATOM      2  C   UNL     1      -0.090   9.846  23.150  0.00  0.00    +0.000 C 
ATOM      3  C   UNL     1      -1.188  10.866  22.786  0.00  0.00    +0.000 C 
ATOM      4  O   UNL     1      -1.223  10.696  21.353  0.00  0.00    +0.000 OA
ATOM      5  C   UNL     1       0.184  11.039  21.121  0.00  0.00    +0.000 C 
ATOM      6  C   UNL     1       0.149  12.415  21.759  0.00  0.00    +0.000 C 
ATOM      7  C   UNL     1      -0.732  12.312  22.788  0.00  0.00    +0.000 C 
ENDROOT
BRANCH   6   8
ATOM      8  C   UNL     1       0.322  13.595  20.890  0.00  0.00    +0.000 A 
ATOM      9  C   UNL     1       1.195  14.647  21.179  0.00  0.00    +0.000 A 
ATOM     10  C   UNL     1       1.303  15.736  20.299  0.00  0.00    +0.000 A 
ATOM     11  C   UNL     1       0.534  15.773  19.138  0.00  0.00    +0.000 A 
ATOM     12  C   UNL     1      -0.351  14.751  18.846  0.00  0.00    +0.000 A 
ATOM     13  C   UNL     1      -0.462  13.675  19.724  0.00  0.00    +0.000 A 
BRANCH  11  14
ATOM     14  O   UNL     1       0.611  16.805  18.252  0.00  0.00    +0.000 OA
ATOM     15  H   UNL     1       0.391  17.627  18.711  0.00  0.00    +0.000 HD
ENDBRANCH  11  14
ENDBRANCH   6   8
BRANCH   7  16
ATOM     16  C   UNL     1      -1.679  13.377  23.165  0.00  0.00    +0.000 A 
ATOM     17  C   UNL     1      -2.984  13.329  22.651  0.00  0.00    +0.000 A 
ATOM     18  C   UNL     1      -3.902  14.347  22.900  0.00  0.00    +0.000 A 
ATOM     19  C   UNL     1      -3.511  15.432  23.673  0.00  0.00    +0.000 A 
ATOM     20  C   UNL     1      -2.226  15.494  24.208  0.00  0.00    +0.000 A 
ATOM     21  C   UNL     1      -1.304  14.473  23.948  0.00  0.00    +0.000 A 
BRANCH  19  22
ATOM     22  O   UNL     1      -4.364  16.467  23.919  0.00  0.00    +0.000 OA
ATOM     23  H   UNL     1      -4.240  17.138  23.224  0.00  0.00    +0.000 HD
ENDBRANCH  19  22
ENDBRANCH   7  16
BRANCH   1  24
ATOM     24  S   UNL     1       0.734   8.495  20.728  0.00  0.00    +0.000 S 
ATOM     25  O   UNL     1       0.710   9.100  19.409  0.00  0.00    +0.000 OA
ATOM     26  O   UNL     1      -0.309   7.572  21.105  0.00  0.00    +0.000 OA
BRANCH  24  27
ATOM     27  N   UNL     1       2.215   7.652  20.783  0.00  0.00    +0.000 N 
ATOM     28  H   UNL     1       2.908   8.257  20.325  0.00  0.00    +0.000 HD
BRANCH  27  34
ATOM     29  C   UNL     1       2.545   6.164  18.731  0.00  0.00    +0.000 A 
ATOM     30  C   UNL     1       2.211   4.946  18.096  0.00  0.00    +0.000 A 
ATOM     31  C   UNL     1       1.472   3.961  18.745  0.00  0.00    +0.000 A 
ATOM     32  C   UNL     1       1.071   4.169  20.056  0.00  0.00    +0.000 A 
ATOM     33  C   UNL     1       1.406   5.358  20.714  0.00  0.00    +0.000 A 
ATOM     34  C   UNL     1       2.138   6.372  20.068  0.00  0.00    +0.000 A 
BRANCH  29  35
ATOM     35  C   UNL     1       3.280   7.115  17.844  0.00  0.00    +0.000 C 
ATOM     36  O   UNL     1       3.032   8.313  17.844  0.00  0.00    +0.000 OA
BRANCH  35  38
ATOM     37  C   UNL     1       5.524   6.522  17.521  0.00  0.00    +0.000 C 
ATOM     38  O   UNL     1       4.174   6.509  17.029  0.00  0.00    +0.000 OA
ENDBRANCH  35  38
ENDBRANCH  29  35
ENDBRANCH  27  34
ENDBRANCH  24  27
ENDBRANCH   1  24
TORSDOF 9
ENDMDL
MODEL 5
REMARK VINA RESULT:      -7.8      6.855     12.584
REMARK  Name = 
REMARK  10 active torsions:
REMARK  status: ('A' for Active; 'I' for Inactive)
REMARK    1  A    between atoms: C_1  and  O_2
REMARK    2  A    between atoms: O_2  and  C_3
REMARK    3  A    between atoms: C_3  and  C_5
REMARK    4  A    between atoms: C_10  and  N_11
REMARK    5  A    between atoms: N_11  and  S_12
REMARK    6  A    between atoms: S_12  and  C_15
REMARK    7  A    between atoms: C_20  and  C_21
REMARK    8  A    between atoms: C_24  and  O_25
REMARK    9  A    between atoms: C_28  and  C_29
REMARK   10  A    between atoms: C_32  and  O_33
REMARK                            x       y       z     vdW  Elec       q    Type
REMARK                         _______ _______ _______ _____ _____    ______ ____
ROOT
ATOM      1  C   UNL     1      -2.599  12.931  21.731  0.00  0.00    +0.000 C 
ATOM      2  C   UNL     1      -1.371  12.408  22.488  0.00  0.00    +0.000 C 
ATOM      3  C   UNL     1      -0.382  12.112  21.343  0.00  0.00    +0.000 C 
ATOM      4  O   UNL     1      -0.773  13.138  20.404  0.00  0.00    +0.000 OA
ATOM      5  C   UNL     1      -2.170  12.708  20.278  0.00  0.00    +0.000 C 
ATOM      6  C   UNL     1      -1.888  11.286  19.830  0.00  0.00    +0.000 C 
ATOM      7  C   UNL     1      -0.752  10.922  20.479  0.00  0.00    +0.000 C 
ENDROOT
BRANCH   6   8
ATOM      8  C   UNL     1      -2.253  10.899  18.454  0.00  0.00    +0.000 A 
ATOM      9  C   UNL     1      -2.709   9.626  18.103  0.00  0.00    +0.000 A 
ATOM     10  C   UNL     1      -3.038   9.336  16.769  0.00  0.00    +0.000 A 
ATOM     11  C   UNL     1      -2.903  10.318  15.790  0.00  0.00    +0.000 A 
ATOM     12  C   UNL     1      -2.433  11.578  16.114  0.00  0.00    +0.000 A 
ATOM     13  C   UNL     1      -2.102  11.860  17.437  0.00  0.00    +0.000 A 
BRANCH  11  14
ATOM     14  O   UNL     1      -3.217  10.085  14.484  0.00  0.00    +0.000 OA
ATOM     15  H   UNL     1      -4.129   9.768  14.434  0.00  0.00    +0.000 HD
ENDBRANCH  11  14
ENDBRANCH   6   8
BRANCH   7  16
ATOM     16  C   UNL     1       0.311  10.101  19.872  0.00  0.00    +0.000 A 
ATOM     17  C   UNL     1       0.838  10.494  18.632  0.00  0.00    +0.000 A 
ATOM     18  C   UNL     1       1.783   9.717  17.965  0.00  0.00    +0.000 A 
ATOM     19  C   UNL     1       2.208   8.529  18.543  0.00  0.00    +0.000 A 
ATOM     20  C   UNL     1       1.712   8.126  19.782  0.00  0.00    +0.000 A 
ATOM     21  C   UNL     1       0.756   8.906  20.445  0.00  0.00    +0.000 A 
BRANCH  19  22
ATOM     22  O   UNL     1       3.109   7.720  17.915  0.00  0.00    +0.000 OA
ATOM     23  H   UNL     1       3.309   6.969  18.503  0.00  0.00    +0.000 HD
ENDBRANCH  19  22
ENDBRANCH   7  16
BRANCH   1  24
ATOM     24  S   UNL     1      -2.925  14.740  21.770  0.00  0.00    +0.000 S 
ATOM     25  O   UNL     1      -2.234  15.289  20.619  0.00  0.00    +0.000 OA
ATOM     26  O   UNL     1      -2.657  15.277  23.083  0.00  0.00    +0.000 OA
BRANCH  24  27
ATOM     27  N   UNL     1      -4.578  14.995  21.436  0.00  0.00    +0.000 N 
ATOM     28  H   UNL     1      -4.807  15.922  21.814  0.00  0.00    +0.000 HD
BRANCH  27  34
ATOM     29  C   UNL     1      -6.062  12.914  21.411  0.00  0.00    +0.000 A 
ATOM     30  C   UNL     1      -7.023  12.146  22.108  0.00  0.00    +0.000 A 
ATOM     31  C   UNL     1      -7.373  12.433  23.424  0.00  0.00    +0.000 A 
ATOM     32  C   UNL     1      -6.748  13.485  24.078  0.00  0.00    +0.000 A 
ATOM     33  C   UNL     1      -5.778  14.246  23.416  0.00  0.00    +0.000 A 
ATOM     34  C   UNL     1      -5.424  13.983  22.080  0.00  0.00    +0.000 A 
BRANCH  29  35
ATOM     35  C   UNL     1      -5.879  12.490  19.990  0.00  0.00    +0.000 C 
ATOM     36  O   UNL     1      -5.444  13.258  19.144  0.00  0.00    +0.000 OA
BRANCH  35  38
ATOM     37  C   UNL     1      -6.337  10.875  18.355  0.00  0.00    +0.000 C 
ATOM     38  O   UNL     1      -6.294  11.225  19.748  0.00  0.00    +0.000 OA
ENDBRANCH  35  38
ENDBRANCH  29  35
ENDBRANCH  27  34
ENDBRANCH  24  27
ENDBRANCH   1  24
TORSDOF 9
ENDMDL
MODEL 6
REMARK VINA RESULT:      -7.8     10.132     12.633
REMARK  Name = 
REMARK  10 active torsions:
REMARK  status: ('A' for Active; 'I' for Inactive)
REMARK    1  A    between atoms: C_1  and  O_2
REMARK    2  A    between atoms: O_2  and  C_3
REMARK    3  A    between atoms: C_3  and  C_5
REMARK    4  A    between atoms: C_10  and  N_11
REMARK    5  A    between atoms: N_11  and  S_12
REMARK    6  A    between atoms: S_12  and  C_15
REMARK    7  A    between atoms: C_20  and  C_21
REMARK    8  A    between atoms: C_24  and  O_25
REMARK    9  A    between atoms: C_28  and  C_29
REMARK   10  A    between atoms: C_32  and  O_33
REMARK                            x       y       z     vdW  Elec       q    Type
REMARK                         _______ _______ _______ _____ _____    ______ ____
ROOT
ATOM      1  C   UNL     1       0.318  13.253  21.027  0.00  0.00    +0.000 C 
ATOM      2  C   UNL     1      -0.571  12.027  20.779  0.00  0.00    +0.000 C 
ATOM      3  C   UNL     1      -1.986  12.599  21.003  0.00  0.00    +0.000 C 
ATOM      4  O   UNL     1      -1.783  13.953  20.545  0.00  0.00    +0.000 OA
ATOM      5  C   UNL     1      -0.715  14.280  21.497  0.00  0.00    +0.000 C 
ATOM      6  C   UNL     1      -1.494  13.978  22.763  0.00  0.00    +0.000 C 
ATOM      7  C   UNL     1      -2.309  12.939  22.445  0.00  0.00    +0.000 C 
ENDROOT
BRANCH   6   8
ATOM      8  C   UNL     1      -1.840  15.098  23.659  0.00  0.00    +0.000 A 
ATOM      9  C   UNL     1      -1.465  15.157  25.004  0.00  0.00    +0.000 A 
ATOM     10  C   UNL     1      -1.832  16.261  25.791  0.00  0.00    +0.000 A 
ATOM     11  C   UNL     1      -2.579  17.296  25.233  0.00  0.00    +0.000 A 
ATOM     12  C   UNL     1      -2.977  17.246  23.909  0.00  0.00    +0.000 A 
ATOM     13  C   UNL     1      -2.617  16.147  23.133  0.00  0.00    +0.000 A 
BRANCH  11  14
ATOM     14  O   UNL     1      -2.952  18.390  25.956  0.00  0.00    +0.000 OA
ATOM     15  H   UNL     1      -3.304  18.095  26.807  0.00  0.00    +0.000 HD
ENDBRANCH  11  14
ENDBRANCH   6   8
BRANCH   7  16
ATOM     16  C   UNL     1      -3.693  12.803  22.935  0.00  0.00    +0.000 A 
ATOM     17  C   UNL     1      -4.749  13.108  22.062  0.00  0.00    +0.000 A 
ATOM     18  C   UNL     1      -6.075  13.082  22.487  0.00  0.00    +0.000 A 
ATOM     19  C   UNL     1      -6.353  12.747  23.805  0.00  0.00    +0.000 A 
ATOM     20  C   UNL     1      -5.323  12.423  24.687  0.00  0.00    +0.000 A 
ATOM     21  C   UNL     1      -3.991  12.460  24.257  0.00  0.00    +0.000 A 
BRANCH  19  22
ATOM     22  O   UNL     1      -7.633  12.737  24.276  0.00  0.00    +0.000 OA
ATOM     23  H   UNL     1      -7.843  13.627  24.611  0.00  0.00    +0.000 HD
ENDBRANCH  19  22
ENDBRANCH   7  16
BRANCH   1  24
ATOM     24  S   UNL     1       1.060  14.084  19.564  0.00  0.00    +0.000 S 
ATOM     25  O   UNL     1       0.106  13.907  18.486  0.00  0.00    +0.000 OA
ATOM     26  O   UNL     1       2.428  13.663  19.379  0.00  0.00    +0.000 OA
BRANCH  24  27
ATOM     27  N   UNL     1       1.072  15.765  19.851  0.00  0.00    +0.000 N 
ATOM     28  H   UNL     1       0.267  15.958  20.460  0.00  0.00    +0.000 HD
BRANCH  27  34
ATOM     29  C   UNL     1       2.008  16.932  17.778  0.00  0.00    +0.000 A 
ATOM     30  C   UNL     1       1.759  17.849  16.732  0.00  0.00    +0.000 A 
ATOM     31  C   UNL     1       0.493  18.384  16.514  0.00  0.00    +0.000 A 
ATOM     32  C   UNL     1      -0.558  17.991  17.329  0.00  0.00    +0.000 A 
ATOM     33  C   UNL     1      -0.342  17.068  18.359  0.00  0.00    +0.000 A 
ATOM     34  C   UNL     1       0.936  16.530  18.606  0.00  0.00    +0.000 A 
BRANCH  29  35
ATOM     35  C   UNL     1       3.443  16.530  17.888  0.00  0.00    +0.000 C 
ATOM     36  O   UNL     1       3.876  15.537  17.319  0.00  0.00    +0.000 OA
BRANCH  35  38
ATOM     37  C   UNL     1       4.437  16.751  19.999  0.00  0.00    +0.000 C 
ATOM     38  O   UNL     1       4.164  17.327  18.711  0.00  0.00    +0.000 OA
ENDBRANCH  35  38
ENDBRANCH  29  35
ENDBRANCH  27  34
ENDBRANCH  24  27
ENDBRANCH   1  24
TORSDOF 9
ENDMDL
MODEL 7
REMARK VINA RESULT:      -7.8      9.065     13.773
REMARK  Name = 
REMARK  10 active torsions:
REMARK  status: ('A' for Active; 'I' for Inactive)
REMARK    1  A    between atoms: C_1  and  O_2
REMARK    2  A    between atoms: O_2  and  C_3
REMARK    3  A    between atoms: C_3  and  C_5
REMARK    4  A    between atoms: C_10  and  N_11
REMARK    5  A    between atoms: N_11  and  S_12
REMARK    6  A    between atoms: S_12  and  C_15
REMARK    7  A    between atoms: C_20  and  C_21
REMARK    8  A    between atoms: C_24  and  O_25
REMARK    9  A    between atoms: C_28  and  C_29
REMARK   10  A    between atoms: C_32  and  O_33
REMARK                            x       y       z     vdW  Elec       q    Type
REMARK                         _______ _______ _______ _____ _____    ______ ____
ROOT
ATOM      1  C   UNL     1      -2.624  12.097  22.975  0.00  0.00    +0.000 C 
ATOM      2  C   UNL     1      -1.387  12.928  23.343  0.00  0.00    +0.000 C 
ATOM      3  C   UNL     1      -1.074  13.653  22.018  0.00  0.00    +0.000 C 
ATOM      4  O   UNL     1      -2.411  13.796  21.491  0.00  0.00    +0.000 OA
ATOM      5  C   UNL     1      -2.724  12.363  21.471  0.00  0.00    +0.000 C 
ATOM      6  C   UNL     1      -1.565  11.931  20.593  0.00  0.00    +0.000 C 
ATOM      7  C   UNL     1      -0.538  12.758  20.919  0.00  0.00    +0.000 C 
ENDROOT
BRANCH   6   8
ATOM      8  C   UNL     1      -1.861  11.422  19.240  0.00  0.00    +0.000 A 
ATOM      9  C   UNL     1      -2.884  11.924  18.431  0.00  0.00    +0.000 A 
ATOM     10  C   UNL     1      -3.101  11.385  17.152  0.00  0.00    +0.000 A 
ATOM     11  C   UNL     1      -2.301  10.342  16.691  0.00  0.00    +0.000 A 
ATOM     12  C   UNL     1      -1.298   9.817  17.486  0.00  0.00    +0.000 A 
ATOM     13  C   UNL     1      -1.089  10.350  18.755  0.00  0.00    +0.000 A 
BRANCH  11  14
ATOM     14  O   UNL     1      -2.471   9.792  15.455  0.00  0.00    +0.000 OA
ATOM     15  H   UNL     1      -2.910   8.936  15.553  0.00  0.00    +0.000 HD
ENDBRANCH  11  14
ENDBRANCH   6   8
BRANCH   7  16
ATOM     16  C   UNL     1       0.422  13.297  19.939  0.00  0.00    +0.000 A 
ATOM     17  C   UNL     1       1.536  12.517  19.589  0.00  0.00    +0.000 A 
ATOM     18  C   UNL     1       2.524  13.001  18.735  0.00  0.00    +0.000 A 
ATOM     19  C   UNL     1       2.400  14.285  18.222  0.00  0.00    +0.000 A 
ATOM     20  C   UNL     1       1.296  15.073  18.541  0.00  0.00    +0.000 A 
ATOM     21  C   UNL     1       0.310  14.585  19.407  0.00  0.00    +0.000 A 
BRANCH  19  22
ATOM     22  O   UNL     1       3.357  14.814  17.406  0.00  0.00    +0.000 OA
ATOM     23  H   UNL     1       3.577  15.706  17.731  0.00  0.00    +0.000 HD
ENDBRANCH  19  22
ENDBRANCH   7  16
BRANCH   1  24
ATOM     24  S   UNL     1      -4.259  12.675  23.586  0.00  0.00    +0.000 S 
ATOM     25  O   UNL     1      -4.427  12.067  24.892  0.00  0.00    +0.000 OA
ATOM     26  O   UNL     1      -5.274  12.486  22.577  0.00  0.00    +0.000 OA
BRANCH  24  27
ATOM     27  N   UNL     1      -4.151  14.347  23.905  0.00  0.00    +0.000 N 
ATOM     28  H   UNL     1      -4.173  14.446  24.927  0.00  0.00    +0.000 HD
BRANCH  27  34
ATOM     29  C   UNL     1      -5.158  16.183  22.439  0.00  0.00    +0.000 A 
ATOM     30  C   UNL     1      -6.312  16.939  22.127  0.00  0.00    +0.000 A 
ATOM     31  C   UNL     1      -7.552  16.643  22.685  0.00  0.00    +0.000 A 
ATOM     32  C   UNL     1      -7.667  15.567  23.552  0.00  0.00    +0.000 A 
ATOM     33  C   UNL     1      -6.544  14.790  23.860  0.00  0.00    +0.000 A 
ATOM     34  C   UNL     1      -5.277  15.084  23.319  0.00  0.00    +0.000 A 
BRANCH  29  35
ATOM     35  C   UNL     1      -3.915  16.701  21.793  0.00  0.00    +0.000 C 
ATOM     36  O   UNL     1      -3.838  16.853  20.582  0.00  0.00    +0.000 OA
BRANCH  35  38
ATOM     37  C   UNL     1      -1.681  17.359  22.055  0.00  0.00    +0.000 C 
ATOM     38  O   UNL     1      -2.903  16.915  22.667  0.00  0.00    +0.000 OA
ENDBRANCH  35  38
ENDBRANCH  29  35
ENDBRANCH  27  34
ENDBRANCH  24  27
ENDBRANCH   1  24
TORSDOF 9
ENDMDL
MODEL 8
REMARK VINA RESULT:      -7.8      3.856      7.137
REMARK  Name = 
REMARK  10 active torsions:
REMARK  status: ('A' for Active; 'I' for Inactive)
REMARK    1  A    between atoms: C_1  and  O_2
REMARK    2  A    between atoms: O_2  and  C_3
REMARK    3  A    between atoms: C_3  and  C_5
REMARK    4  A    between atoms: C_10  and  N_11
REMARK    5  A    between atoms: N_11  and  S_12
REMARK    6  A    between atoms: S_12  and  C_15
REMARK    7  A    between atoms: C_20  and  C_21
REMARK    8  A    between atoms: C_24  and  O_25
REMARK    9  A    between atoms: C_28  and  C_29
REMARK   10  A    between atoms: C_32  and  O_33
REMARK                            x       y       z     vdW  Elec       q    Type
REMARK                         _______ _______ _______ _____ _____    ______ ____
ROOT
ATOM      1  C   UNL     1       2.077   8.235  20.388  0.00  0.00    +0.000 C 
ATOM      2  C   UNL     1       2.196   8.713  21.842  0.00  0.00    +0.000 C 
ATOM      3  C   UNL     1       0.763   9.193  22.147  0.00  0.00    +0.000 C 
ATOM      4  O   UNL     1       0.012   8.277  21.321  0.00  0.00    +0.000 OA
ATOM      5  C   UNL     1       0.644   8.657  20.053  0.00  0.00    +0.000 C 
ATOM      6  C   UNL     1       0.306  10.135  20.111  0.00  0.00    +0.000 C 
ATOM      7  C   UNL     1       0.356  10.464  21.428  0.00  0.00    +0.000 C 
ENDROOT
BRANCH   6   8
ATOM      8  C   UNL     1      -0.650  10.675  19.126  0.00  0.00    +0.000 A 
ATOM      9  C   UNL     1      -0.552  11.955  18.574  0.00  0.00    +0.000 A 
ATOM     10  C   UNL     1      -1.503  12.395  17.639  0.00  0.00    +0.000 A 
ATOM     11  C   UNL     1      -2.552  11.558  17.265  0.00  0.00    +0.000 A 
ATOM     12  C   UNL     1      -2.677  10.296  17.817  0.00  0.00    +0.000 A 
ATOM     13  C   UNL     1      -1.737   9.864  18.748  0.00  0.00    +0.000 A 
BRANCH  11  14
ATOM     14  O   UNL     1      -3.494  11.940  16.357  0.00  0.00    +0.000 OA
ATOM     15  H   UNL     1      -4.234  11.317  16.396  0.00  0.00    +0.000 HD
ENDBRANCH  11  14
ENDBRANCH   6   8
BRANCH   7  16
ATOM     16  C   UNL     1      -0.580  11.402  22.074  0.00  0.00    +0.000 A 
ATOM     17  C   UNL     1      -0.310  12.778  22.002  0.00  0.00    +0.000 A 
ATOM     18  C   UNL     1      -1.107  13.711  22.662  0.00  0.00    +0.000 A 
ATOM     19  C   UNL     1      -2.190  13.265  23.405  0.00  0.00    +0.000 A 
ATOM     20  C   UNL     1      -2.490  11.906  23.477  0.00  0.00    +0.000 A 
ATOM     21  C   UNL     1      -1.680  10.971  22.820  0.00  0.00    +0.000 A 
BRANCH  19  22
ATOM     22  O   UNL     1      -2.982  14.138  24.092  0.00  0.00    +0.000 OA
ATOM     23  H   UNL     1      -3.883  14.088  23.726  0.00  0.00    +0.000 HD
ENDBRANCH  19  22
ENDBRANCH   7  16
BRANCH   1  24
ATOM     24  S   UNL     1       2.033   6.422  20.082  0.00  0.00    +0.000 S 
ATOM     25  O   UNL     1       1.495   6.263  18.745  0.00  0.00    +0.000 OA
ATOM     26  O   UNL     1       1.409   5.734  21.187  0.00  0.00    +0.000 OA
BRANCH  24  27
ATOM     27  N   UNL     1       3.639   5.860  19.965  0.00  0.00    +0.000 N 
ATOM     28  H   UNL     1       4.242   6.681  20.100  0.00  0.00    +0.000 HD
BRANCH  27  34
ATOM     29  C   UNL     1       3.781   3.895  18.336  0.00  0.00    +0.000 A 
ATOM     30  C   UNL     1       4.287   3.425  17.102  0.00  0.00    +0.000 A 
ATOM     31  C   UNL     1       4.931   4.271  16.205  0.00  0.00    +0.000 A 
ATOM     32  C   UNL     1       5.061   5.617  16.517  0.00  0.00    +0.000 A 
ATOM     33  C   UNL     1       4.551   6.111  17.723  0.00  0.00    +0.000 A 
ATOM     34  C   UNL     1       3.912   5.267  18.650  0.00  0.00    +0.000 A 
BRANCH  29  35
ATOM     35  C   UNL     1       3.188   2.819  19.185  0.00  0.00    +0.000 C 
ATOM     36  O   UNL     1       2.494   1.934  18.705  0.00  0.00    +0.000 OA
BRANCH  35  38
ATOM     37  C   UNL     1       2.389   2.531  21.369  0.00  0.00    +0.000 C 
ATOM     38  O   UNL     1       3.450   2.969  20.505  0.00  0.00    +0.000 OA
ENDBRANCH  35  38
ENDBRANCH  29  35
ENDBRANCH  27  34
ENDBRANCH  24  27
ENDBRANCH   1  24
TORSDOF 9
ENDMDL
MODEL 9
REMARK VINA RESULT:      -7.8      3.700      7.383
REMARK  Name = 
REMARK  10 active torsions:
REMARK  status: ('A' for Active; 'I' for Inactive)
REMARK    1  A    between atoms: C_1  and  O_2
REMARK    2  A    between atoms: O_2  and  C_3
REMARK    3  A    between atoms: C_3  and  C_5
REMARK    4  A    between atoms: C_10  and  N_11
REMARK    5  A    between atoms: N_11  and  S_12
REMARK    6  A    between atoms: S_12  and  C_15
REMARK    7  A    between atoms: C_20  and  C_21
REMARK    8  A    between atoms: C_24  and  O_25
REMARK    9  A    between atoms: C_28  and  C_29
REMARK   10  A    between atoms: C_32  and  O_33
REMARK                            x       y       z     vdW  Elec       q    Type
REMARK                         _______ _______ _______ _____ _____    ______ ____
ROOT
ATOM      1  C   UNL     1       1.785   8.373  20.704  0.00  0.00    +0.000 C 
ATOM      2  C   UNL     1       0.590   8.197  21.651  0.00  0.00    +0.000 C 
ATOM      3  C   UNL     1      -0.398   9.261  21.132  0.00  0.00    +0.000 C 
ATOM      4  O   UNL     1      -0.063   9.248  19.727  0.00  0.00    +0.000 OA
ATOM      5  C   UNL     1       1.350   9.602  19.902  0.00  0.00    +0.000 C 
ATOM      6  C   UNL     1       1.126  10.900  20.653  0.00  0.00    +0.000 C 
ATOM      7  C   UNL     1       0.014  10.694  21.406  0.00  0.00    +0.000 C 
ENDROOT
BRANCH   6   8
ATOM      8  C   UNL     1       1.492  12.167  19.991  0.00  0.00    +0.000 A 
ATOM      9  C   UNL     1       1.385  12.379  18.614  0.00  0.00    +0.000 A 
ATOM     10  C   UNL     1       1.753  13.616  18.060  0.00  0.00    +0.000 A 
ATOM     11  C   UNL     1       2.233  14.632  18.882  0.00  0.00    +0.000 A 
ATOM     12  C   UNL     1       2.366  14.434  20.245  0.00  0.00    +0.000 A 
ATOM     13  C   UNL     1       2.007  13.204  20.791  0.00  0.00    +0.000 A 
BRANCH  11  14
ATOM     14  O   UNL     1       2.596  15.851  18.390  0.00  0.00    +0.000 OA
ATOM     15  H   UNL     1       3.553  15.953  18.486  0.00  0.00    +0.000 HD
ENDBRANCH  11  14
ENDBRANCH   6   8
BRANCH   7  16
ATOM     16  C   UNL     1      -1.018  11.720  21.641  0.00  0.00    +0.000 A 
ATOM     17  C   UNL     1      -1.192  12.211  22.945  0.00  0.00    +0.000 A 
ATOM     18  C   UNL     1      -2.205  13.118  23.251  0.00  0.00    +0.000 A 
ATOM     19  C   UNL     1      -3.057  13.541  22.241  0.00  0.00    +0.000 A 
ATOM     20  C   UNL     1      -2.894  13.081  20.936  0.00  0.00    +0.000 A 
ATOM     21  C   UNL     1      -1.880  12.163  20.635  0.00  0.00    +0.000 A 
BRANCH  19  22
ATOM     22  O   UNL     1      -4.082  14.404  22.497  0.00  0.00    +0.000 OA
ATOM     23  H   UNL     1      -4.922  13.946  22.315  0.00  0.00    +0.000 HD
ENDBRANCH  19  22
ENDBRANCH   7  16
BRANCH   1  24
ATOM     24  S   UNL     1       2.031   7.112  19.389  0.00  0.00    +0.000 S 
ATOM     25  O   UNL     1       1.898   7.824  18.132  0.00  0.00    +0.000 OA
ATOM     26  O   UNL     1       1.211   5.951  19.639  0.00  0.00    +0.000 OA
BRANCH  24  27
ATOM     27  N   UNL     1       3.661   6.611  19.425  0.00  0.00    +0.000 N 
ATOM     28  H   UNL     1       4.220   7.462  19.559  0.00  0.00    +0.000 HD
BRANCH  27  34
ATOM     29  C   UNL     1       3.973   4.572  17.915  0.00  0.00    +0.000 A 
ATOM     30  C   UNL     1       4.592   4.052  16.755  0.00  0.00    +0.000 A 
ATOM     31  C   UNL     1       5.299   4.866  15.875  0.00  0.00    +0.000 A 
ATOM     32  C   UNL     1       5.382   6.227  16.129  0.00  0.00    +0.000 A 
ATOM     33  C   UNL     1       4.760   6.770  17.260  0.00  0.00    +0.000 A 
ATOM     34  C   UNL     1       4.056   5.960  18.170  0.00  0.00    +0.000 A 
BRANCH  29  35
ATOM     35  C   UNL     1       3.325   3.527  18.763  0.00  0.00    +0.000 C 
ATOM     36  O   UNL     1       3.544   3.450  19.964  0.00  0.00    +0.000 OA
BRANCH  35  38
ATOM     37  C   UNL     1       1.280   2.386  18.678  0.00  0.00    +0.000 C 
ATOM     38  O   UNL     1       2.546   2.671  18.061  0.00  0.00    +0.000 OA
ENDBRANCH  35  38
ENDBRANCH  29  35
ENDBRANCH  27  34
ENDBRANCH  24  27
ENDBRANCH   1  24
TORSDOF 9
ENDMDL
