MODEL 1
REMARK VINA RESULT:      -8.7      0.000      0.000
REMARK  Name = 
REMARK  8 active torsions:
REMARK  status: ('A' for Active; 'I' for Inactive)
REMARK    1  A    between atoms: N_1  and  C_2
REMARK    2  A    between atoms: C_7  and  S_8
REMARK    3  A    between atoms: S_8  and  N_11
REMARK    4  A    between atoms: N_14  and  C_15
REMARK    5  A    between atoms: C_18  and  C_19
REMARK    6  A    between atoms: C_19  and  O_20
REMARK    7  A    between atoms: C_19  and  C_21
REMARK    8  A    between atoms: C_19  and  C_25
REMARK                            x       y       z     vdW  Elec       q    Type
REMARK                         _______ _______ _______ _____ _____    ______ ____
ROOT
ATOM      1  N   UNL     1      -0.691  10.799  19.343  0.00  0.00    +0.000 NA
ATOM      2  C   UNL     1       0.009  10.491  20.615  0.00  0.00    +0.000 C 
ATOM      3  C   UNL     1       0.506   9.035  20.608  0.00  0.00    +0.000 C 
ATOM      4  N   UNL     1       1.512   8.821  19.543  0.00  0.00    +0.000 N 
ATOM      5  C   UNL     1       1.350   9.691  18.348  0.00  0.00    +0.000 C 
ATOM      6  C   UNL     1      -0.118  10.124  18.147  0.00  0.00    +0.000 C 
ENDROOT
BRANCH   4   7
ATOM      7  C   UNL     1       2.143   7.583  19.430  0.00  0.00    +0.000 A 
ATOM      8  C   UNL     1       1.910   6.538  20.333  0.00  0.00    +0.000 A 
ATOM      9  C   UNL     1       2.498   5.271  20.190  0.00  0.00    +0.000 A 
ATOM     10  C   UNL     1       3.370   4.980  19.131  0.00  0.00    +0.000 A 
ATOM     11  C   UNL     1       3.673   6.039  18.261  0.00  0.00    +0.000 A 
ATOM     12  C   UNL     1       3.081   7.308  18.424  0.00  0.00    +0.000 A 
BRANCH  10  13
ATOM     13  C   UNL     1       3.963   3.569  18.923  0.00  0.00    +0.000 C 
BRANCH  13  14
ATOM     14  C   UNL     1       3.491   2.567  20.015  0.00  0.00    +0.000 C 
ATOM     15  F   UNL     1       4.298   1.481  20.108  0.00  0.00    +0.000 F 
ATOM     16  F   UNL     1       3.357   3.042  21.262  0.00  0.00    +0.000 F 
ATOM     17  F   UNL     1       2.269   2.065  19.663  0.00  0.00    +0.000 F 
ENDBRANCH  13  14
BRANCH  13  18
ATOM     18  C   UNL     1       3.659   2.996  17.510  0.00  0.00    +0.000 C 
ATOM     19  F   UNL     1       3.755   1.642  17.469  0.00  0.00    +0.000 F 
ATOM     20  F   UNL     1       2.388   3.283  17.122  0.00  0.00    +0.000 F 
ATOM     21  F   UNL     1       4.455   3.443  16.519  0.00  0.00    +0.000 F 
ENDBRANCH  13  18
BRANCH  13  22
ATOM     22  O   UNL     1       5.428   3.737  19.051  0.00  0.00    +0.000 OA
ATOM     23  H   UNL     1       5.623   3.845  20.002  0.00  0.00    +0.000 HD
ENDBRANCH  13  22
ENDBRANCH  10  13
ENDBRANCH   4   7
BRANCH   1  24
ATOM     24  S   UNL     1      -1.442  12.291  19.196  0.00  0.00    +0.000 S 
ATOM     25  O   UNL     1      -0.741  13.028  18.171  0.00  0.00    +0.000 OA
ATOM     26  O   UNL     1      -1.603  12.868  20.523  0.00  0.00    +0.000 OA
BRANCH  24  32
ATOM     27  C   UNL     1      -3.284  11.444  17.262  0.00  0.00    +0.000 A 
ATOM     28  C   UNL     1      -4.608  11.196  16.868  0.00  0.00    +0.000 A 
ATOM     29  C   UNL     1      -5.675  11.308  17.769  0.00  0.00    +0.000 A 
ATOM     30  C   UNL     1      -5.443  11.719  19.076  0.00  0.00    +0.000 A 
ATOM     31  C   UNL     1      -4.143  12.031  19.470  0.00  0.00    +0.000 A 
ATOM     32  C   UNL     1      -3.071  11.934  18.559  0.00  0.00    +0.000 A 
BRANCH  27  33
ATOM     33  N   UNL     1      -2.284  11.402  16.271  0.00  0.00    +0.000 N 
ATOM     34  H   UNL     1      -2.495  11.992  15.470  0.00  0.00    +0.000 HD
ATOM     35  H   UNL     1      -2.091  10.443  15.959  0.00  0.00    +0.000 HD
ENDBRANCH  27  33
ENDBRANCH  24  32
ENDBRANCH   1  24
TORSDOF 8
ENDMDL
MODEL 2
REMARK VINA RESULT:      -8.7      3.133      4.766
REMARK  Name = 
REMARK  8 active torsions:
REMARK  status: ('A' for Active; 'I' for Inactive)
REMARK    1  A    between atoms: N_1  and  C_2
REMARK    2  A    between atoms: C_7  and  S_8
REMARK    3  A    between atoms: S_8  and  N_11
REMARK    4  A    between atoms: N_14  and  C_15
REMARK    5  A    between atoms: C_18  and  C_19
REMARK    6  A    between atoms: C_19  and  O_20
REMARK    7  A    between atoms: C_19  and  C_21
REMARK    8  A    between atoms: C_19  and  C_25
REMARK                            x       y       z     vdW  Elec       q    Type
REMARK                         _______ _______ _______ _____ _____    ______ ____
ROOT
ATOM      1  N   UNL     1       0.387  10.772  20.979  0.00  0.00    +0.000 NA
ATOM      2  C   UNL     1       0.009  10.387  19.596  0.00  0.00    +0.000 C 
ATOM      3  C   UNL     1       1.167   9.632  18.921  0.00  0.00    +0.000 C 
ATOM      4  N   UNL     1       1.452   8.359  19.620  0.00  0.00    +0.000 N 
ATOM      5  C   UNL     1       1.149   8.366  21.076  0.00  0.00    +0.000 C 
ATOM      6  C   UNL     1       1.252   9.783  21.678  0.00  0.00    +0.000 C 
ENDROOT
BRANCH   4   7
ATOM      7  C   UNL     1       2.415   7.491  19.107  0.00  0.00    +0.000 A 
ATOM      8  C   UNL     1       3.080   7.739  17.899  0.00  0.00    +0.000 A 
ATOM      9  C   UNL     1       4.092   6.899  17.407  0.00  0.00    +0.000 A 
ATOM     10  C   UNL     1       4.491   5.746  18.099  0.00  0.00    +0.000 A 
ATOM     11  C   UNL     1       3.782   5.442  19.271  0.00  0.00    +0.000 A 
ATOM     12  C   UNL     1       2.762   6.292  19.746  0.00  0.00    +0.000 A 
BRANCH  10  13
ATOM     13  C   UNL     1       5.653   4.857  17.605  0.00  0.00    +0.000 C 
BRANCH  13  14
ATOM     14  C   UNL     1       5.423   4.342  16.155  0.00  0.00    +0.000 C 
ATOM     15  F   UNL     1       4.222   3.731  16.004  0.00  0.00    +0.000 F 
ATOM     16  F   UNL     1       5.512   5.242  15.166  0.00  0.00    +0.000 F 
ATOM     17  F   UNL     1       6.346   3.372  15.874  0.00  0.00    +0.000 F 
ENDBRANCH  13  14
BRANCH  13  18
ATOM     18  C   UNL     1       7.032   5.568  17.704  0.00  0.00    +0.000 C 
ATOM     19  F   UNL     1       7.142   6.331  18.822  0.00  0.00    +0.000 F 
ATOM     20  F   UNL     1       8.049   4.669  17.775  0.00  0.00    +0.000 F 
ATOM     21  F   UNL     1       7.337   6.387  16.678  0.00  0.00    +0.000 F 
ENDBRANCH  13  18
BRANCH  13  22
ATOM     22  O   UNL     1       5.667   3.688  18.514  0.00  0.00    +0.000 OA
ATOM     23  H   UNL     1       5.416   2.907  17.982  0.00  0.00    +0.000 HD
ENDBRANCH  13  22
ENDBRANCH  10  13
ENDBRANCH   4   7
BRANCH   1  24
ATOM     24  S   UNL     1      -0.676  11.734  21.849  0.00  0.00    +0.000 S 
ATOM     25  O   UNL     1      -0.664  11.263  23.214  0.00  0.00    +0.000 OA
ATOM     26  O   UNL     1      -1.934  11.819  21.121  0.00  0.00    +0.000 OA
BRANCH  24  32
ATOM     27  C   UNL     1      -0.400  14.396  22.677  0.00  0.00    +0.000 A 
ATOM     28  C   UNL     1       0.258  15.634  22.598  0.00  0.00    +0.000 A 
ATOM     29  C   UNL     1       1.412  15.804  21.821  0.00  0.00    +0.000 A 
ATOM     30  C   UNL     1       1.905  14.746  21.067  0.00  0.00    +0.000 A 
ATOM     31  C   UNL     1       1.232  13.526  21.083  0.00  0.00    +0.000 A 
ATOM     32  C   UNL     1       0.061  13.360  21.852  0.00  0.00    +0.000 A 
BRANCH  27  33
ATOM     33  N   UNL     1      -1.604  14.337  23.404  0.00  0.00    +0.000 N 
ATOM     34  H   UNL     1      -2.384  13.989  22.851  0.00  0.00    +0.000 HD
ATOM     35  H   UNL     1      -1.848  15.242  23.822  0.00  0.00    +0.000 HD
ENDBRANCH  27  33
ENDBRANCH  24  32
ENDBRANCH   1  24
TORSDOF 8
ENDMDL
MODEL 3
REMARK VINA RESULT:      -8.6      2.840      4.141
REMARK  Name = 
REMARK  8 active torsions:
REMARK  status: ('A' for Active; 'I' for Inactive)
REMARK    1  A    between atoms: N_1  and  C_2
REMARK    2  A    between atoms: C_7  and  S_8
REMARK    3  A    between atoms: S_8  and  N_11
REMARK    4  A    between atoms: N_14  and  C_15
REMARK    5  A    between atoms: C_18  and  C_19
REMARK    6  A    between atoms: C_19  and  O_20
REMARK    7  A    between atoms: C_19  and  C_21
REMARK    8  A    between atoms: C_19  and  C_25
REMARK                            x       y       z     vdW  Elec       q    Type
REMARK                         _______ _______ _______ _____ _____    ______ ____
ROOT
ATOM      1  N   UNL     1       0.057  10.954  20.186  0.00  0.00    +0.000 NA
ATOM      2  C   UNL     1      -0.269  10.303  18.893  0.00  0.00    +0.000 C 
ATOM      3  C   UNL     1       0.966   9.567  18.344  0.00  0.00    +0.000 C 
ATOM      4  N   UNL     1       1.376   8.467  19.247  0.00  0.00    +0.000 N 
ATOM      5  C   UNL     1       1.062   8.690  20.683  0.00  0.00    +0.000 C 
ATOM      6  C   UNL     1       1.014  10.193  21.035  0.00  0.00    +0.000 C 
ENDROOT
BRANCH   4   7
ATOM      7  C   UNL     1       2.427   7.628  18.880  0.00  0.00    +0.000 A 
ATOM      8  C   UNL     1       2.767   6.486  19.617  0.00  0.00    +0.000 A 
ATOM      9  C   UNL     1       3.787   5.607  19.219  0.00  0.00    +0.000 A 
ATOM     10  C   UNL     1       4.538   5.830  18.056  0.00  0.00    +0.000 A 
ATOM     11  C   UNL     1       4.261   7.009  17.348  0.00  0.00    +0.000 A 
ATOM     12  C   UNL     1       3.240   7.886  17.766  0.00  0.00    +0.000 A 
BRANCH  10  13
ATOM     13  C   UNL     1       5.610   4.829  17.570  0.00  0.00    +0.000 C 
BRANCH  13  14
ATOM     14  C   UNL     1       5.291   4.268  16.155  0.00  0.00    +0.000 C 
ATOM     15  F   UNL     1       4.108   3.606  16.113  0.00  0.00    +0.000 F 
ATOM     16  F   UNL     1       5.267   5.144  15.141  0.00  0.00    +0.000 F 
ATOM     17  F   UNL     1       6.229   3.327  15.827  0.00  0.00    +0.000 F 
ENDBRANCH  13  14
BRANCH  13  18
ATOM     18  C   UNL     1       7.043   5.433  17.592  0.00  0.00    +0.000 C 
ATOM     19  F   UNL     1       8.005   4.479  17.689  0.00  0.00    +0.000 F 
ATOM     20  F   UNL     1       7.313   6.108  16.443  0.00  0.00    +0.000 F 
ATOM     21  F   UNL     1       7.292   6.299  18.594  0.00  0.00    +0.000 F 
ENDBRANCH  13  18
BRANCH  13  22
ATOM     22  O   UNL     1       5.564   3.707  18.535  0.00  0.00    +0.000 OA
ATOM     23  H   UNL     1       6.202   3.914  19.246  0.00  0.00    +0.000 HD
ENDBRANCH  13  22
ENDBRANCH  10  13
ENDBRANCH   4   7
BRANCH   1  24
ATOM     24  S   UNL     1      -1.106  11.935  20.891  0.00  0.00    +0.000 S 
ATOM     25  O   UNL     1      -1.229  11.535  22.273  0.00  0.00    +0.000 OA
ATOM     26  O   UNL     1      -2.283  11.956  20.034  0.00  0.00    +0.000 OA
BRANCH  24  32
ATOM     27  C   UNL     1      -0.337  14.365  19.728  0.00  0.00    +0.000 A 
ATOM     28  C   UNL     1       0.238  15.641  19.841  0.00  0.00    +0.000 A 
ATOM     29  C   UNL     1       0.622  16.166  21.082  0.00  0.00    +0.000 A 
ATOM     30  C   UNL     1       0.483  15.402  22.234  0.00  0.00    +0.000 A 
ATOM     31  C   UNL     1      -0.028  14.109  22.136  0.00  0.00    +0.000 A 
ATOM     32  C   UNL     1      -0.400  13.575  20.885  0.00  0.00    +0.000 A 
BRANCH  27  33
ATOM     33  N   UNL     1      -0.606  13.878  18.435  0.00  0.00    +0.000 N 
ATOM     34  H   UNL     1      -0.982  14.590  17.813  0.00  0.00    +0.000 HD
ATOM     35  H   UNL     1      -1.230  13.063  18.452  0.00  0.00    +0.000 HD
ENDBRANCH  27  33
ENDBRANCH  24  32
ENDBRANCH   1  24
TORSDOF 8
ENDMDL
MODEL 4
REMARK VINA RESULT:      -8.6      2.900      4.192
REMARK  Name = 
REMARK  8 active torsions:
REMARK  status: ('A' for Active; 'I' for Inactive)
REMARK    1  A    between atoms: N_1  and  C_2
REMARK    2  A    between atoms: C_7  and  S_8
REMARK    3  A    between atoms: S_8  and  N_11
REMARK    4  A    between atoms: N_14  and  C_15
REMARK    5  A    between atoms: C_18  and  C_19
REMARK    6  A    between atoms: C_19  and  O_20
REMARK    7  A    between atoms: C_19  and  C_21
REMARK    8  A    between atoms: C_19  and  C_25
REMARK                            x       y       z     vdW  Elec       q    Type
REMARK                         _______ _______ _______ _____ _____    ______ ____
ROOT
ATOM      1  N   UNL     1       0.182  11.035  20.034  0.00  0.00    +0.000 NA
ATOM      2  C   UNL     1      -0.218  10.310  18.802  0.00  0.00    +0.000 C 
ATOM      3  C   UNL     1       0.974   9.510  18.247  0.00  0.00    +0.000 C 
ATOM      4  N   UNL     1       1.400   8.460  19.200  0.00  0.00    +0.000 N 
ATOM      5  C   UNL     1       1.159   8.783  20.632  0.00  0.00    +0.000 C 
ATOM      6  C   UNL     1       1.160  10.306  20.886  0.00  0.00    +0.000 C 
ENDROOT
BRANCH   4   7
ATOM      7  C   UNL     1       2.414   7.574  18.842  0.00  0.00    +0.000 A 
ATOM      8  C   UNL     1       3.213   7.768  17.707  0.00  0.00    +0.000 A 
ATOM      9  C   UNL     1       4.273   6.910  17.374  0.00  0.00    +0.000 A 
ATOM     10  C   UNL     1       4.589   5.792  18.159  0.00  0.00    +0.000 A 
ATOM     11  C   UNL     1       3.752   5.540  19.256  0.00  0.00    +0.000 A 
ATOM     12  C   UNL     1       2.685   6.407  19.571  0.00  0.00    +0.000 A 
BRANCH  10  13
ATOM     13  C   UNL     1       5.800   4.886  17.843  0.00  0.00    +0.000 C 
BRANCH  13  14
ATOM     14  C   UNL     1       5.900   4.548  16.328  0.00  0.00    +0.000 C 
ATOM     15  F   UNL     1       6.122   5.647  15.564  0.00  0.00    +0.000 F 
ATOM     16  F   UNL     1       6.823   3.646  15.963  0.00  0.00    +0.000 F 
ATOM     17  F   UNL     1       4.697   4.061  15.898  0.00  0.00    +0.000 F 
ENDBRANCH  13  14
BRANCH  13  18
ATOM     18  C   UNL     1       7.143   5.487  18.344  0.00  0.00    +0.000 C 
ATOM     19  F   UNL     1       7.478   6.626  17.683  0.00  0.00    +0.000 F 
ATOM     20  F   UNL     1       7.071   5.835  19.656  0.00  0.00    +0.000 F 
ATOM     21  F   UNL     1       8.216   4.679  18.235  0.00  0.00    +0.000 F 
ENDBRANCH  13  18
BRANCH  13  22
ATOM     22  O   UNL     1       5.550   3.627  18.581  0.00  0.00    +0.000 OA
ATOM     23  H   UNL     1       5.055   3.035  17.981  0.00  0.00    +0.000 HD
ENDBRANCH  13  22
ENDBRANCH  10  13
ENDBRANCH   4   7
BRANCH   1  24
ATOM     24  S   UNL     1      -0.925  12.088  20.725  0.00  0.00    +0.000 S 
ATOM     25  O   UNL     1      -0.802  11.964  22.158  0.00  0.00    +0.000 OA
ATOM     26  O   UNL     1      -2.219  11.892  20.087  0.00  0.00    +0.000 OA
BRANCH  24  32
ATOM     27  C   UNL     1      -0.410  14.222  18.983  0.00  0.00    +0.000 A 
ATOM     28  C   UNL     1       0.071  15.522  18.759  0.00  0.00    +0.000 A 
ATOM     29  C   UNL     1       0.481  16.345  19.816  0.00  0.00    +0.000 A 
ATOM     30  C   UNL     1       0.464  15.865  21.119  0.00  0.00    +0.000 A 
ATOM     31  C   UNL     1       0.049  14.555  21.357  0.00  0.00    +0.000 A 
ATOM     32  C   UNL     1      -0.348  13.721  20.292  0.00  0.00    +0.000 A 
BRANCH  27  33
ATOM     33  N   UNL     1      -0.711  13.429  17.859  0.00  0.00    +0.000 N 
ATOM     34  H   UNL     1      -1.486  13.796  17.311  0.00  0.00    +0.000 HD
ATOM     35  H   UNL     1      -0.894  12.452  18.113  0.00  0.00    +0.000 HD
ENDBRANCH  27  33
ENDBRANCH  24  32
ENDBRANCH   1  24
TORSDOF 8
ENDMDL
MODEL 5
REMARK VINA RESULT:      -8.6      1.211      1.605
REMARK  Name = 
REMARK  8 active torsions:
REMARK  status: ('A' for Active; 'I' for Inactive)
REMARK    1  A    between atoms: N_1  and  C_2
REMARK    2  A    between atoms: C_7  and  S_8
REMARK    3  A    between atoms: S_8  and  N_11
REMARK    4  A    between atoms: N_14  and  C_15
REMARK    5  A    between atoms: C_18  and  C_19
REMARK    6  A    between atoms: C_19  and  O_20
REMARK    7  A    between atoms: C_19  and  C_21
REMARK    8  A    between atoms: C_19  and  C_25
REMARK                            x       y       z     vdW  Elec       q    Type
REMARK                         _______ _______ _______ _____ _____    ______ ____
ROOT
ATOM      1  N   UNL     1      -0.551  11.190  19.892  0.00  0.00    +0.000 NA
ATOM      2  C   UNL     1       0.112  10.646  21.103  0.00  0.00    +0.000 C 
ATOM      3  C   UNL     1       0.439   9.156  20.903  0.00  0.00    +0.000 C 
ATOM      4  N   UNL     1       1.412   8.967  19.803  0.00  0.00    +0.000 N 
ATOM      5  C   UNL     1       1.347   9.995  18.731  0.00  0.00    +0.000 C 
ATOM      6  C   UNL     1      -0.062  10.613  18.610  0.00  0.00    +0.000 C 
ENDROOT
BRANCH   4   7
ATOM      7  C   UNL     1       1.898   7.691  19.524  0.00  0.00    +0.000 A 
ATOM      8  C   UNL     1       1.787   6.631  20.434  0.00  0.00    +0.000 A 
ATOM      9  C   UNL     1       2.222   5.330  20.135  0.00  0.00    +0.000 A 
ATOM     10  C   UNL     1       2.809   5.017  18.900  0.00  0.00    +0.000 A 
ATOM     11  C   UNL     1       2.998   6.082  18.008  0.00  0.00    +0.000 A 
ATOM     12  C   UNL     1       2.563   7.385  18.328  0.00  0.00    +0.000 A 
BRANCH  10  13
ATOM     13  C   UNL     1       3.222   3.574  18.533  0.00  0.00    +0.000 C 
BRANCH  13  14
ATOM     14  C   UNL     1       4.159   2.942  19.602  0.00  0.00    +0.000 C 
ATOM     15  F   UNL     1       4.455   1.646  19.333  0.00  0.00    +0.000 F 
ATOM     16  F   UNL     1       5.330   3.555  19.827  0.00  0.00    +0.000 F 
ATOM     17  F   UNL     1       3.507   2.909  20.804  0.00  0.00    +0.000 F 
ENDBRANCH  13  14
BRANCH  13  18
ATOM     18  C   UNL     1       1.998   2.647  18.285  0.00  0.00    +0.000 C 
ATOM     19  F   UNL     1       1.609   1.992  19.409  0.00  0.00    +0.000 F 
ATOM     20  F   UNL     1       0.912   3.359  17.883  0.00  0.00    +0.000 F 
ATOM     21  F   UNL     1       2.176   1.690  17.353  0.00  0.00    +0.000 F 
ENDBRANCH  13  18
BRANCH  13  22
ATOM     22  O   UNL     1       3.980   3.693  17.267  0.00  0.00    +0.000 OA
ATOM     23  H   UNL     1       3.474   3.211  16.584  0.00  0.00    +0.000 HD
ENDBRANCH  13  22
ENDBRANCH  10  13
ENDBRANCH   4   7
BRANCH   1  24
ATOM     24  S   UNL     1      -1.128  12.764  19.947  0.00  0.00    +0.000 S 
ATOM     25  O   UNL     1      -0.836  13.376  18.672  0.00  0.00    +0.000 OA
ATOM     26  O   UNL     1      -0.663  13.391  21.176  0.00  0.00    +0.000 OA
BRANCH  24  32
ATOM     27  C   UNL     1      -3.685  12.124  18.996  0.00  0.00    +0.000 A 
ATOM     28  C   UNL     1      -5.072  12.042  19.195  0.00  0.00    +0.000 A 
ATOM     29  C   UNL     1      -5.653  12.308  20.441  0.00  0.00    +0.000 A 
ATOM     30  C   UNL     1      -4.858  12.712  21.507  0.00  0.00    +0.000 A 
ATOM     31  C   UNL     1      -3.485  12.861  21.315  0.00  0.00    +0.000 A 
ATOM     32  C   UNL     1      -2.903  12.607  20.056  0.00  0.00    +0.000 A 
BRANCH  27  33
ATOM     33  N   UNL     1      -3.195  11.932  17.690  0.00  0.00    +0.000 N 
ATOM     34  H   UNL     1      -3.442  12.691  17.059  0.00  0.00    +0.000 HD
ATOM     35  H   UNL     1      -3.494  11.034  17.294  0.00  0.00    +0.000 HD
ENDBRANCH  27  33
ENDBRANCH  24  32
ENDBRANCH   1  24
TORSDOF 8
ENDMDL
MODEL 6
REMARK VINA RESULT:      -8.6      1.703      2.369
REMARK  Name = 
REMARK  8 active torsions:
REMARK  status: ('A' for Active; 'I' for Inactive)
REMARK    1  A    between atoms: N_1  and  C_2
REMARK    2  A    between atoms: C_7  and  S_8
REMARK    3  A    between atoms: S_8  and  N_11
REMARK    4  A    between atoms: N_14  and  C_15
REMARK    5  A    between atoms: C_18  and  C_19
REMARK    6  A    between atoms: C_19  and  O_20
REMARK    7  A    between atoms: C_19  and  C_21
REMARK    8  A    between atoms: C_19  and  C_25
REMARK                            x       y       z     vdW  Elec       q    Type
REMARK                         _______ _______ _______ _____ _____    ______ ____
ROOT
ATOM      1  N   UNL     1      -0.195  11.420  19.955  0.00  0.00    +0.000 NA
ATOM      2  C   UNL     1       0.690  10.971  21.059  0.00  0.00    +0.000 C 
ATOM      3  C   UNL     1       0.851   9.442  21.021  0.00  0.00    +0.000 C 
ATOM      4  N   UNL     1       1.525   9.008  19.776  0.00  0.00    +0.000 N 
ATOM      5  C   UNL     1       1.288   9.888  18.601  0.00  0.00    +0.000 C 
ATOM      6  C   UNL     1      -0.061  10.631  18.700  0.00  0.00    +0.000 C 
ENDROOT
BRANCH   4   7
ATOM      7  C   UNL     1       1.837   7.662  19.594  0.00  0.00    +0.000 A 
ATOM      8  C   UNL     1       1.706   6.716  20.621  0.00  0.00    +0.000 A 
ATOM      9  C   UNL     1       1.964   5.350  20.426  0.00  0.00    +0.000 A 
ATOM     10  C   UNL     1       2.382   4.850  19.184  0.00  0.00    +0.000 A 
ATOM     11  C   UNL     1       2.592   5.794  18.167  0.00  0.00    +0.000 A 
ATOM     12  C   UNL     1       2.337   7.164  18.382  0.00  0.00    +0.000 A 
BRANCH  10  13
ATOM     13  C   UNL     1       2.595   3.339  18.941  0.00  0.00    +0.000 C 
BRANCH  13  14
ATOM     14  C   UNL     1       3.813   2.783  19.732  0.00  0.00    +0.000 C 
ATOM     15  F   UNL     1       3.542   2.605  21.048  0.00  0.00    +0.000 F 
ATOM     16  F   UNL     1       4.347   1.631  19.300  0.00  0.00    +0.000 F 
ATOM     17  F   UNL     1       4.822   3.707  19.706  0.00  0.00    +0.000 F 
ENDBRANCH  13  14
BRANCH  13  18
ATOM     18  C   UNL     1       1.326   2.499  19.259  0.00  0.00    +0.000 C 
ATOM     19  F   UNL     1       1.582   1.165  19.282  0.00  0.00    +0.000 F 
ATOM     20  F   UNL     1       0.830   2.796  20.489  0.00  0.00    +0.000 F 
ATOM     21  F   UNL     1       0.299   2.653  18.401  0.00  0.00    +0.000 F 
ENDBRANCH  13  18
BRANCH  13  22
ATOM     22  O   UNL     1       2.886   3.213  17.495  0.00  0.00    +0.000 OA
ATOM     23  H   UNL     1       2.037   3.029  17.046  0.00  0.00    +0.000 HD
ENDBRANCH  13  22
ENDBRANCH  10  13
ENDBRANCH   4   7
BRANCH   1  24
ATOM     24  S   UNL     1      -0.626  13.039  19.896  0.00  0.00    +0.000 S 
ATOM     25  O   UNL     1      -0.690  13.418  18.504  0.00  0.00    +0.000 OA
ATOM     26  O   UNL     1       0.226  13.784  20.812  0.00  0.00    +0.000 OA
BRANCH  24  32
ATOM     27  C   UNL     1      -3.381  12.531  19.855  0.00  0.00    +0.000 A 
ATOM     28  C   UNL     1      -4.648  12.640  20.450  0.00  0.00    +0.000 A 
ATOM     29  C   UNL     1      -4.814  13.184  21.730  0.00  0.00    +0.000 A 
ATOM     30  C   UNL     1      -3.716  13.677  22.424  0.00  0.00    +0.000 A 
ATOM     31  C   UNL     1      -2.457  13.636  21.826  0.00  0.00    +0.000 A 
ATOM     32  C   UNL     1      -2.293  13.103  20.531  0.00  0.00    +0.000 A 
BRANCH  27  33
ATOM     33  N   UNL     1      -3.315  12.060  18.530  0.00  0.00    +0.000 N 
ATOM     34  H   UNL     1      -3.217  11.048  18.473  0.00  0.00    +0.000 HD
ATOM     35  H   UNL     1      -2.566  12.515  17.995  0.00  0.00    +0.000 HD
ENDBRANCH  27  33
ENDBRANCH  24  32
ENDBRANCH   1  24
TORSDOF 8
ENDMDL
MODEL 7
REMARK VINA RESULT:      -8.6      1.833      2.448
REMARK  Name = 
REMARK  8 active torsions:
REMARK  status: ('A' for Active; 'I' for Inactive)
REMARK    1  A    between atoms: N_1  and  C_2
REMARK    2  A    between atoms: C_7  and  S_8
REMARK    3  A    between atoms: S_8  and  N_11
REMARK    4  A    between atoms: N_14  and  C_15
REMARK    5  A    between atoms: C_18  and  C_19
REMARK    6  A    between atoms: C_19  and  O_20
REMARK    7  A    between atoms: C_19  and  C_21
REMARK    8  A    between atoms: C_19  and  C_25
REMARK                            x       y       z     vdW  Elec       q    Type
REMARK                         _______ _______ _______ _____ _____    ______ ____
ROOT
ATOM      1  N   UNL     1      -1.278  11.802  20.792  0.00  0.00    +0.000 NA
ATOM      2  C   UNL     1      -0.600  11.091  21.905  0.00  0.00    +0.000 C 
ATOM      3  C   UNL     1      -0.133   9.701  21.439  0.00  0.00    +0.000 C 
ATOM      4  N   UNL     1       0.881   9.811  20.366  0.00  0.00    +0.000 N 
ATOM      5  C   UNL     1       0.752  11.019  19.508  0.00  0.00    +0.000 C 
ATOM      6  C   UNL     1      -0.705  11.528  19.447  0.00  0.00    +0.000 C 
ENDROOT
BRANCH   4   7
ATOM      7  C   UNL     1       1.488   8.659  19.870  0.00  0.00    +0.000 A 
ATOM      8  C   UNL     1       1.620   7.492  20.635  0.00  0.00    +0.000 A 
ATOM      9  C   UNL     1       2.178   6.311  20.120  0.00  0.00    +0.000 A 
ATOM     10  C   UNL     1       2.650   6.234  18.802  0.00  0.00    +0.000 A 
ATOM     11  C   UNL     1       2.596   7.416  18.047  0.00  0.00    +0.000 A 
ATOM     12  C   UNL     1       2.041   8.596  18.582  0.00  0.00    +0.000 A 
BRANCH  10  13
ATOM     13  C   UNL     1       3.197   4.919  18.204  0.00  0.00    +0.000 C 
BRANCH  13  14
ATOM     14  C   UNL     1       4.223   4.228  19.146  0.00  0.00    +0.000 C 
ATOM     15  F   UNL     1       5.078   5.110  19.721  0.00  0.00    +0.000 F 
ATOM     16  F   UNL     1       3.730   3.479  20.143  0.00  0.00    +0.000 F 
ATOM     17  F   UNL     1       5.022   3.400  18.406  0.00  0.00    +0.000 F 
ENDBRANCH  13  14
BRANCH  13  18
ATOM     18  C   UNL     1       2.066   3.920  17.826  0.00  0.00    +0.000 C 
ATOM     19  F   UNL     1       1.021   4.531  17.210  0.00  0.00    +0.000 F 
ATOM     20  F   UNL     1       2.508   2.981  16.949  0.00  0.00    +0.000 F 
ATOM     21  F   UNL     1       1.528   3.237  18.856  0.00  0.00    +0.000 F 
ENDBRANCH  13  18
BRANCH  13  22
ATOM     22  O   UNL     1       3.901   5.315  16.963  0.00  0.00    +0.000 OA
ATOM     23  H   UNL     1       4.827   5.509  17.209  0.00  0.00    +0.000 HD
ENDBRANCH  13  22
ENDBRANCH  10  13
ENDBRANCH   4   7
BRANCH   1  24
ATOM     24  S   UNL     1      -1.996  13.281  21.122  0.00  0.00    +0.000 S 
ATOM     25  O   UNL     1      -1.672  14.171  20.032  0.00  0.00    +0.000 OA
ATOM     26  O   UNL     1      -1.677  13.662  22.490  0.00  0.00    +0.000 OA
BRANCH  24  32
ATOM     27  C   UNL     1      -4.378  12.463  19.893  0.00  0.00    +0.000 A 
ATOM     28  C   UNL     1      -5.766  12.260  19.942  0.00  0.00    +0.000 A 
ATOM     29  C   UNL     1      -6.493  12.439  21.126  0.00  0.00    +0.000 A 
ATOM     30  C   UNL     1      -5.849  12.872  22.279  0.00  0.00    +0.000 A 
ATOM     31  C   UNL     1      -4.482  13.140  22.236  0.00  0.00    +0.000 A 
ATOM     32  C   UNL     1      -3.754  12.975  21.039  0.00  0.00    +0.000 A 
BRANCH  27  33
ATOM     33  N   UNL     1      -3.741  12.354  18.641  0.00  0.00    +0.000 N 
ATOM     34  H   UNL     1      -3.567  13.256  18.205  0.00  0.00    +0.000 HD
ATOM     35  H   UNL     1      -4.260  11.747  17.996  0.00  0.00    +0.000 HD
ENDBRANCH  27  33
ENDBRANCH  24  32
ENDBRANCH   1  24
TORSDOF 8
ENDMDL
MODEL 8
REMARK VINA RESULT:      -8.6      1.425      2.104
REMARK  Name = 
REMARK  8 active torsions:
REMARK  status: ('A' for Active; 'I' for Inactive)
REMARK    1  A    between atoms: N_1  and  C_2
REMARK    2  A    between atoms: C_7  and  S_8
REMARK    3  A    between atoms: S_8  and  N_11
REMARK    4  A    between atoms: N_14  and  C_15
REMARK    5  A    between atoms: C_18  and  C_19
REMARK    6  A    between atoms: C_19  and  O_20
REMARK    7  A    between atoms: C_19  and  C_21
REMARK    8  A    between atoms: C_19  and  C_25
REMARK                            x       y       z     vdW  Elec       q    Type
REMARK                         _______ _______ _______ _____ _____    ______ ____
ROOT
ATOM      1  N   UNL     1      -0.756  11.316  20.202  0.00  0.00    +0.000 NA
ATOM      2  C   UNL     1       0.156  10.971  21.321  0.00  0.00    +0.000 C 
ATOM      3  C   UNL     1       0.488   9.469  21.292  0.00  0.00    +0.000 C 
ATOM      4  N   UNL     1       1.225   9.110  20.059  0.00  0.00    +0.000 N 
ATOM      5  C   UNL     1       0.910   9.956  18.877  0.00  0.00    +0.000 C 
ATOM      6  C   UNL     1      -0.515  10.544  18.953  0.00  0.00    +0.000 C 
ENDROOT
BRANCH   4   7
ATOM      7  C   UNL     1       1.688   7.807  19.887  0.00  0.00    +0.000 A 
ATOM      8  C   UNL     1       1.486   6.807  20.847  0.00  0.00    +0.000 A 
ATOM      9  C   UNL     1       1.899   5.479  20.654  0.00  0.00    +0.000 A 
ATOM     10  C   UNL     1       2.554   5.077  19.481  0.00  0.00    +0.000 A 
ATOM     11  C   UNL     1       2.832   6.082  18.542  0.00  0.00    +0.000 A 
ATOM     12  C   UNL     1       2.419   7.413  18.757  0.00  0.00    +0.000 A 
BRANCH  10  13
ATOM     13  C   UNL     1       2.945   3.604  19.226  0.00  0.00    +0.000 C 
BRANCH  13  14
ATOM     14  C   UNL     1       2.169   2.989  18.027  0.00  0.00    +0.000 C 
ATOM     15  F   UNL     1       0.827   2.987  18.221  0.00  0.00    +0.000 F 
ATOM     16  F   UNL     1       2.373   3.540  16.821  0.00  0.00    +0.000 F 
ATOM     17  F   UNL     1       2.506   1.669  17.906  0.00  0.00    +0.000 F 
ENDBRANCH  13  14
BRANCH  13  18
ATOM     18  C   UNL     1       4.475   3.420  19.020  0.00  0.00    +0.000 C 
ATOM     19  F   UNL     1       4.927   2.242  19.524  0.00  0.00    +0.000 F 
ATOM     20  F   UNL     1       4.798   3.400  17.700  0.00  0.00    +0.000 F 
ATOM     21  F   UNL     1       5.253   4.370  19.575  0.00  0.00    +0.000 F 
ENDBRANCH  13  18
BRANCH  13  22
ATOM     22  O   UNL     1       2.550   2.876  20.454  0.00  0.00    +0.000 OA
ATOM     23  H   UNL     1       2.993   2.005  20.426  0.00  0.00    +0.000 HD
ENDBRANCH  13  22
ENDBRANCH  10  13
ENDBRANCH   4   7
BRANCH   1  24
ATOM     24  S   UNL     1      -1.363  12.877  20.130  0.00  0.00    +0.000 S 
ATOM     25  O   UNL     1      -1.090  13.386  18.807  0.00  0.00    +0.000 OA
ATOM     26  O   UNL     1      -0.903  13.613  21.300  0.00  0.00    +0.000 OA
BRANCH  24  32
ATOM     27  C   UNL     1      -3.928  12.239  19.202  0.00  0.00    +0.000 A 
ATOM     28  C   UNL     1      -5.311  12.133  19.421  0.00  0.00    +0.000 A 
ATOM     29  C   UNL     1      -5.873  12.353  20.686  0.00  0.00    +0.000 A 
ATOM     30  C   UNL     1      -5.064  12.730  21.751  0.00  0.00    +0.000 A 
ATOM     31  C   UNL     1      -3.697  12.901  21.541  0.00  0.00    +0.000 A 
ATOM     32  C   UNL     1      -3.134  12.696  20.264  0.00  0.00    +0.000 A 
BRANCH  27  33
ATOM     33  N   UNL     1      -3.459  12.095  17.883  0.00  0.00    +0.000 N 
ATOM     34  H   UNL     1      -4.079  11.538  17.300  0.00  0.00    +0.000 HD
ATOM     35  H   UNL     1      -2.508  11.711  17.851  0.00  0.00    +0.000 HD
ENDBRANCH  27  33
ENDBRANCH  24  32
ENDBRANCH   1  24
TORSDOF 8
ENDMDL
MODEL 9
REMARK VINA RESULT:      -8.5      2.263      3.023
REMARK  Name = 
REMARK  8 active torsions:
REMARK  status: ('A' for Active; 'I' for Inactive)
REMARK    1  A    between atoms: N_1  and  C_2
REMARK    2  A    between atoms: C_7  and  S_8
REMARK    3  A    between atoms: S_8  and  N_11
REMARK    4  A    between atoms: N_14  and  C_15
REMARK    5  A    between atoms: C_18  and  C_19
REMARK    6  A    between atoms: C_19  and  O_20
REMARK    7  A    between atoms: C_19  and  C_21
REMARK    8  A    between atoms: C_19  and  C_25
REMARK                            x       y       z     vdW  Elec       q    Type
REMARK                         _______ _______ _______ _____ _____    ______ ____
ROOT
ATOM      1  N   UNL     1      -1.036  12.064  21.185  0.00  0.00    +0.000 NA
ATOM      2  C   UNL     1      -0.496  11.168  22.238  0.00  0.00    +0.000 C 
ATOM      3  C   UNL     1      -0.160   9.790  21.641  0.00  0.00    +0.000 C 
ATOM      4  N   UNL     1       0.913   9.897  20.626  0.00  0.00    +0.000 N 
ATOM      5  C   UNL     1       0.959  11.195  19.902  0.00  0.00    +0.000 C 
ATOM      6  C   UNL     1      -0.428  11.869  19.840  0.00  0.00    +0.000 C 
ENDROOT
BRANCH   4   7
ATOM      7  C   UNL     1       1.416   8.742  20.030  0.00  0.00    +0.000 A 
ATOM      8  C   UNL     1       1.868   8.718  18.704  0.00  0.00    +0.000 A 
ATOM      9  C   UNL     1       2.429   7.573  18.117  0.00  0.00    +0.000 A 
ATOM     10  C   UNL     1       2.560   6.371  18.829  0.00  0.00    +0.000 A 
ATOM     11  C   UNL     1       2.043   6.356  20.133  0.00  0.00    +0.000 A 
ATOM     12  C   UNL     1       1.474   7.513  20.704  0.00  0.00    +0.000 A 
BRANCH  10  13
ATOM     13  C   UNL     1       3.244   5.129  18.216  0.00  0.00    +0.000 C 
BRANCH  13  14
ATOM     14  C   UNL     1       4.272   4.485  19.190  0.00  0.00    +0.000 C 
ATOM     15  F   UNL     1       3.685   3.967  20.298  0.00  0.00    +0.000 F 
ATOM     16  F   UNL     1       5.058   3.518  18.696  0.00  0.00    +0.000 F 
ATOM     17  F   UNL     1       5.110   5.457  19.661  0.00  0.00    +0.000 F 
ENDBRANCH  13  14
BRANCH  13  18
ATOM     18  C   UNL     1       2.221   4.059  17.739  0.00  0.00    +0.000 C 
ATOM     19  F   UNL     1       1.798   3.259  18.753  0.00  0.00    +0.000 F 
ATOM     20  F   UNL     1       1.098   4.637  17.237  0.00  0.00    +0.000 F 
ATOM     21  F   UNL     1       2.664   3.221  16.781  0.00  0.00    +0.000 F 
ENDBRANCH  13  18
BRANCH  13  22
ATOM     22  O   UNL     1       3.979   5.629  17.033  0.00  0.00    +0.000 OA
ATOM     23  H   UNL     1       4.932   5.519  17.219  0.00  0.00    +0.000 HD
ENDBRANCH  13  22
ENDBRANCH  10  13
ENDBRANCH   4   7
BRANCH   1  24
ATOM     24  S   UNL     1      -1.605  13.572  21.647  0.00  0.00    +0.000 S 
ATOM     25  O   UNL     1      -1.505  14.442  20.499  0.00  0.00    +0.000 OA
ATOM     26  O   UNL     1      -0.969  13.949  22.901  0.00  0.00    +0.000 OA
BRANCH  24  32
ATOM     27  C   UNL     1      -4.239  12.873  20.994  0.00  0.00    +0.000 A 
ATOM     28  C   UNL     1      -5.586  12.722  21.362  0.00  0.00    +0.000 A 
ATOM     29  C   UNL     1      -6.009  12.900  22.685  0.00  0.00    +0.000 A 
ATOM     30  C   UNL     1      -5.098  13.282  23.663  0.00  0.00    +0.000 A 
ATOM     31  C   UNL     1      -3.768  13.499  23.307  0.00  0.00    +0.000 A 
ATOM     32  C   UNL     1      -3.345  13.335  21.971  0.00  0.00    +0.000 A 
BRANCH  27  33
ATOM     33  N   UNL     1      -3.915  12.769  19.628  0.00  0.00    +0.000 N 
ATOM     34  H   UNL     1      -3.309  13.520  19.306  0.00  0.00    +0.000 HD
ATOM     35  H   UNL     1      -4.752  12.716  19.036  0.00  0.00    +0.000 HD
ENDBRANCH  27  33
ENDBRANCH  24  32
ENDBRANCH   1  24
TORSDOF 8
ENDMDL
