MODEL 1
REMARK VINA RESULT:      -7.2      0.000      0.000
REMARK  Name = 
REMARK  10 active torsions:
REMARK  status: ('A' for Active; 'I' for Inactive)
REMARK    1  A    between atoms: C_1  and  C_2
REMARK    2  A    between atoms: C_2  and  C_3
REMARK    3  A    between atoms: C_3  and  C_4
REMARK    4  A    between atoms: C_3  and  C_10
REMARK    5  A    between atoms: C_10  and  C_11
REMARK    6  A    between atoms: C_10  and  C_13
REMARK    7  A    between atoms: C_11  and  C_12
REMARK    8  A    between atoms: C_15  and  O_16
REMARK    9  A    between atoms: C_17  and  O_18
REMARK   10  A    between atoms: C_19  and  O_20
REMARK                            x       y       z     vdW  Elec       q    Type
REMARK                         _______ _______ _______ _____ _____    ______ ____
ROOT
ATOM      1  C   UNL     1       4.920   5.967  17.668  0.00  0.00    +0.000 C 
ENDROOT
BRANCH   1   2
ATOM      2  C   UNL     1       3.747   6.837  18.180  0.00  0.00    +0.000 A 
ATOM      3  C   UNL     1       3.315   7.966  17.458  0.00  0.00    +0.000 A 
ATOM      4  C   UNL     1       2.295   8.774  17.971  0.00  0.00    +0.000 A 
ATOM      5  C   UNL     1       1.712   8.487  19.198  0.00  0.00    +0.000 A 
ATOM      6  C   UNL     1       2.122   7.374  19.913  0.00  0.00    +0.000 A 
ATOM      7  C   UNL     1       3.110   6.544  19.407  0.00  0.00    +0.000 A 
BRANCH   4   8
ATOM      8  O   UNL     1       1.841   9.879  17.305  0.00  0.00    +0.000 OA
ATOM      9  H   UNL     1       2.518  10.573  17.365  0.00  0.00    +0.000 HD
ENDBRANCH   4   8
BRANCH   5  10
ATOM     10  O   UNL     1       0.740   9.294  19.723  0.00  0.00    +0.000 OA
ATOM     11  H   UNL     1       0.764  10.092  19.159  0.00  0.00    +0.000 HD
ENDBRANCH   5  10
BRANCH   6  12
ATOM     12  O   UNL     1       1.580   7.100  21.135  0.00  0.00    +0.000 OA
ATOM     13  H   UNL     1       0.971   7.848  21.307  0.00  0.00    +0.000 HD
ENDBRANCH   6  12
ENDBRANCH   1   2
BRANCH   1  14
ATOM     14  C   UNL     1       5.975   6.884  16.991  0.00  0.00    +0.000 C 
ATOM     15  C   UNL     1       7.378   6.883  17.573  0.00  0.00    +0.000 C 
ENDBRANCH   1  14
BRANCH   1  16
ATOM     16  C   UNL     1       4.380   4.729  16.845  0.00  0.00    +0.000 C 
BRANCH  16  17
ATOM     17  C   UNL     1       3.515   3.780  17.679  0.00  0.00    +0.000 A 
ATOM     18  C   UNL     1       2.128   3.667  17.480  0.00  0.00    +0.000 A 
ATOM     19  C   UNL     1       1.341   2.827  18.269  0.00  0.00    +0.000 A 
ATOM     20  C   UNL     1       1.928   2.078  19.281  0.00  0.00    +0.000 A 
ATOM     21  C   UNL     1       3.302   2.168  19.493  0.00  0.00    +0.000 A 
ATOM     22  C   UNL     1       4.092   3.009  18.701  0.00  0.00    +0.000 A 
ENDBRANCH  16  17
BRANCH  16  24
ATOM     23  C   UNL     1       5.456   4.327  14.526  0.00  0.00    +0.000 C 
ATOM     24  C   UNL     1       5.472   4.001  16.019  0.00  0.00    +0.000 C 
ENDBRANCH  16  24
ENDBRANCH   1  16
TORSDOF 8
ENDMDL
MODEL 2
REMARK VINA RESULT:      -7.2      3.093      5.761
REMARK  Name = 
REMARK  10 active torsions:
REMARK  status: ('A' for Active; 'I' for Inactive)
REMARK    1  A    between atoms: C_1  and  C_2
REMARK    2  A    between atoms: C_2  and  C_3
REMARK    3  A    between atoms: C_3  and  C_4
REMARK    4  A    between atoms: C_3  and  C_10
REMARK    5  A    between atoms: C_10  and  C_11
REMARK    6  A    between atoms: C_10  and  C_13
REMARK    7  A    between atoms: C_11  and  C_12
REMARK    8  A    between atoms: C_15  and  O_16
REMARK    9  A    between atoms: C_17  and  O_18
REMARK   10  A    between atoms: C_19  and  O_20
REMARK                            x       y       z     vdW  Elec       q    Type
REMARK                         _______ _______ _______ _____ _____    ______ ____
ROOT
ATOM      1  C   UNL     1       3.982   4.134  18.422  0.00  0.00    +0.000 C 
ENDROOT
BRANCH   1   2
ATOM      2  C   UNL     1       5.083   4.479  17.392  0.00  0.00    +0.000 A 
ATOM      3  C   UNL     1       5.923   5.594  17.577  0.00  0.00    +0.000 A 
ATOM      4  C   UNL     1       6.871   5.925  16.603  0.00  0.00    +0.000 A 
ATOM      5  C   UNL     1       6.982   5.175  15.439  0.00  0.00    +0.000 A 
ATOM      6  C   UNL     1       6.167   4.071  15.249  0.00  0.00    +0.000 A 
ATOM      7  C   UNL     1       5.244   3.710  16.217  0.00  0.00    +0.000 A 
BRANCH   4   8
ATOM      8  O   UNL     1       7.710   6.995  16.740  0.00  0.00    +0.000 OA
ATOM      9  H   UNL     1       8.106   6.964  17.627  0.00  0.00    +0.000 HD
ENDBRANCH   4   8
BRANCH   5  10
ATOM     10  O   UNL     1       7.880   5.514  14.465  0.00  0.00    +0.000 OA
ATOM     11  H   UNL     1       7.454   6.260  13.998  0.00  0.00    +0.000 HD
ENDBRANCH   5  10
BRANCH   6  12
ATOM     12  O   UNL     1       6.244   3.347  14.095  0.00  0.00    +0.000 OA
ATOM     13  H   UNL     1       6.817   2.585  14.321  0.00  0.00    +0.000 HD
ENDBRANCH   6  12
ENDBRANCH   1   2
BRANCH   1  14
ATOM     14  C   UNL     1       4.052   2.617  18.751  0.00  0.00    +0.000 C 
ATOM     15  C   UNL     1       4.408   2.227  20.175  0.00  0.00    +0.000 C 
ENDBRANCH   1  14
BRANCH   1  16
ATOM     16  C   UNL     1       2.588   4.729  17.971  0.00  0.00    +0.000 C 
BRANCH  16  17
ATOM     17  C   UNL     1       2.331   6.139  18.508  0.00  0.00    +0.000 A 
ATOM     18  C   UNL     1       2.131   6.390  19.877  0.00  0.00    +0.000 A 
ATOM     19  C   UNL     1       1.861   7.673  20.355  0.00  0.00    +0.000 A 
ATOM     20  C   UNL     1       1.782   8.739  19.467  0.00  0.00    +0.000 A 
ATOM     21  C   UNL     1       1.983   8.516  18.107  0.00  0.00    +0.000 A 
ATOM     22  C   UNL     1       2.257   7.230  17.628  0.00  0.00    +0.000 A 
ENDBRANCH  16  17
BRANCH  16  24
ATOM     23  C   UNL     1       0.945   3.626  19.639  0.00  0.00    +0.000 C 
ATOM     24  C   UNL     1       1.395   3.761  18.185  0.00  0.00    +0.000 C 
ENDBRANCH  16  24
ENDBRANCH   1  16
TORSDOF 8
ENDMDL
MODEL 3
REMARK VINA RESULT:      -7.2      3.112      5.158
REMARK  Name = 
REMARK  10 active torsions:
REMARK  status: ('A' for Active; 'I' for Inactive)
REMARK    1  A    between atoms: C_1  and  C_2
REMARK    2  A    between atoms: C_2  and  C_3
REMARK    3  A    between atoms: C_3  and  C_4
REMARK    4  A    between atoms: C_3  and  C_10
REMARK    5  A    between atoms: C_10  and  C_11
REMARK    6  A    between atoms: C_10  and  C_13
REMARK    7  A    between atoms: C_11  and  C_12
REMARK    8  A    between atoms: C_15  and  O_16
REMARK    9  A    between atoms: C_17  and  O_18
REMARK   10  A    between atoms: C_19  and  O_20
REMARK                            x       y       z     vdW  Elec       q    Type
REMARK                         _______ _______ _______ _____ _____    ______ ____
ROOT
ATOM      1  C   UNL     1       2.918   6.627  18.375  0.00  0.00    +0.000 C 
ENDROOT
BRANCH   1   2
ATOM      2  C   UNL     1       4.271   5.907  18.166  0.00  0.00    +0.000 A 
ATOM      3  C   UNL     1       5.245   5.886  19.184  0.00  0.00    +0.000 A 
ATOM      4  C   UNL     1       6.485   5.283  18.951  0.00  0.00    +0.000 A 
ATOM      5  C   UNL     1       6.778   4.717  17.717  0.00  0.00    +0.000 A 
ATOM      6  C   UNL     1       5.825   4.723  16.711  0.00  0.00    +0.000 A 
ATOM      7  C   UNL     1       4.580   5.289  16.933  0.00  0.00    +0.000 A 
BRANCH   4   8
ATOM      8  O   UNL     1       7.460   5.236  19.908  0.00  0.00    +0.000 OA
ATOM      9  H   UNL     1       7.645   6.143  20.203  0.00  0.00    +0.000 HD
ENDBRANCH   4   8
BRANCH   5  10
ATOM     10  O   UNL     1       8.002   4.159  17.470  0.00  0.00    +0.000 OA
ATOM     11  H   UNL     1       8.565   4.489  18.198  0.00  0.00    +0.000 HD
ENDBRANCH   5  10
BRANCH   6  12
ATOM     12  O   UNL     1       6.113   4.200  15.484  0.00  0.00    +0.000 OA
ATOM     13  H   UNL     1       6.505   4.946  14.985  0.00  0.00    +0.000 HD
ENDBRANCH   6  12
ENDBRANCH   1   2
BRANCH   1  14
ATOM     14  C   UNL     1       3.044   8.097  17.886  0.00  0.00    +0.000 C 
ATOM     15  C   UNL     1       1.758   8.842  17.575  0.00  0.00    +0.000 C 
ENDBRANCH   1  14
BRANCH   1  16
ATOM     16  C   UNL     1       2.373   6.379  19.839  0.00  0.00    +0.000 C 
BRANCH  16  17
ATOM     17  C   UNL     1       2.015   4.916  20.111  0.00  0.00    +0.000 A 
ATOM     18  C   UNL     1       1.344   4.125  19.162  0.00  0.00    +0.000 A 
ATOM     19  C   UNL     1       0.989   2.802  19.432  0.00  0.00    +0.000 A 
ATOM     20  C   UNL     1       1.298   2.240  20.664  0.00  0.00    +0.000 A 
ATOM     21  C   UNL     1       1.969   3.002  21.617  0.00  0.00    +0.000 A 
ATOM     22  C   UNL     1       2.328   4.328  21.347  0.00  0.00    +0.000 A 
ENDBRANCH  16  17
BRANCH  16  24
ATOM     23  C   UNL     1       1.648   8.272  21.449  0.00  0.00    +0.000 C 
ATOM     24  C   UNL     1       1.265   7.375  20.272  0.00  0.00    +0.000 C 
ENDBRANCH  16  24
ENDBRANCH   1  16
TORSDOF 8
ENDMDL
MODEL 4
REMARK VINA RESULT:      -7.2      0.039      1.050
REMARK  Name = 
REMARK  10 active torsions:
REMARK  status: ('A' for Active; 'I' for Inactive)
REMARK    1  A    between atoms: C_1  and  C_2
REMARK    2  A    between atoms: C_2  and  C_3
REMARK    3  A    between atoms: C_3  and  C_4
REMARK    4  A    between atoms: C_3  and  C_10
REMARK    5  A    between atoms: C_10  and  C_11
REMARK    6  A    between atoms: C_10  and  C_13
REMARK    7  A    between atoms: C_11  and  C_12
REMARK    8  A    between atoms: C_15  and  O_16
REMARK    9  A    between atoms: C_17  and  O_18
REMARK   10  A    between atoms: C_19  and  O_20
REMARK                            x       y       z     vdW  Elec       q    Type
REMARK                         _______ _______ _______ _____ _____    ______ ____
ROOT
ATOM      1  C   UNL     1       4.920   5.979  17.653  0.00  0.00    +0.000 C 
ENDROOT
BRANCH   1   2
ATOM      2  C   UNL     1       3.750   6.850  18.170  0.00  0.00    +0.000 A 
ATOM      3  C   UNL     1       3.318   7.982  17.452  0.00  0.00    +0.000 A 
ATOM      4  C   UNL     1       2.300   8.790  17.970  0.00  0.00    +0.000 A 
ATOM      5  C   UNL     1       1.720   8.500  19.198  0.00  0.00    +0.000 A 
ATOM      6  C   UNL     1       2.131   7.384  19.909  0.00  0.00    +0.000 A 
ATOM      7  C   UNL     1       3.116   6.555  19.399  0.00  0.00    +0.000 A 
BRANCH   4   8
ATOM      8  O   UNL     1       1.845   9.896  17.309  0.00  0.00    +0.000 OA
ATOM      9  H   UNL     1       1.406   9.607  16.491  0.00  0.00    +0.000 HD
ENDBRANCH   4   8
BRANCH   5  10
ATOM     10  O   UNL     1       0.751   9.307  19.727  0.00  0.00    +0.000 OA
ATOM     11  H   UNL     1       1.194  10.171  19.837  0.00  0.00    +0.000 HD
ENDBRANCH   5  10
BRANCH   6  12
ATOM     12  O   UNL     1       1.591   7.109  21.132  0.00  0.00    +0.000 OA
ATOM     13  H   UNL     1       2.153   6.392  21.492  0.00  0.00    +0.000 HD
ENDBRANCH   6  12
ENDBRANCH   1   2
BRANCH   1  14
ATOM     14  C   UNL     1       5.954   6.892  16.937  0.00  0.00    +0.000 C 
ATOM     15  C   UNL     1       7.354   6.955  17.523  0.00  0.00    +0.000 C 
ENDBRANCH   1  14
BRANCH   1  16
ATOM     16  C   UNL     1       4.375   4.721  16.866  0.00  0.00    +0.000 C 
BRANCH  16  17
ATOM     17  C   UNL     1       3.523   3.789  17.732  0.00  0.00    +0.000 A 
ATOM     18  C   UNL     1       4.084   3.005  18.755  0.00  0.00    +0.000 A 
ATOM     19  C   UNL     1       3.306   2.130  19.517  0.00  0.00    +0.000 A 
ATOM     20  C   UNL     1       1.944   2.019  19.266  0.00  0.00    +0.000 A 
ATOM     21  C   UNL     1       1.366   2.791  18.261  0.00  0.00    +0.000 A 
ATOM     22  C   UNL     1       2.144   3.670  17.500  0.00  0.00    +0.000 A 
ENDBRANCH  16  17
BRANCH  16  24
ATOM     23  C   UNL     1       5.465   4.316  14.554  0.00  0.00    +0.000 C 
ATOM     24  C   UNL     1       5.461   3.978  16.044  0.00  0.00    +0.000 C 
ENDBRANCH  16  24
ENDBRANCH   1  16
TORSDOF 8
ENDMDL
MODEL 5
REMARK VINA RESULT:      -7.2      2.373      5.001
REMARK  Name = 
REMARK  10 active torsions:
REMARK  status: ('A' for Active; 'I' for Inactive)
REMARK    1  A    between atoms: C_1  and  C_2
REMARK    2  A    between atoms: C_2  and  C_3
REMARK    3  A    between atoms: C_3  and  C_4
REMARK    4  A    between atoms: C_3  and  C_10
REMARK    5  A    between atoms: C_10  and  C_11
REMARK    6  A    between atoms: C_10  and  C_13
REMARK    7  A    between atoms: C_11  and  C_12
REMARK    8  A    between atoms: C_15  and  O_16
REMARK    9  A    between atoms: C_17  and  O_18
REMARK   10  A    between atoms: C_19  and  O_20
REMARK                            x       y       z     vdW  Elec       q    Type
REMARK                         _______ _______ _______ _____ _____    ______ ____
ROOT
ATOM      1  C   UNL     1       5.329   4.278  17.404  0.00  0.00    +0.000 C 
ENDROOT
BRANCH   1   2
ATOM      2  C   UNL     1       4.069   3.941  18.238  0.00  0.00    +0.000 A 
ATOM      3  C   UNL     1       3.123   3.007  17.774  0.00  0.00    +0.000 A 
ATOM      4  C   UNL     1       1.961   2.764  18.514  0.00  0.00    +0.000 A 
ATOM      5  C   UNL     1       1.718   3.449  19.697  0.00  0.00    +0.000 A 
ATOM      6  C   UNL     1       2.646   4.364  20.168  0.00  0.00    +0.000 A 
ATOM      7  C   UNL     1       3.817   4.596  19.465  0.00  0.00    +0.000 A 
BRANCH   4   8
ATOM      8  O   UNL     1       1.015   1.866  18.106  0.00  0.00    +0.000 OA
ATOM      9  H   UNL     1       1.392   0.972  18.172  0.00  0.00    +0.000 HD
ENDBRANCH   4   8
BRANCH   5  10
ATOM     10  O   UNL     1       0.566   3.245  20.406  0.00  0.00    +0.000 OA
ATOM     11  H   UNL     1       0.270   2.356  20.127  0.00  0.00    +0.000 HD
ENDBRANCH   5  10
BRANCH   6  12
ATOM     12  O   UNL     1       2.402   5.067  21.312  0.00  0.00    +0.000 OA
ATOM     13  H   UNL     1       3.282   5.390  21.594  0.00  0.00    +0.000 HD
ENDBRANCH   6  12
ENDBRANCH   1   2
BRANCH   1  14
ATOM     14  C   UNL     1       6.447   4.786  18.356  0.00  0.00    +0.000 C 
ATOM     15  C   UNL     1       7.886   4.592  17.910  0.00  0.00    +0.000 C 
ENDBRANCH   1  14
BRANCH   1  16
ATOM     16  C   UNL     1       4.951   5.177  16.160  0.00  0.00    +0.000 C 
BRANCH  16  17
ATOM     17  C   UNL     1       5.656   4.750  14.869  0.00  0.00    +0.000 A 
ATOM     18  C   UNL     1       6.927   5.237  14.519  0.00  0.00    +0.000 A 
ATOM     19  C   UNL     1       7.547   4.871  13.323  0.00  0.00    +0.000 A 
ATOM     20  C   UNL     1       6.903   4.007  12.446  0.00  0.00    +0.000 A 
ATOM     21  C   UNL     1       5.646   3.506  12.775  0.00  0.00    +0.000 A 
ATOM     22  C   UNL     1       5.025   3.870  13.976  0.00  0.00    +0.000 A 
ENDBRANCH  16  17
BRANCH  16  24
ATOM     23  C   UNL     1       3.857   7.273  17.212  0.00  0.00    +0.000 C 
ATOM     24  C   UNL     1       5.043   6.700  16.437  0.00  0.00    +0.000 C 
ENDBRANCH  16  24
ENDBRANCH   1  16
TORSDOF 8
ENDMDL
MODEL 6
REMARK VINA RESULT:      -7.2      3.100      5.776
REMARK  Name = 
REMARK  10 active torsions:
REMARK  status: ('A' for Active; 'I' for Inactive)
REMARK    1  A    between atoms: C_1  and  C_2
REMARK    2  A    between atoms: C_2  and  C_3
REMARK    3  A    between atoms: C_3  and  C_4
REMARK    4  A    between atoms: C_3  and  C_10
REMARK    5  A    between atoms: C_10  and  C_11
REMARK    6  A    between atoms: C_10  and  C_13
REMARK    7  A    between atoms: C_11  and  C_12
REMARK    8  A    between atoms: C_15  and  O_16
REMARK    9  A    between atoms: C_17  and  O_18
REMARK   10  A    between atoms: C_19  and  O_20
REMARK                            x       y       z     vdW  Elec       q    Type
REMARK                         _______ _______ _______ _____ _____    ______ ____
ROOT
ATOM      1  C   UNL     1       3.926   4.157  18.403  0.00  0.00    +0.000 C 
ENDROOT
BRANCH   1   2
ATOM      2  C   UNL     1       4.965   4.534  17.319  0.00  0.00    +0.000 A 
ATOM      3  C   UNL     1       5.105   3.759  16.152  0.00  0.00    +0.000 A 
ATOM      4  C   UNL     1       6.093   4.081  15.215  0.00  0.00    +0.000 A 
ATOM      5  C   UNL     1       6.954   5.149  15.431  0.00  0.00    +0.000 A 
ATOM      6  C   UNL     1       6.819   5.924  16.572  0.00  0.00    +0.000 A 
ATOM      7  C   UNL     1       5.828   5.639  17.496  0.00  0.00    +0.000 A 
BRANCH   4   8
ATOM      8  O   UNL     1       6.266   3.361  14.066  0.00  0.00    +0.000 OA
ATOM      9  H   UNL     1       7.209   3.145  13.978  0.00  0.00    +0.000 HD
ENDBRANCH   4   8
BRANCH   5  10
ATOM     10  O   UNL     1       7.946   5.447  14.538  0.00  0.00    +0.000 OA
ATOM     11  H   UNL     1       7.872   6.413  14.414  0.00  0.00    +0.000 HD
ENDBRANCH   5  10
BRANCH   6  12
ATOM     12  O   UNL     1       7.681   6.955  16.811  0.00  0.00    +0.000 OA
ATOM     13  H   UNL     1       8.570   6.569  16.673  0.00  0.00    +0.000 HD
ENDBRANCH   6  12
ENDBRANCH   1   2
BRANCH   1  14
ATOM     14  C   UNL     1       4.037   2.637  18.706  0.00  0.00    +0.000 C 
ATOM     15  C   UNL     1       4.427   2.233  20.117  0.00  0.00    +0.000 C 
ENDBRANCH   1  14
BRANCH   1  16
ATOM     16  C   UNL     1       2.501   4.736  18.036  0.00  0.00    +0.000 C 
BRANCH  16  17
ATOM     17  C   UNL     1       2.270   6.154  18.566  0.00  0.00    +0.000 A 
ATOM     18  C   UNL     1       2.084   6.417  19.934  0.00  0.00    +0.000 A 
ATOM     19  C   UNL     1       1.837   7.708  20.405  0.00  0.00    +0.000 A 
ATOM     20  C   UNL     1       1.770   8.769  19.511  0.00  0.00    +0.000 A 
ATOM     21  C   UNL     1       1.958   8.534  18.151  0.00  0.00    +0.000 A 
ATOM     22  C   UNL     1       2.208   7.240  17.679  0.00  0.00    +0.000 A 
ENDBRANCH  16  17
BRANCH  16  24
ATOM     23  C   UNL     1       0.969   3.666  19.827  0.00  0.00    +0.000 C 
ATOM     24  C   UNL     1       1.332   3.765  18.346  0.00  0.00    +0.000 C 
ENDBRANCH  16  24
ENDBRANCH   1  16
TORSDOF 8
ENDMDL
MODEL 7
REMARK VINA RESULT:      -7.1      3.068      5.005
REMARK  Name = 
REMARK  10 active torsions:
REMARK  status: ('A' for Active; 'I' for Inactive)
REMARK    1  A    between atoms: C_1  and  C_2
REMARK    2  A    between atoms: C_2  and  C_3
REMARK    3  A    between atoms: C_3  and  C_4
REMARK    4  A    between atoms: C_3  and  C_10
REMARK    5  A    between atoms: C_10  and  C_11
REMARK    6  A    between atoms: C_10  and  C_13
REMARK    7  A    between atoms: C_11  and  C_12
REMARK    8  A    between atoms: C_15  and  O_16
REMARK    9  A    between atoms: C_17  and  O_18
REMARK   10  A    between atoms: C_19  and  O_20
REMARK                            x       y       z     vdW  Elec       q    Type
REMARK                         _______ _______ _______ _____ _____    ______ ____
ROOT
ATOM      1  C   UNL     1       2.963   6.633  18.265  0.00  0.00    +0.000 C 
ENDROOT
BRANCH   1   2
ATOM      2  C   UNL     1       4.359   5.998  18.062  0.00  0.00    +0.000 A 
ATOM      3  C   UNL     1       4.698   5.370  16.848  0.00  0.00    +0.000 A 
ATOM      4  C   UNL     1       5.943   4.747  16.708  0.00  0.00    +0.000 A 
ATOM      5  C   UNL     1       6.846   4.723  17.762  0.00  0.00    +0.000 A 
ATOM      6  C   UNL     1       6.527   5.345  18.958  0.00  0.00    +0.000 A 
ATOM      7  C   UNL     1       5.312   5.993  19.106  0.00  0.00    +0.000 A 
BRANCH   4   8
ATOM      8  O   UNL     1       6.318   4.127  15.548  0.00  0.00    +0.000 OA
ATOM      9  H   UNL     1       5.810   4.513  14.816  0.00  0.00    +0.000 HD
ENDBRANCH   4   8
BRANCH   5  10
ATOM     10  O   UNL     1       8.050   4.084  17.645  0.00  0.00    +0.000 OA
ATOM     11  H   UNL     1       7.849   3.297  17.101  0.00  0.00    +0.000 HD
ENDBRANCH   5  10
BRANCH   6  12
ATOM     12  O   UNL     1       7.393   5.300  20.012  0.00  0.00    +0.000 OA
ATOM     13  H   UNL     1       8.254   5.058  19.613  0.00  0.00    +0.000 HD
ENDBRANCH   6  12
ENDBRANCH   1   2
BRANCH   1  14
ATOM     14  C   UNL     1       3.015   8.123  17.827  0.00  0.00    +0.000 C 
ATOM     15  C   UNL     1       1.690   8.833  17.609  0.00  0.00    +0.000 C 
ENDBRANCH   1  14
BRANCH   1  16
ATOM     16  C   UNL     1       2.404   6.305  19.707  0.00  0.00    +0.000 C 
BRANCH  16  17
ATOM     17  C   UNL     1       1.966   4.847  19.868  0.00  0.00    +0.000 A 
ATOM     18  C   UNL     1       2.038   4.180  21.103  0.00  0.00    +0.000 A 
ATOM     19  C   UNL     1       1.671   2.839  21.235  0.00  0.00    +0.000 A 
ATOM     20  C   UNL     1       1.223   2.134  20.125  0.00  0.00    +0.000 A 
ATOM     21  C   UNL     1       1.137   2.775  18.892  0.00  0.00    +0.000 A 
ATOM     22  C   UNL     1       1.502   4.120  18.761  0.00  0.00    +0.000 A 
ENDBRANCH  16  17
BRANCH  16  24
ATOM     23  C   UNL     1       1.782   8.104  21.460  0.00  0.00    +0.000 C 
ATOM     24  C   UNL     1       1.352   7.324  20.218  0.00  0.00    +0.000 C 
ENDBRANCH  16  24
ENDBRANCH   1  16
TORSDOF 8
ENDMDL
MODEL 8
REMARK VINA RESULT:      -7.1      1.423      4.276
REMARK  Name = 
REMARK  10 active torsions:
REMARK  status: ('A' for Active; 'I' for Inactive)
REMARK    1  A    between atoms: C_1  and  C_2
REMARK    2  A    between atoms: C_2  and  C_3
REMARK    3  A    between atoms: C_3  and  C_4
REMARK    4  A    between atoms: C_3  and  C_10
REMARK    5  A    between atoms: C_10  and  C_11
REMARK    6  A    between atoms: C_10  and  C_13
REMARK    7  A    between atoms: C_11  and  C_12
REMARK    8  A    between atoms: C_15  and  O_16
REMARK    9  A    between atoms: C_17  and  O_18
REMARK   10  A    between atoms: C_19  and  O_20
REMARK                            x       y       z     vdW  Elec       q    Type
REMARK                         _______ _______ _______ _____ _____    ______ ____
ROOT
ATOM      1  C   UNL     1       2.946   5.305  17.893  0.00  0.00    +0.000 C 
ENDROOT
BRANCH   1   2
ATOM      2  C   UNL     1       2.479   6.644  18.511  0.00  0.00    +0.000 A 
ATOM      3  C   UNL     1       2.209   6.749  19.889  0.00  0.00    +0.000 A 
ATOM      4  C   UNL     1       1.728   7.953  20.417  0.00  0.00    +0.000 A 
ATOM      5  C   UNL     1       1.494   9.045  19.592  0.00  0.00    +0.000 A 
ATOM      6  C   UNL     1       1.765   8.956  18.236  0.00  0.00    +0.000 A 
ATOM      7  C   UNL     1       2.271   7.783  17.700  0.00  0.00    +0.000 A 
BRANCH   4   8
ATOM      8  O   UNL     1       1.454   8.104  21.747  0.00  0.00    +0.000 OA
ATOM      9  H   UNL     1       1.394   7.221  22.150  0.00  0.00    +0.000 HD
ENDBRANCH   4   8
BRANCH   5  10
ATOM     10  O   UNL     1       0.989  10.212  20.094  0.00  0.00    +0.000 OA
ATOM     11  H   UNL     1       0.947  10.806  19.319  0.00  0.00    +0.000 HD
ENDBRANCH   5  10
BRANCH   6  12
ATOM     12  O   UNL     1       1.508  10.012  17.410  0.00  0.00    +0.000 OA
ATOM     13  H   UNL     1       0.721   9.737  16.897  0.00  0.00    +0.000 HD
ENDBRANCH   6  12
ENDBRANCH   1   2
BRANCH   1  14
ATOM     14  C   UNL     1       1.712   4.383  17.686  0.00  0.00    +0.000 C 
ATOM     15  C   UNL     1       1.110   3.736  18.921  0.00  0.00    +0.000 C 
ENDBRANCH   1  14
BRANCH   1  16
ATOM     16  C   UNL     1       4.180   4.721  18.691  0.00  0.00    +0.000 C 
BRANCH  16  17
ATOM     17  C   UNL     1       5.469   5.520  18.481  0.00  0.00    +0.000 A 
ATOM     18  C   UNL     1       5.618   6.425  17.416  0.00  0.00    +0.000 A 
ATOM     19  C   UNL     1       6.810   7.123  17.210  0.00  0.00    +0.000 A 
ATOM     20  C   UNL     1       7.884   6.926  18.069  0.00  0.00    +0.000 A 
ATOM     21  C   UNL     1       7.757   6.039  19.135  0.00  0.00    +0.000 A 
ATOM     22  C   UNL     1       6.561   5.341  19.344  0.00  0.00    +0.000 A 
ENDBRANCH  16  17
BRANCH  16  24
ATOM     23  C   UNL     1       4.333   2.401  19.828  0.00  0.00    +0.000 C 
ATOM     24  C   UNL     1       4.369   3.191  18.520  0.00  0.00    +0.000 C 
ENDBRANCH  16  24
ENDBRANCH   1  16
TORSDOF 8
ENDMDL
MODEL 9
REMARK VINA RESULT:      -7.1      3.094      5.699
REMARK  Name = 
REMARK  10 active torsions:
REMARK  status: ('A' for Active; 'I' for Inactive)
REMARK    1  A    between atoms: C_1  and  C_2
REMARK    2  A    between atoms: C_2  and  C_3
REMARK    3  A    between atoms: C_3  and  C_4
REMARK    4  A    between atoms: C_3  and  C_10
REMARK    5  A    between atoms: C_10  and  C_11
REMARK    6  A    between atoms: C_10  and  C_13
REMARK    7  A    between atoms: C_11  and  C_12
REMARK    8  A    between atoms: C_15  and  O_16
REMARK    9  A    between atoms: C_17  and  O_18
REMARK   10  A    between atoms: C_19  and  O_20
REMARK                            x       y       z     vdW  Elec       q    Type
REMARK                         _______ _______ _______ _____ _____    ______ ____
ROOT
ATOM      1  C   UNL     1       3.982   4.118  18.423  0.00  0.00    +0.000 C 
ENDROOT
BRANCH   1   2
ATOM      2  C   UNL     1       5.081   4.467  17.391  0.00  0.00    +0.000 A 
ATOM      3  C   UNL     1       5.923   5.580  17.578  0.00  0.00    +0.000 A 
ATOM      4  C   UNL     1       6.868   5.913  16.602  0.00  0.00    +0.000 A 
ATOM      5  C   UNL     1       6.975   5.168  15.436  0.00  0.00    +0.000 A 
ATOM      6  C   UNL     1       6.159   4.065  15.244  0.00  0.00    +0.000 A 
ATOM      7  C   UNL     1       5.238   3.701  16.213  0.00  0.00    +0.000 A 
BRANCH   4   8
ATOM      8  O   UNL     1       7.709   6.982  16.741  0.00  0.00    +0.000 OA
ATOM      9  H   UNL     1       8.251   6.845  17.535  0.00  0.00    +0.000 HD
ENDBRANCH   4   8
BRANCH   5  10
ATOM     10  O   UNL     1       7.871   5.510  14.460  0.00  0.00    +0.000 OA
ATOM     11  H   UNL     1       8.308   4.666  14.232  0.00  0.00    +0.000 HD
ENDBRANCH   5  10
BRANCH   6  12
ATOM     12  O   UNL     1       6.232   3.345  14.087  0.00  0.00    +0.000 OA
ATOM     13  H   UNL     1       6.954   2.702  14.243  0.00  0.00    +0.000 HD
ENDBRANCH   6  12
ENDBRANCH   1   2
BRANCH   1  14
ATOM     14  C   UNL     1       4.072   2.606  18.770  0.00  0.00    +0.000 C 
ATOM     15  C   UNL     1       4.426   2.238  20.200  0.00  0.00    +0.000 C 
ENDBRANCH   1  14
BRANCH   1  16
ATOM     16  C   UNL     1       2.581   4.689  17.962  0.00  0.00    +0.000 C 
BRANCH  16  17
ATOM     17  C   UNL     1       2.294   6.093  18.501  0.00  0.00    +0.000 A 
ATOM     18  C   UNL     1       2.213   7.213  17.655  0.00  0.00    +0.000 A 
ATOM     19  C   UNL     1       1.986   8.495  18.158  0.00  0.00    +0.000 A 
ATOM     20  C   UNL     1       1.837   8.685  19.526  0.00  0.00    +0.000 A 
ATOM     21  C   UNL     1       1.906   7.589  20.383  0.00  0.00    +0.000 A 
ATOM     22  C   UNL     1       2.131   6.303  19.879  0.00  0.00    +0.000 A 
ENDBRANCH  16  17
BRANCH  16  24
ATOM     23  C   UNL     1       0.932   3.566  19.610  0.00  0.00    +0.000 C 
ATOM     24  C   UNL     1       1.405   3.699  18.163  0.00  0.00    +0.000 C 
ENDBRANCH  16  24
ENDBRANCH   1  16
TORSDOF 8
ENDMDL
