MODEL 1
REMARK VINA RESULT:      -8.6      0.000      0.000
REMARK  Name = 
REMARK  15 active torsions:
REMARK  status: ('A' for Active; 'I' for Inactive)
REMARK    1  A    between atoms: C_1  and  N_2
REMARK    2  A    between atoms: N_2  and  C_3
REMARK    3  A    between atoms: N_2  and  C_4
REMARK    4  A    between atoms: C_4  and  C_5
REMARK    5  A    between atoms: C_5  and  O_6
REMARK    6  A    between atoms: O_6  and  C_7
REMARK    7  A    between atoms: C_10  and  C_11
REMARK    8  A    between atoms: C_14  and  O_15
REMARK    9  A    between atoms: O_15  and  C_16
REMARK   10  A    between atoms: C_16  and  C_17
REMARK   11  A    between atoms: C_17  and  O_19
REMARK   12  A    between atoms: C_20  and  C_21
REMARK   13  A    between atoms: C_21  and  C_22
REMARK   14  A    between atoms: C_30  and  C_31
REMARK   15  A    between atoms: C_31  and  C_32
REMARK                            x       y       z     vdW  Elec       q    Type
REMARK                         _______ _______ _______ _____ _____    ______ ____
ROOT
ATOM      1  C   UNL     1       4.066   5.233  17.082  0.00  0.00    +0.000 A 
ATOM      2  C   UNL     1       4.519   6.553  17.021  0.00  0.00    +0.000 A 
ATOM      3  C   UNL     1       3.787   7.605  17.616  0.00  0.00    +0.000 A 
ATOM      4  C   UNL     1       2.571   7.387  18.283  0.00  0.00    +0.000 A 
ATOM      5  C   UNL     1       2.099   6.070  18.285  0.00  0.00    +0.000 A 
ATOM      6  C   UNL     1       2.812   5.000  17.691  0.00  0.00    +0.000 A 
ENDROOT
BRANCH   4   7
ATOM      7  C   UNL     1       1.843   8.443  19.033  0.00  0.00    +0.000 A 
ATOM      8  C   UNL     1       1.696   8.358  20.421  0.00  0.00    +0.000 A 
ATOM      9  C   UNL     1       0.894   9.260  21.131  0.00  0.00    +0.000 A 
ATOM     10  C   UNL     1       0.181  10.270  20.477  0.00  0.00    +0.000 A 
ATOM     11  C   UNL     1       0.353  10.431  19.091  0.00  0.00    +0.000 A 
ATOM     12  C   UNL     1       1.183   9.516  18.394  0.00  0.00    +0.000 A 
BRANCH  10  13
ATOM     13  O   UNL     1      -0.707  11.107  21.118  0.00  0.00    +0.000 OA
BRANCH  13  14
ATOM     14  C   UNL     1      -0.959  10.782  22.490  0.00  0.00    +0.000 C 
BRANCH  14  15
ATOM     15  C   UNL     1      -1.661  11.898  23.234  0.00  0.00    +0.000 C 
ATOM     16  O   UNL     1      -1.128  12.972  23.497  0.00  0.00    +0.000 OA
BRANCH  15  17
ATOM     17  O   UNL     1      -2.940  11.620  23.576  0.00  0.00    +0.000 OA
ATOM     18  H   UNL     1      -3.158  10.708  23.308  0.00  0.00    +0.000 HD
ENDBRANCH  15  17
ENDBRANCH  14  15
ENDBRANCH  13  14
ENDBRANCH  10  13
BRANCH  11  19
ATOM     19  C   UNL     1      -0.364  11.514  18.299  0.00  0.00    +0.000 C 
BRANCH  19  20
ATOM     20  C   UNL     1      -1.801  11.250  17.883  0.00  0.00    +0.000 A 
ATOM     21  C   UNL     1      -2.910  11.788  18.550  0.00  0.00    +0.000 A 
ATOM     22  C   UNL     1      -4.209  11.527  18.107  0.00  0.00    +0.000 A 
ATOM     23  C   UNL     1      -4.424  10.722  16.991  0.00  0.00    +0.000 A 
ATOM     24  C   UNL     1      -3.337  10.168  16.322  0.00  0.00    +0.000 A 
ATOM     25  C   UNL     1      -2.037  10.428  16.765  0.00  0.00    +0.000 A 
ENDBRANCH  19  20
ENDBRANCH  11  19
ENDBRANCH   4   7
BRANCH   1  26
ATOM     26  O   UNL     1       4.776   4.160  16.583  0.00  0.00    +0.000 OA
BRANCH  26  27
ATOM     27  C   UNL     1       5.999   4.413  15.826  0.00  0.00    +0.000 C 
BRANCH  27  28
ATOM     28  C   UNL     1       5.675   4.432  14.301  0.00  0.00    +0.000 C 
BRANCH  28  30
ATOM     29  C   UNL     1       6.053   3.148  12.204  0.00  0.00    +0.000 C 
ATOM     30  N   UNL     1       6.620   3.953  13.272  0.00  0.00    +0.000 NA
ATOM     31  C   UNL     1       7.572   4.929  12.765  0.00  0.00    +0.000 C 
ENDBRANCH  28  30
ENDBRANCH  27  28
ENDBRANCH  26  27
ENDBRANCH   1  26
BRANCH   6  32
ATOM     32  C   UNL     1       2.161   3.638  17.816  0.00  0.00    +0.000 C 
BRANCH  32  33
ATOM     33  C   UNL     1       2.162   3.036  19.204  0.00  0.00    +0.000 A 
ATOM     34  C   UNL     1       3.351   2.547  19.765  0.00  0.00    +0.000 A 
ATOM     35  C   UNL     1       3.411   2.239  21.126  0.00  0.00    +0.000 A 
ATOM     36  C   UNL     1       2.284   2.399  21.930  0.00  0.00    +0.000 A 
ATOM     37  C   UNL     1       1.078   2.796  21.365  0.00  0.00    +0.000 A 
ATOM     38  C   UNL     1       1.018   3.100  20.008  0.00  0.00    +0.000 A 
ENDBRANCH  32  33
ENDBRANCH   6  32
TORSDOF 13
ENDMDL
MODEL 2
REMARK VINA RESULT:      -8.5      1.337      1.973
REMARK  Name = 
REMARK  15 active torsions:
REMARK  status: ('A' for Active; 'I' for Inactive)
REMARK    1  A    between atoms: C_1  and  N_2
REMARK    2  A    between atoms: N_2  and  C_3
REMARK    3  A    between atoms: N_2  and  C_4
REMARK    4  A    between atoms: C_4  and  C_5
REMARK    5  A    between atoms: C_5  and  O_6
REMARK    6  A    between atoms: O_6  and  C_7
REMARK    7  A    between atoms: C_10  and  C_11
REMARK    8  A    between atoms: C_14  and  O_15
REMARK    9  A    between atoms: O_15  and  C_16
REMARK   10  A    between atoms: C_16  and  C_17
REMARK   11  A    between atoms: C_17  and  O_19
REMARK   12  A    between atoms: C_20  and  C_21
REMARK   13  A    between atoms: C_21  and  C_22
REMARK   14  A    between atoms: C_30  and  C_31
REMARK   15  A    between atoms: C_31  and  C_32
REMARK                            x       y       z     vdW  Elec       q    Type
REMARK                         _______ _______ _______ _____ _____    ______ ____
ROOT
ATOM      1  C   UNL     1       5.214   5.078  15.819  0.00  0.00    +0.000 A 
ATOM      2  C   UNL     1       5.134   6.455  15.605  0.00  0.00    +0.000 A 
ATOM      3  C   UNL     1       4.293   7.270  16.397  0.00  0.00    +0.000 A 
ATOM      4  C   UNL     1       3.492   6.744  17.424  0.00  0.00    +0.000 A 
ATOM      5  C   UNL     1       3.538   5.356  17.588  0.00  0.00    +0.000 A 
ATOM      6  C   UNL     1       4.367   4.518  16.802  0.00  0.00    +0.000 A 
ENDROOT
BRANCH   4   7
ATOM      7  C   UNL     1       2.701   7.582  18.362  0.00  0.00    +0.000 A 
ATOM      8  C   UNL     1       2.460   7.153  19.671  0.00  0.00    +0.000 A 
ATOM      9  C   UNL     1       1.600   7.852  20.526  0.00  0.00    +0.000 A 
ATOM     10  C   UNL     1       0.921   8.998  20.097  0.00  0.00    +0.000 A 
ATOM     11  C   UNL     1       1.186   9.500  18.812  0.00  0.00    +0.000 A 
ATOM     12  C   UNL     1       2.074   8.785  17.968  0.00  0.00    +0.000 A 
BRANCH  10  13
ATOM     13  O   UNL     1      -0.019   9.652  20.864  0.00  0.00    +0.000 OA
BRANCH  13  14
ATOM     14  C   UNL     1       0.490  10.247  22.063  0.00  0.00    +0.000 C 
BRANCH  14  15
ATOM     15  C   UNL     1      -0.477  10.140  23.223  0.00  0.00    +0.000 C 
ATOM     16  O   UNL     1      -1.583  10.673  23.230  0.00  0.00    +0.000 OA
BRANCH  15  17
ATOM     17  O   UNL     1      -0.027   9.391  24.256  0.00  0.00    +0.000 OA
ATOM     18  H   UNL     1       0.314   8.542  23.918  0.00  0.00    +0.000 HD
ENDBRANCH  15  17
ENDBRANCH  14  15
ENDBRANCH  13  14
ENDBRANCH  10  13
BRANCH  11  19
ATOM     19  C   UNL     1       0.513  10.751  18.268  0.00  0.00    +0.000 C 
BRANCH  19  20
ATOM     20  C   UNL     1      -0.992  10.710  18.064  0.00  0.00    +0.000 A 
ATOM     21  C   UNL     1      -1.641   9.736  17.293  0.00  0.00    +0.000 A 
ATOM     22  C   UNL     1      -3.032   9.736  17.159  0.00  0.00    +0.000 A 
ATOM     23  C   UNL     1      -3.799  10.712  17.791  0.00  0.00    +0.000 A 
ATOM     24  C   UNL     1      -3.174  11.696  18.550  0.00  0.00    +0.000 A 
ATOM     25  C   UNL     1      -1.782  11.696  18.684  0.00  0.00    +0.000 A 
ENDBRANCH  19  20
ENDBRANCH  11  19
ENDBRANCH   4   7
BRANCH   1  26
ATOM     26  O   UNL     1       6.070   4.247  15.125  0.00  0.00    +0.000 OA
BRANCH  26  27
ATOM     27  C   UNL     1       6.480   4.626  13.774  0.00  0.00    +0.000 C 
BRANCH  27  28
ATOM     28  C   UNL     1       6.630   3.346  12.897  0.00  0.00    +0.000 C 
BRANCH  28  30
ATOM     29  C   UNL     1       4.502   3.614  11.635  0.00  0.00    +0.000 C 
ATOM     30  N   UNL     1       5.494   2.713  12.196  0.00  0.00    +0.000 NA
ATOM     31  C   UNL     1       5.822   1.632  11.279  0.00  0.00    +0.000 C 
ENDBRANCH  28  30
ENDBRANCH  27  28
ENDBRANCH  26  27
ENDBRANCH   1  26
BRANCH   6  32
ATOM     32  C   UNL     1       4.307   3.044  17.141  0.00  0.00    +0.000 C 
BRANCH  32  33
ATOM     33  C   UNL     1       3.385   2.669  18.281  0.00  0.00    +0.000 A 
ATOM     34  C   UNL     1       3.855   2.670  19.602  0.00  0.00    +0.000 A 
ATOM     35  C   UNL     1       2.955   2.587  20.668  0.00  0.00    +0.000 A 
ATOM     36  C   UNL     1       1.587   2.485  20.423  0.00  0.00    +0.000 A 
ATOM     37  C   UNL     1       1.120   2.393  19.117  0.00  0.00    +0.000 A 
ATOM     38  C   UNL     1       2.017   2.473  18.056  0.00  0.00    +0.000 A 
ENDBRANCH  32  33
ENDBRANCH   6  32
TORSDOF 13
ENDMDL
MODEL 3
REMARK VINA RESULT:      -8.4      3.465     10.078
REMARK  Name = 
REMARK  15 active torsions:
REMARK  status: ('A' for Active; 'I' for Inactive)
REMARK    1  A    between atoms: C_1  and  N_2
REMARK    2  A    between atoms: N_2  and  C_3
REMARK    3  A    between atoms: N_2  and  C_4
REMARK    4  A    between atoms: C_4  and  C_5
REMARK    5  A    between atoms: C_5  and  O_6
REMARK    6  A    between atoms: O_6  and  C_7
REMARK    7  A    between atoms: C_10  and  C_11
REMARK    8  A    between atoms: C_14  and  O_15
REMARK    9  A    between atoms: O_15  and  C_16
REMARK   10  A    between atoms: C_16  and  C_17
REMARK   11  A    between atoms: C_17  and  O_19
REMARK   12  A    between atoms: C_20  and  C_21
REMARK   13  A    between atoms: C_21  and  C_22
REMARK   14  A    between atoms: C_30  and  C_31
REMARK   15  A    between atoms: C_31  and  C_32
REMARK                            x       y       z     vdW  Elec       q    Type
REMARK                         _______ _______ _______ _____ _____    ______ ____
ROOT
ATOM      1  C   UNL     1       0.367  10.940  21.296  0.00  0.00    +0.000 A 
ATOM      2  C   UNL     1       0.708  10.017  22.287  0.00  0.00    +0.000 A 
ATOM      3  C   UNL     1       1.121   8.707  21.954  0.00  0.00    +0.000 A 
ATOM      4  C   UNL     1       1.199   8.262  20.625  0.00  0.00    +0.000 A 
ATOM      5  C   UNL     1       0.799   9.177  19.646  0.00  0.00    +0.000 A 
ATOM      6  C   UNL     1       0.374  10.493  19.955  0.00  0.00    +0.000 A 
ENDROOT
BRANCH   4   7
ATOM      7  C   UNL     1       1.756   6.942  20.230  0.00  0.00    +0.000 A 
ATOM      8  C   UNL     1       1.500   5.802  20.998  0.00  0.00    +0.000 A 
ATOM      9  C   UNL     1       2.128   4.579  20.730  0.00  0.00    +0.000 A 
ATOM     10  C   UNL     1       3.063   4.454  19.697  0.00  0.00    +0.000 A 
ATOM     11  C   UNL     1       3.300   5.557  18.860  0.00  0.00    +0.000 A 
ATOM     12  C   UNL     1       2.639   6.781  19.139  0.00  0.00    +0.000 A 
BRANCH  10  13
ATOM     13  O   UNL     1       3.789   3.304  19.469  0.00  0.00    +0.000 OA
BRANCH  13  14
ATOM     14  C   UNL     1       3.003   2.117  19.312  0.00  0.00    +0.000 C 
BRANCH  14  15
ATOM     15  C   UNL     1       1.879   2.290  18.312  0.00  0.00    +0.000 C 
ATOM     16  O   UNL     1       0.692   2.182  18.607  0.00  0.00    +0.000 OA
BRANCH  15  17
ATOM     17  O   UNL     1       2.290   2.590  17.059  0.00  0.00    +0.000 OA
ATOM     18  H   UNL     1       2.799   3.421  17.074  0.00  0.00    +0.000 HD
ENDBRANCH  15  17
ENDBRANCH  14  15
ENDBRANCH  13  14
ENDBRANCH  10  13
BRANCH  11  19
ATOM     19  C   UNL     1       4.281   5.507  17.699  0.00  0.00    +0.000 C 
BRANCH  19  20
ATOM     20  C   UNL     1       5.677   6.061  17.931  0.00  0.00    +0.000 A 
ATOM     21  C   UNL     1       6.204   7.149  17.221  0.00  0.00    +0.000 A 
ATOM     22  C   UNL     1       7.488   7.629  17.494  0.00  0.00    +0.000 A 
ATOM     23  C   UNL     1       8.269   7.028  18.478  0.00  0.00    +0.000 A 
ATOM     24  C   UNL     1       7.770   5.939  19.185  0.00  0.00    +0.000 A 
ATOM     25  C   UNL     1       6.486   5.458  18.912  0.00  0.00    +0.000 A 
ENDBRANCH  19  20
ENDBRANCH  11  19
ENDBRANCH   4   7
BRANCH   1  26
ATOM     26  O   UNL     1       0.026  12.251  21.560  0.00  0.00    +0.000 OA
BRANCH  26  27
ATOM     27  C   UNL     1      -1.121  12.522  22.424  0.00  0.00    +0.000 C 
BRANCH  27  28
ATOM     28  C   UNL     1      -0.988  13.951  23.034  0.00  0.00    +0.000 C 
BRANCH  28  30
ATOM     29  C   UNL     1      -0.128  16.065  22.041  0.00  0.00    +0.000 C 
ATOM     30  N   UNL     1      -1.260  15.182  22.264  0.00  0.00    +0.000 NA
ATOM     31  C   UNL     1      -2.068  15.027  21.063  0.00  0.00    +0.000 C 
ENDBRANCH  28  30
ENDBRANCH  27  28
ENDBRANCH  26  27
ENDBRANCH   1  26
BRANCH   6  32
ATOM     32  C   UNL     1       0.004  11.352  18.764  0.00  0.00    +0.000 C 
BRANCH  32  33
ATOM     33  C   UNL     1      -1.404  11.173  18.238  0.00  0.00    +0.000 A 
ATOM     34  C   UNL     1      -1.701  10.132  17.347  0.00  0.00    +0.000 A 
ATOM     35  C   UNL     1      -3.030   9.802  17.070  0.00  0.00    +0.000 A 
ATOM     36  C   UNL     1      -4.067  10.519  17.664  0.00  0.00    +0.000 A 
ATOM     37  C   UNL     1      -3.782  11.610  18.478  0.00  0.00    +0.000 A 
ATOM     38  C   UNL     1      -2.457  11.940  18.751  0.00  0.00    +0.000 A 
ENDBRANCH  32  33
ENDBRANCH   6  32
TORSDOF 13
ENDMDL
MODEL 4
REMARK VINA RESULT:      -8.4      3.399     10.162
REMARK  Name = 
REMARK  15 active torsions:
REMARK  status: ('A' for Active; 'I' for Inactive)
REMARK    1  A    between atoms: C_1  and  N_2
REMARK    2  A    between atoms: N_2  and  C_3
REMARK    3  A    between atoms: N_2  and  C_4
REMARK    4  A    between atoms: C_4  and  C_5
REMARK    5  A    between atoms: C_5  and  O_6
REMARK    6  A    between atoms: O_6  and  C_7
REMARK    7  A    between atoms: C_10  and  C_11
REMARK    8  A    between atoms: C_14  and  O_15
REMARK    9  A    between atoms: O_15  and  C_16
REMARK   10  A    between atoms: C_16  and  C_17
REMARK   11  A    between atoms: C_17  and  O_19
REMARK   12  A    between atoms: C_20  and  C_21
REMARK   13  A    between atoms: C_21  and  C_22
REMARK   14  A    between atoms: C_30  and  C_31
REMARK   15  A    between atoms: C_31  and  C_32
REMARK                            x       y       z     vdW  Elec       q    Type
REMARK                         _______ _______ _______ _____ _____    ______ ____
ROOT
ATOM      1  C   UNL     1       0.329  11.458  20.858  0.00  0.00    +0.000 A 
ATOM      2  C   UNL     1       0.809  10.665  21.902  0.00  0.00    +0.000 A 
ATOM      3  C   UNL     1       1.207   9.328  21.681  0.00  0.00    +0.000 A 
ATOM      4  C   UNL     1       1.131   8.723  20.416  0.00  0.00    +0.000 A 
ATOM      5  C   UNL     1       0.594   9.509  19.392  0.00  0.00    +0.000 A 
ATOM      6  C   UNL     1       0.181  10.850  19.590  0.00  0.00    +0.000 A 
ENDROOT
BRANCH   4   7
ATOM      7  C   UNL     1       1.664   7.369  20.117  0.00  0.00    +0.000 A 
ATOM      8  C   UNL     1       1.381   6.290  20.960  0.00  0.00    +0.000 A 
ATOM      9  C   UNL     1       1.987   5.040  20.781  0.00  0.00    +0.000 A 
ATOM     10  C   UNL     1       2.925   4.825  19.766  0.00  0.00    +0.000 A 
ATOM     11  C   UNL     1       3.187   5.864  18.856  0.00  0.00    +0.000 A 
ATOM     12  C   UNL     1       2.550   7.116  19.046  0.00  0.00    +0.000 A 
BRANCH  10  13
ATOM     13  O   UNL     1       3.629   3.649  19.622  0.00  0.00    +0.000 OA
BRANCH  13  14
ATOM     14  C   UNL     1       2.826   2.463  19.617  0.00  0.00    +0.000 C 
BRANCH  14  15
ATOM     15  C   UNL     1       2.008   2.319  18.351  0.00  0.00    +0.000 C 
ATOM     16  O   UNL     1       2.430   2.618  17.238  0.00  0.00    +0.000 OA
BRANCH  15  17
ATOM     17  O   UNL     1       0.767   1.816  18.544  0.00  0.00    +0.000 OA
ATOM     18  H   UNL     1       0.180   2.517  18.881  0.00  0.00    +0.000 HD
ENDBRANCH  15  17
ENDBRANCH  14  15
ENDBRANCH  13  14
ENDBRANCH  10  13
BRANCH  11  19
ATOM     19  C   UNL     1       4.174   5.715  17.708  0.00  0.00    +0.000 C 
BRANCH  19  20
ATOM     20  C   UNL     1       5.606   6.166  17.945  0.00  0.00    +0.000 A 
ATOM     21  C   UNL     1       6.205   7.228  17.253  0.00  0.00    +0.000 A 
ATOM     22  C   UNL     1       7.520   7.613  17.529  0.00  0.00    +0.000 A 
ATOM     23  C   UNL     1       8.260   6.941  18.500  0.00  0.00    +0.000 A 
ATOM     24  C   UNL     1       7.688   5.877  19.189  0.00  0.00    +0.000 A 
ATOM     25  C   UNL     1       6.373   5.491  18.913  0.00  0.00    +0.000 A 
ENDBRANCH  19  20
ENDBRANCH  11  19
ENDBRANCH   4   7
BRANCH   1  26
ATOM     26  O   UNL     1      -0.005  12.789  21.003  0.00  0.00    +0.000 OA
BRANCH  26  27
ATOM     27  C   UNL     1      -0.755  13.204  22.186  0.00  0.00    +0.000 C 
BRANCH  27  28
ATOM     28  C   UNL     1      -2.261  13.367  21.819  0.00  0.00    +0.000 C 
BRANCH  28  30
ATOM     29  C   UNL     1      -3.290  12.364  23.851  0.00  0.00    +0.000 C 
ATOM     30  N   UNL     1      -3.327  12.531  22.409  0.00  0.00    +0.000 NA
ATOM     31  C   UNL     1      -4.679  12.776  21.929  0.00  0.00    +0.000 C 
ENDBRANCH  28  30
ENDBRANCH  27  28
ENDBRANCH  26  27
ENDBRANCH   1  26
BRANCH   6  32
ATOM     32  C   UNL     1      -0.350  11.555  18.360  0.00  0.00    +0.000 C 
BRANCH  32  33
ATOM     33  C   UNL     1      -1.776  11.221  17.977  0.00  0.00    +0.000 A 
ATOM     34  C   UNL     1      -2.850  11.789  18.676  0.00  0.00    +0.000 A 
ATOM     35  C   UNL     1      -4.148  11.698  18.167  0.00  0.00    +0.000 A 
ATOM     36  C   UNL     1      -4.384  11.025  16.970  0.00  0.00    +0.000 A 
ATOM     37  C   UNL     1      -3.339  10.381  16.317  0.00  0.00    +0.000 A 
ATOM     38  C   UNL     1      -2.047  10.471  16.827  0.00  0.00    +0.000 A 
ENDBRANCH  32  33
ENDBRANCH   6  32
TORSDOF 13
ENDMDL
MODEL 5
REMARK VINA RESULT:      -8.2      1.681      2.805
REMARK  Name = 
REMARK  15 active torsions:
REMARK  status: ('A' for Active; 'I' for Inactive)
REMARK    1  A    between atoms: C_1  and  N_2
REMARK    2  A    between atoms: N_2  and  C_3
REMARK    3  A    between atoms: N_2  and  C_4
REMARK    4  A    between atoms: C_4  and  C_5
REMARK    5  A    between atoms: C_5  and  O_6
REMARK    6  A    between atoms: O_6  and  C_7
REMARK    7  A    between atoms: C_10  and  C_11
REMARK    8  A    between atoms: C_14  and  O_15
REMARK    9  A    between atoms: O_15  and  C_16
REMARK   10  A    between atoms: C_16  and  C_17
REMARK   11  A    between atoms: C_17  and  O_19
REMARK   12  A    between atoms: C_20  and  C_21
REMARK   13  A    between atoms: C_21  and  C_22
REMARK   14  A    between atoms: C_30  and  C_31
REMARK   15  A    between atoms: C_31  and  C_32
REMARK                            x       y       z     vdW  Elec       q    Type
REMARK                         _______ _______ _______ _____ _____    ______ ____
ROOT
ATOM      1  C   UNL     1       2.927   7.341  18.313  0.00  0.00    +0.000 A 
ATOM      2  C   UNL     1       2.468   8.496  17.676  0.00  0.00    +0.000 A 
ATOM      3  C   UNL     1       1.560   9.370  18.314  0.00  0.00    +0.000 A 
ATOM      4  C   UNL     1       1.063   9.124  19.604  0.00  0.00    +0.000 A 
ATOM      5  C   UNL     1       1.484   7.934  20.206  0.00  0.00    +0.000 A 
ATOM      6  C   UNL     1       2.389   7.038  19.585  0.00  0.00    +0.000 A 
ENDROOT
BRANCH   4   7
ATOM      7  C   UNL     1       0.215  10.083  20.358  0.00  0.00    +0.000 A 
ATOM      8  C   UNL     1       0.146  10.029  21.753  0.00  0.00    +0.000 A 
ATOM      9  C   UNL     1      -0.753  10.824  22.475  0.00  0.00    +0.000 A 
ATOM     10  C   UNL     1      -1.642  11.688  21.826  0.00  0.00    +0.000 A 
ATOM     11  C   UNL     1      -1.559  11.822  20.430  0.00  0.00    +0.000 A 
ATOM     12  C   UNL     1      -0.629  11.019  19.720  0.00  0.00    +0.000 A 
BRANCH  10  13
ATOM     13  O   UNL     1      -2.618  12.404  22.486  0.00  0.00    +0.000 OA
BRANCH  13  14
ATOM     14  C   UNL     1      -2.832  12.019  23.848  0.00  0.00    +0.000 C 
BRANCH  14  15
ATOM     15  C   UNL     1      -4.115  12.585  24.420  0.00  0.00    +0.000 C 
ATOM     16  O   UNL     1      -5.166  11.954  24.471  0.00  0.00    +0.000 OA
BRANCH  15  17
ATOM     17  O   UNL     1      -4.004  13.849  24.888  0.00  0.00    +0.000 OA
ATOM     18  H   UNL     1      -3.653  14.427  24.186  0.00  0.00    +0.000 HD
ENDBRANCH  15  17
ENDBRANCH  14  15
ENDBRANCH  13  14
ENDBRANCH  10  13
BRANCH  11  19
ATOM     19  C   UNL     1      -2.468  12.753  19.642  0.00  0.00    +0.000 C 
BRANCH  19  20
ATOM     20  C   UNL     1      -3.776  12.185  19.117  0.00  0.00    +0.000 A 
ATOM     21  C   UNL     1      -3.881  11.474  17.913  0.00  0.00    +0.000 A 
ATOM     22  C   UNL     1      -5.108  10.955  17.492  0.00  0.00    +0.000 A 
ATOM     23  C   UNL     1      -6.252  11.140  18.264  0.00  0.00    +0.000 A 
ATOM     24  C   UNL     1      -6.172  11.854  19.455  0.00  0.00    +0.000 A 
ATOM     25  C   UNL     1      -4.945  12.373  19.878  0.00  0.00    +0.000 A 
ENDBRANCH  19  20
ENDBRANCH  11  19
ENDBRANCH   4   7
BRANCH   1  26
ATOM     26  O   UNL     1       3.867   6.492  17.766  0.00  0.00    +0.000 OA
BRANCH  26  27
ATOM     27  C   UNL     1       4.867   7.040  16.854  0.00  0.00    +0.000 C 
BRANCH  27  28
ATOM     28  C   UNL     1       5.245   5.966  15.788  0.00  0.00    +0.000 C 
BRANCH  28  30
ATOM     29  C   UNL     1       7.113   4.601  16.705  0.00  0.00    +0.000 C 
ATOM     30  N   UNL     1       6.616   5.439  15.628  0.00  0.00    +0.000 NA
ATOM     31  C   UNL     1       6.948   4.891  14.321  0.00  0.00    +0.000 C 
ENDBRANCH  28  30
ENDBRANCH  27  28
ENDBRANCH  26  27
ENDBRANCH   1  26
BRANCH   6  32
ATOM     32  C   UNL     1       2.754   5.815  20.398  0.00  0.00    +0.000 C 
BRANCH  32  33
ATOM     33  C   UNL     1       2.363   4.484  19.794  0.00  0.00    +0.000 A 
ATOM     34  C   UNL     1       3.348   3.596  19.336  0.00  0.00    +0.000 A 
ATOM     35  C   UNL     1       3.015   2.275  19.027  0.00  0.00    +0.000 A 
ATOM     36  C   UNL     1       1.698   1.837  19.156  0.00  0.00    +0.000 A 
ATOM     37  C   UNL     1       0.700   2.733  19.522  0.00  0.00    +0.000 A 
ATOM     38  C   UNL     1       1.033   4.050  19.827  0.00  0.00    +0.000 A 
ENDBRANCH  32  33
ENDBRANCH   6  32
TORSDOF 13
ENDMDL
MODEL 6
REMARK VINA RESULT:      -8.1      1.666      2.550
REMARK  Name = 
REMARK  15 active torsions:
REMARK  status: ('A' for Active; 'I' for Inactive)
REMARK    1  A    between atoms: C_1  and  N_2
REMARK    2  A    between atoms: N_2  and  C_3
REMARK    3  A    between atoms: N_2  and  C_4
REMARK    4  A    between atoms: C_4  and  C_5
REMARK    5  A    between atoms: C_5  and  O_6
REMARK    6  A    between atoms: O_6  and  C_7
REMARK    7  A    between atoms: C_10  and  C_11
REMARK    8  A    between atoms: C_14  and  O_15
REMARK    9  A    between atoms: O_15  and  C_16
REMARK   10  A    between atoms: C_16  and  C_17
REMARK   11  A    between atoms: C_17  and  O_19
REMARK   12  A    between atoms: C_20  and  C_21
REMARK   13  A    between atoms: C_21  and  C_22
REMARK   14  A    between atoms: C_30  and  C_31
REMARK   15  A    between atoms: C_31  and  C_32
REMARK                            x       y       z     vdW  Elec       q    Type
REMARK                         _______ _______ _______ _____ _____    ______ ____
ROOT
ATOM      1  C   UNL     1       3.252   7.026  18.070  0.00  0.00    +0.000 A 
ATOM      2  C   UNL     1       2.810   8.221  17.500  0.00  0.00    +0.000 A 
ATOM      3  C   UNL     1       1.933   9.083  18.197  0.00  0.00    +0.000 A 
ATOM      4  C   UNL     1       1.454   8.785  19.482  0.00  0.00    +0.000 A 
ATOM      5  C   UNL     1       1.858   7.558  20.018  0.00  0.00    +0.000 A 
ATOM      6  C   UNL     1       2.730   6.673  19.336  0.00  0.00    +0.000 A 
ENDROOT
BRANCH   4   7
ATOM      7  C   UNL     1       0.643   9.725  20.298  0.00  0.00    +0.000 A 
ATOM      8  C   UNL     1       0.653   9.649  21.694  0.00  0.00    +0.000 A 
ATOM      9  C   UNL     1      -0.209  10.425  22.478  0.00  0.00    +0.000 A 
ATOM     10  C   UNL     1      -1.141  11.291  21.895  0.00  0.00    +0.000 A 
ATOM     11  C   UNL     1      -1.138  11.447  20.498  0.00  0.00    +0.000 A 
ATOM     12  C   UNL     1      -0.244  10.663  19.724  0.00  0.00    +0.000 A 
BRANCH  10  13
ATOM     13  O   UNL     1      -2.084  11.988  22.620  0.00  0.00    +0.000 OA
BRANCH  13  14
ATOM     14  C   UNL     1      -1.569  13.090  23.376  0.00  0.00    +0.000 C 
BRANCH  14  15
ATOM     15  C   UNL     1      -1.874  14.428  22.736  0.00  0.00    +0.000 C 
ATOM     16  O   UNL     1      -1.020  15.128  22.200  0.00  0.00    +0.000 OA
BRANCH  15  17
ATOM     17  O   UNL     1      -3.176  14.787  22.791  0.00  0.00    +0.000 OA
ATOM     18  H   UNL     1      -3.406  15.302  21.995  0.00  0.00    +0.000 HD
ENDBRANCH  15  17
ENDBRANCH  14  15
ENDBRANCH  13  14
ENDBRANCH  10  13
BRANCH  11  19
ATOM     19  C   UNL     1      -2.098  12.381  19.778  0.00  0.00    +0.000 C 
BRANCH  19  20
ATOM     20  C   UNL     1      -2.780  11.862  18.523  0.00  0.00    +0.000 A 
ATOM     21  C   UNL     1      -2.089  11.534  17.348  0.00  0.00    +0.000 A 
ATOM     22  C   UNL     1      -2.768  11.040  16.231  0.00  0.00    +0.000 A 
ATOM     23  C   UNL     1      -4.150  10.868  16.267  0.00  0.00    +0.000 A 
ATOM     24  C   UNL     1      -4.856  11.200  17.419  0.00  0.00    +0.000 A 
ATOM     25  C   UNL     1      -4.177  11.695  18.537  0.00  0.00    +0.000 A 
ENDBRANCH  19  20
ENDBRANCH  11  19
ENDBRANCH   4   7
BRANCH   1  26
ATOM     26  O   UNL     1       4.162   6.183  17.465  0.00  0.00    +0.000 OA
BRANCH  26  27
ATOM     27  C   UNL     1       5.007   6.709  16.396  0.00  0.00    +0.000 C 
BRANCH  27  28
ATOM     28  C   UNL     1       6.504   6.628  16.826  0.00  0.00    +0.000 C 
BRANCH  28  30
ATOM     29  C   UNL     1       7.625   4.588  17.707  0.00  0.00    +0.000 C 
ATOM     30  N   UNL     1       7.352   5.447  16.568  0.00  0.00    +0.000 NA
ATOM     31  C   UNL     1       7.039   4.676  15.374  0.00  0.00    +0.000 C 
ENDBRANCH  28  30
ENDBRANCH  27  28
ENDBRANCH  26  27
ENDBRANCH   1  26
BRANCH   6  32
ATOM     32  C   UNL     1       3.080   5.403  20.082  0.00  0.00    +0.000 C 
BRANCH  32  33
ATOM     33  C   UNL     1       2.608   4.115  19.443  0.00  0.00    +0.000 A 
ATOM     34  C   UNL     1       3.528   3.115  19.099  0.00  0.00    +0.000 A 
ATOM     35  C   UNL     1       3.082   1.835  18.761  0.00  0.00    +0.000 A 
ATOM     36  C   UNL     1       1.718   1.551  18.746  0.00  0.00    +0.000 A 
ATOM     37  C   UNL     1       0.795   2.560  18.998  0.00  0.00    +0.000 A 
ATOM     38  C   UNL     1       1.241   3.836  19.332  0.00  0.00    +0.000 A 
ENDBRANCH  32  33
ENDBRANCH   6  32
TORSDOF 13
ENDMDL
MODEL 7
REMARK VINA RESULT:      -8.0      1.509      2.309
REMARK  Name = 
REMARK  15 active torsions:
REMARK  status: ('A' for Active; 'I' for Inactive)
REMARK    1  A    between atoms: C_1  and  N_2
REMARK    2  A    between atoms: N_2  and  C_3
REMARK    3  A    between atoms: N_2  and  C_4
REMARK    4  A    between atoms: C_4  and  C_5
REMARK    5  A    between atoms: C_5  and  O_6
REMARK    6  A    between atoms: O_6  and  C_7
REMARK    7  A    between atoms: C_10  and  C_11
REMARK    8  A    between atoms: C_14  and  O_15
REMARK    9  A    between atoms: O_15  and  C_16
REMARK   10  A    between atoms: C_16  and  C_17
REMARK   11  A    between atoms: C_17  and  O_19
REMARK   12  A    between atoms: C_20  and  C_21
REMARK   13  A    between atoms: C_21  and  C_22
REMARK   14  A    between atoms: C_30  and  C_31
REMARK   15  A    between atoms: C_31  and  C_32
REMARK                            x       y       z     vdW  Elec       q    Type
REMARK                         _______ _______ _______ _____ _____    ______ ____
ROOT
ATOM      1  C   UNL     1       3.116   7.118  18.280  0.00  0.00    +0.000 A 
ATOM      2  C   UNL     1       2.720   8.292  17.637  0.00  0.00    +0.000 A 
ATOM      3  C   UNL     1       1.827   9.198  18.253  0.00  0.00    +0.000 A 
ATOM      4  C   UNL     1       1.285   8.964  19.527  0.00  0.00    +0.000 A 
ATOM      5  C   UNL     1       1.643   7.757  20.135  0.00  0.00    +0.000 A 
ATOM      6  C   UNL     1       2.531   6.830  19.534  0.00  0.00    +0.000 A 
ENDROOT
BRANCH   4   7
ATOM      7  C   UNL     1       0.452   9.952  20.261  0.00  0.00    +0.000 A 
ATOM      8  C   UNL     1       0.425   9.962  21.659  0.00  0.00    +0.000 A 
ATOM      9  C   UNL     1      -0.458  10.784  22.370  0.00  0.00    +0.000 A 
ATOM     10  C   UNL     1      -1.372  11.611  21.710  0.00  0.00    +0.000 A 
ATOM     11  C   UNL     1      -1.332  11.681  20.307  0.00  0.00    +0.000 A 
ATOM     12  C   UNL     1      -0.418  10.852  19.607  0.00  0.00    +0.000 A 
BRANCH  10  13
ATOM     13  O   UNL     1      -2.334  12.351  22.365  0.00  0.00    +0.000 OA
BRANCH  13  14
ATOM     14  C   UNL     1      -2.651  11.893  23.685  0.00  0.00    +0.000 C 
BRANCH  14  15
ATOM     15  C   UNL     1      -3.884  12.564  24.254  0.00  0.00    +0.000 C 
ATOM     16  O   UNL     1      -4.011  13.782  24.335  0.00  0.00    +0.000 OA
BRANCH  15  17
ATOM     17  O   UNL     1      -4.849  11.705  24.655  0.00  0.00    +0.000 OA
ATOM     18  H   UNL     1      -5.547  12.197  25.126  0.00  0.00    +0.000 HD
ENDBRANCH  15  17
ENDBRANCH  14  15
ENDBRANCH  13  14
ENDBRANCH  10  13
BRANCH  11  19
ATOM     19  C   UNL     1      -2.272  12.569  19.505  0.00  0.00    +0.000 C 
BRANCH  19  20
ATOM     20  C   UNL     1      -2.978  11.952  18.310  0.00  0.00    +0.000 A 
ATOM     21  C   UNL     1      -4.364  11.753  18.250  0.00  0.00    +0.000 A 
ATOM     22  C   UNL     1      -4.961  11.200  17.114  0.00  0.00    +0.000 A 
ATOM     23  C   UNL     1      -4.182  10.832  16.019  0.00  0.00    +0.000 A 
ATOM     24  C   UNL     1      -2.803  11.009  16.063  0.00  0.00    +0.000 A 
ATOM     25  C   UNL     1      -2.206  11.562  17.200  0.00  0.00    +0.000 A 
ENDBRANCH  19  20
ENDBRANCH  11  19
ENDBRANCH   4   7
BRANCH   1  26
ATOM     26  O   UNL     1       4.039   6.236  17.756  0.00  0.00    +0.000 OA
BRANCH  26  27
ATOM     27  C   UNL     1       5.253   6.767  17.141  0.00  0.00    +0.000 C 
BRANCH  27  28
ATOM     28  C   UNL     1       5.452   6.120  15.737  0.00  0.00    +0.000 C 
BRANCH  28  30
ATOM     29  C   UNL     1       5.742   3.671  16.073  0.00  0.00    +0.000 C 
ATOM     30  N   UNL     1       6.266   4.907  15.518  0.00  0.00    +0.000 NA
ATOM     31  C   UNL     1       6.791   4.715  14.174  0.00  0.00    +0.000 C 
ENDBRANCH  28  30
ENDBRANCH  27  28
ENDBRANCH  26  27
ENDBRANCH   1  26
BRANCH   6  32
ATOM     32  C   UNL     1       2.825   5.590  20.352  0.00  0.00    +0.000 C 
BRANCH  32  33
ATOM     33  C   UNL     1       2.484   4.272  19.690  0.00  0.00    +0.000 A 
ATOM     34  C   UNL     1       3.493   3.342  19.402  0.00  0.00    +0.000 A 
ATOM     35  C   UNL     1       3.161   2.033  19.042  0.00  0.00    +0.000 A 
ATOM     36  C   UNL     1       1.824   1.651  18.951  0.00  0.00    +0.000 A 
ATOM     37  C   UNL     1       0.817   2.590  19.147  0.00  0.00    +0.000 A 
ATOM     38  C   UNL     1       1.149   3.894  19.502  0.00  0.00    +0.000 A 
ENDBRANCH  32  33
ENDBRANCH   6  32
TORSDOF 13
ENDMDL
MODEL 8
REMARK VINA RESULT:      -8.0      1.771      2.961
REMARK  Name = 
REMARK  15 active torsions:
REMARK  status: ('A' for Active; 'I' for Inactive)
REMARK    1  A    between atoms: C_1  and  N_2
REMARK    2  A    between atoms: N_2  and  C_3
REMARK    3  A    between atoms: N_2  and  C_4
REMARK    4  A    between atoms: C_4  and  C_5
REMARK    5  A    between atoms: C_5  and  O_6
REMARK    6  A    between atoms: O_6  and  C_7
REMARK    7  A    between atoms: C_10  and  C_11
REMARK    8  A    between atoms: C_14  and  O_15
REMARK    9  A    between atoms: O_15  and  C_16
REMARK   10  A    between atoms: C_16  and  C_17
REMARK   11  A    between atoms: C_17  and  O_19
REMARK   12  A    between atoms: C_20  and  C_21
REMARK   13  A    between atoms: C_21  and  C_22
REMARK   14  A    between atoms: C_30  and  C_31
REMARK   15  A    between atoms: C_31  and  C_32
REMARK                            x       y       z     vdW  Elec       q    Type
REMARK                         _______ _______ _______ _____ _____    ______ ____
ROOT
ATOM      1  C   UNL     1       2.656   7.495  18.225  0.00  0.00    +0.000 A 
ATOM      2  C   UNL     1       2.079   8.617  17.627  0.00  0.00    +0.000 A 
ATOM      3  C   UNL     1       1.226   9.476  18.355  0.00  0.00    +0.000 A 
ATOM      4  C   UNL     1       0.904   9.246  19.702  0.00  0.00    +0.000 A 
ATOM      5  C   UNL     1       1.440   8.087  20.272  0.00  0.00    +0.000 A 
ATOM      6  C   UNL     1       2.293   7.206  19.561  0.00  0.00    +0.000 A 
ENDROOT
BRANCH   4   7
ATOM      7  C   UNL     1       0.122  10.195  20.536  0.00  0.00    +0.000 A 
ATOM      8  C   UNL     1       0.168  10.123  21.932  0.00  0.00    +0.000 A 
ATOM      9  C   UNL     1      -0.667  10.908  22.736  0.00  0.00    +0.000 A 
ATOM     10  C   UNL     1      -1.606  11.780  22.175  0.00  0.00    +0.000 A 
ATOM     11  C   UNL     1      -1.639  11.932  20.778  0.00  0.00    +0.000 A 
ATOM     12  C   UNL     1      -0.772  11.139  19.983  0.00  0.00    +0.000 A 
BRANCH  10  13
ATOM     13  O   UNL     1      -2.524  12.487  22.922  0.00  0.00    +0.000 OA
BRANCH  13  14
ATOM     14  C   UNL     1      -1.993  13.624  23.612  0.00  0.00    +0.000 C 
BRANCH  14  15
ATOM     15  C   UNL     1      -2.961  14.196  24.625  0.00  0.00    +0.000 C 
ATOM     16  O   UNL     1      -2.858  15.327  25.091  0.00  0.00    +0.000 OA
BRANCH  15  17
ATOM     17  O   UNL     1      -3.967  13.360  24.968  0.00  0.00    +0.000 OA
ATOM     18  H   UNL     1      -4.824  13.780  24.766  0.00  0.00    +0.000 HD
ENDBRANCH  15  17
ENDBRANCH  14  15
ENDBRANCH  13  14
ENDBRANCH  10  13
BRANCH  11  19
ATOM     19  C   UNL     1      -2.610  12.873  20.081  0.00  0.00    +0.000 C 
BRANCH  19  20
ATOM     20  C   UNL     1      -3.954  12.309  19.651  0.00  0.00    +0.000 A 
ATOM     21  C   UNL     1      -5.112  12.389  20.437  0.00  0.00    +0.000 A 
ATOM     22  C   UNL     1      -6.326  11.871  19.979  0.00  0.00    +0.000 A 
ATOM     23  C   UNL     1      -6.404  11.260  18.730  0.00  0.00    +0.000 A 
ATOM     24  C   UNL     1      -5.263  11.158  17.940  0.00  0.00    +0.000 A 
ATOM     25  C   UNL     1      -4.048  11.676  18.397  0.00  0.00    +0.000 A 
ENDBRANCH  19  20
ENDBRANCH  11  19
ENDBRANCH   4   7
BRANCH   1  26
ATOM     26  O   UNL     1       3.551   6.664  17.583  0.00  0.00    +0.000 OA
BRANCH  26  27
ATOM     27  C   UNL     1       4.934   7.107  17.422  0.00  0.00    +0.000 C 
BRANCH  27  28
ATOM     28  C   UNL     1       5.594   6.334  16.239  0.00  0.00    +0.000 C 
BRANCH  28  30
ATOM     29  C   UNL     1       6.632   4.347  15.159  0.00  0.00    +0.000 C 
ATOM     30  N   UNL     1       6.151   4.973  16.379  0.00  0.00    +0.000 NA
ATOM     31  C   UNL     1       7.065   4.761  17.491  0.00  0.00    +0.000 C 
ENDBRANCH  28  30
ENDBRANCH  27  28
ENDBRANCH  26  27
ENDBRANCH   1  26
BRANCH   6  32
ATOM     32  C   UNL     1       2.800   6.017  20.348  0.00  0.00    +0.000 C 
BRANCH  32  33
ATOM     33  C   UNL     1       2.027   4.729  20.163  0.00  0.00    +0.000 A 
ATOM     34  C   UNL     1       1.588   4.341  18.889  0.00  0.00    +0.000 A 
ATOM     35  C   UNL     1       1.115   3.045  18.673  0.00  0.00    +0.000 A 
ATOM     36  C   UNL     1       1.059   2.136  19.728  0.00  0.00    +0.000 A 
ATOM     37  C   UNL     1       1.407   2.539  21.012  0.00  0.00    +0.000 A 
ATOM     38  C   UNL     1       1.875   3.832  21.227  0.00  0.00    +0.000 A 
ENDBRANCH  32  33
ENDBRANCH   6  32
TORSDOF 13
ENDMDL
MODEL 9
REMARK VINA RESULT:      -8.0      3.509     10.579
REMARK  Name = 
REMARK  15 active torsions:
REMARK  status: ('A' for Active; 'I' for Inactive)
REMARK    1  A    between atoms: C_1  and  N_2
REMARK    2  A    between atoms: N_2  and  C_3
REMARK    3  A    between atoms: N_2  and  C_4
REMARK    4  A    between atoms: C_4  and  C_5
REMARK    5  A    between atoms: C_5  and  O_6
REMARK    6  A    between atoms: O_6  and  C_7
REMARK    7  A    between atoms: C_10  and  C_11
REMARK    8  A    between atoms: C_14  and  O_15
REMARK    9  A    between atoms: O_15  and  C_16
REMARK   10  A    between atoms: C_16  and  C_17
REMARK   11  A    between atoms: C_17  and  O_19
REMARK   12  A    between atoms: C_20  and  C_21
REMARK   13  A    between atoms: C_21  and  C_22
REMARK   14  A    between atoms: C_30  and  C_31
REMARK   15  A    between atoms: C_31  and  C_32
REMARK                            x       y       z     vdW  Elec       q    Type
REMARK                         _______ _______ _______ _____ _____    ______ ____
ROOT
ATOM      1  C   UNL     1      -1.227  11.254  21.928  0.00  0.00    +0.000 A 
ATOM      2  C   UNL     1      -0.576  10.183  22.544  0.00  0.00    +0.000 A 
ATOM      3  C   UNL     1       0.282   9.332  21.812  0.00  0.00    +0.000 A 
ATOM      4  C   UNL     1       0.517   9.506  20.439  0.00  0.00    +0.000 A 
ATOM      5  C   UNL     1      -0.186  10.546  19.823  0.00  0.00    +0.000 A 
ATOM      6  C   UNL     1      -1.057  11.409  20.534  0.00  0.00    +0.000 A 
ENDROOT
BRANCH   4   7
ATOM      7  C   UNL     1       1.514   8.719  19.667  0.00  0.00    +0.000 A 
ATOM      8  C   UNL     1       1.871   9.097  18.369  0.00  0.00    +0.000 A 
ATOM      9  C   UNL     1       2.694   8.294  17.571  0.00  0.00    +0.000 A 
ATOM     10  C   UNL     1       3.173   7.062  18.029  0.00  0.00    +0.000 A 
ATOM     11  C   UNL     1       2.893   6.675  19.351  0.00  0.00    +0.000 A 
ATOM     12  C   UNL     1       2.070   7.512  20.148  0.00  0.00    +0.000 A 
BRANCH  10  13
ATOM     13  O   UNL     1       3.891   6.188  17.240  0.00  0.00    +0.000 OA
BRANCH  13  14
ATOM     14  C   UNL     1       5.038   6.757  16.601  0.00  0.00    +0.000 C 
BRANCH  14  15
ATOM     15  C   UNL     1       6.303   5.966  16.859  0.00  0.00    +0.000 C 
ATOM     16  O   UNL     1       7.375   6.212  16.315  0.00  0.00    +0.000 OA
BRANCH  15  17
ATOM     17  O   UNL     1       6.159   4.965  17.758  0.00  0.00    +0.000 OA
ATOM     18  H   UNL     1       6.685   4.194  17.474  0.00  0.00    +0.000 HD
ENDBRANCH  15  17
ENDBRANCH  14  15
ENDBRANCH  13  14
ENDBRANCH  10  13
BRANCH  11  19
ATOM     19  C   UNL     1       3.389   5.365  19.943  0.00  0.00    +0.000 C 
BRANCH  19  20
ATOM     20  C   UNL     1       2.662   4.091  19.546  0.00  0.00    +0.000 A 
ATOM     21  C   UNL     1       1.292   3.885  19.759  0.00  0.00    +0.000 A 
ATOM     22  C   UNL     1       0.673   2.700  19.352  0.00  0.00    +0.000 A 
ATOM     23  C   UNL     1       1.413   1.699  18.727  0.00  0.00    +0.000 A 
ATOM     24  C   UNL     1       2.776   1.878  18.518  0.00  0.00    +0.000 A 
ATOM     25  C   UNL     1       3.396   3.063  18.925  0.00  0.00    +0.000 A 
ENDBRANCH  19  20
ENDBRANCH  11  19
ENDBRANCH   4   7
BRANCH   1  26
ATOM     26  O   UNL     1      -2.018  12.158  22.608  0.00  0.00    +0.000 OA
BRANCH  26  27
ATOM     27  C   UNL     1      -1.387  13.316  23.237  0.00  0.00    +0.000 C 
BRANCH  27  28
ATOM     28  C   UNL     1      -2.462  14.142  24.006  0.00  0.00    +0.000 C 
BRANCH  28  30
ATOM     29  C   UNL     1      -4.481  15.588  24.175  0.00  0.00    +0.000 C 
ATOM     30  N   UNL     1      -3.477  14.972  23.325  0.00  0.00    +0.000 NA
ATOM     31  C   UNL     1      -2.983  15.897  22.316  0.00  0.00    +0.000 C 
ENDBRANCH  28  30
ENDBRANCH  27  28
ENDBRANCH  26  27
ENDBRANCH   1  26
BRANCH   6  32
ATOM     32  C   UNL     1      -1.711  12.495  19.707  0.00  0.00    +0.000 C 
BRANCH  32  33
ATOM     33  C   UNL     1      -3.072  12.158  19.137  0.00  0.00    +0.000 A 
ATOM     34  C   UNL     1      -3.181  11.364  17.985  0.00  0.00    +0.000 A 
ATOM     35  C   UNL     1      -4.418  10.834  17.612  0.00  0.00    +0.000 A 
ATOM     36  C   UNL     1      -5.554  11.105  18.372  0.00  0.00    +0.000 A 
ATOM     37  C   UNL     1      -5.471  11.964  19.463  0.00  0.00    +0.000 A 
ATOM     38  C   UNL     1      -4.239  12.494  19.833  0.00  0.00    +0.000 A 
ENDBRANCH  32  33
ENDBRANCH   6  32
TORSDOF 13
ENDMDL
