MODEL 1
REMARK VINA RESULT:      -6.3      0.000      0.000
REMARK  Name = 
REMARK  12 active torsions:
REMARK  status: ('A' for Active; 'I' for Inactive)
REMARK    1  A    between atoms: C_1  and  N_2
REMARK    2  A    between atoms: C_6  and  C_7
REMARK    3  A    between atoms: C_7  and  C_8
REMARK    4  A    between atoms: C_9  and  C_10
REMARK    5  A    between atoms: C_10  and  O_11
REMARK    6  A    between atoms: C_10  and  C_12
REMARK    7  A    between atoms: C_12  and  C_13
REMARK    8  A    between atoms: C_13  and  O_14
REMARK    9  A    between atoms: C_13  and  C_15
REMARK   10  A    between atoms: C_15  and  C_16
REMARK   11  A    between atoms: C_19  and  C_20
REMARK   12  A    between atoms: C_19  and  C_27
REMARK                            x       y       z     vdW  Elec       q    Type
REMARK                         _______ _______ _______ _____ _____    ______ ____
ROOT
ATOM      1  C   UNL     1      -1.096  13.955  22.644  0.00  0.00    +0.000 C 
ATOM      2  C   UNL     1      -1.853  12.816  22.645  0.00  0.00    +0.000 C 
ENDROOT
BRANCH   2   3
ATOM      3  C   UNL     1      -3.295  12.822  22.976  0.00  0.00    +0.000 A 
ATOM      4  C   UNL     1      -4.245  12.958  21.951  0.00  0.00    +0.000 A 
ATOM      5  C   UNL     1      -5.606  12.900  22.246  0.00  0.00    +0.000 A 
ATOM      6  C   UNL     1      -6.010  12.703  23.562  0.00  0.00    +0.000 A 
ATOM      7  F   UNL     1      -7.317  12.647  23.848  0.00  0.00    +0.000 F 
ATOM      8  C   UNL     1      -5.079  12.543  24.583  0.00  0.00    +0.000 A 
ATOM      9  C   UNL     1      -3.717  12.592  24.290  0.00  0.00    +0.000 A 
ENDBRANCH   2   3
BRANCH   2  10
ATOM     10  C   UNL     1      -1.241  11.505  22.225  0.00  0.00    +0.000 A 
ATOM     11  C   UNL     1      -0.962  11.249  20.872  0.00  0.00    +0.000 A 
ATOM     12  C   UNL     1      -0.338  10.057  20.495  0.00  0.00    +0.000 A 
ATOM     13  C   UNL     1       0.002   9.119  21.462  0.00  0.00    +0.000 A 
ATOM     14  F   UNL     1       0.614   7.982  21.098  0.00  0.00    +0.000 F 
ATOM     15  C   UNL     1      -0.275   9.349  22.805  0.00  0.00    +0.000 A 
ATOM     16  C   UNL     1      -0.894  10.539  23.189  0.00  0.00    +0.000 A 
ENDBRANCH   2  10
BRANCH   1  22
ATOM     17  C   UNL     1      -1.359  15.482  25.416  0.00  0.00    +0.000 C 
ATOM     18  N   UNL     1      -1.708  15.894  24.085  0.00  0.00    +0.000 N 
ATOM     19  N   UNL     1      -2.184  17.146  23.912  0.00  0.00    +0.000 NA
ATOM     20  N   UNL     1      -2.530  17.223  22.642  0.00  0.00    +0.000 NA
ATOM     21  N   UNL     1      -2.219  16.068  21.981  0.00  0.00    +0.000 NA
ATOM     22  C   UNL     1      -1.707  15.235  22.879  0.00  0.00    +0.000 A 
ENDBRANCH   1  22
BRANCH   1  23
ATOM     23  C   UNL     1       0.234  13.919  22.042  0.00  0.00    +0.000 C 
ATOM     24  C   UNL     1       1.151  14.897  22.026  0.00  0.00    +0.000 C 
BRANCH  24  25
ATOM     25  C   UNL     1       2.464  14.748  21.296  0.00  0.00    +0.000 C 
BRANCH  25  26
ATOM     26  O   UNL     1       3.412  14.248  22.243  0.00  0.00    +0.000 OA
ATOM     27  H   UNL     1       3.561  13.310  22.035  0.00  0.00    +0.000 HD
ENDBRANCH  25  26
BRANCH  25  28
ATOM     28  C   UNL     1       2.395  13.791  20.096  0.00  0.00    +0.000 C 
BRANCH  28  29
ATOM     29  C   UNL     1       2.796  14.442  18.767  0.00  0.00    +0.000 C 
BRANCH  29  30
ATOM     30  O   UNL     1       2.551  13.491  17.723  0.00  0.00    +0.000 OA
ATOM     31  H   UNL     1       3.411  13.205  17.371  0.00  0.00    +0.000 HD
ENDBRANCH  29  30
BRANCH  29  32
ATOM     32  C   UNL     1       2.024  15.726  18.487  0.00  0.00    +0.000 C 
BRANCH  32  33
ATOM     33  C   UNL     1       2.994  16.831  18.122  0.00  0.00    +0.000 C 
ATOM     34  O   UNL     1       3.705  17.257  19.084  0.00  0.00    +0.000 OA
ATOM     35  O   UNL     1       3.002  17.216  16.928  0.00  0.00    +0.000 OA
ENDBRANCH  32  33
ENDBRANCH  29  32
ENDBRANCH  28  29
ENDBRANCH  25  28
ENDBRANCH  24  25
ENDBRANCH   1  23
TORSDOF 11
ENDMDL
MODEL 2
REMARK VINA RESULT:      -6.2      0.713      1.213
REMARK  Name = 
REMARK  12 active torsions:
REMARK  status: ('A' for Active; 'I' for Inactive)
REMARK    1  A    between atoms: C_1  and  N_2
REMARK    2  A    between atoms: C_6  and  C_7
REMARK    3  A    between atoms: C_7  and  C_8
REMARK    4  A    between atoms: C_9  and  C_10
REMARK    5  A    between atoms: C_10  and  O_11
REMARK    6  A    between atoms: C_10  and  C_12
REMARK    7  A    between atoms: C_12  and  C_13
REMARK    8  A    between atoms: C_13  and  O_14
REMARK    9  A    between atoms: C_13  and  C_15
REMARK   10  A    between atoms: C_15  and  C_16
REMARK   11  A    between atoms: C_19  and  C_20
REMARK   12  A    between atoms: C_19  and  C_27
REMARK                            x       y       z     vdW  Elec       q    Type
REMARK                         _______ _______ _______ _____ _____    ______ ____
ROOT
ATOM      1  C   UNL     1      -1.264  13.992  22.795  0.00  0.00    +0.000 C 
ATOM      2  C   UNL     1      -2.005  12.845  22.724  0.00  0.00    +0.000 C 
ENDROOT
BRANCH   2   3
ATOM      3  C   UNL     1      -3.454  12.819  23.018  0.00  0.00    +0.000 A 
ATOM      4  C   UNL     1      -4.381  12.934  21.969  0.00  0.00    +0.000 A 
ATOM      5  C   UNL     1      -5.747  12.846  22.229  0.00  0.00    +0.000 A 
ATOM      6  C   UNL     1      -6.180  12.638  23.535  0.00  0.00    +0.000 A 
ATOM      7  F   UNL     1      -7.493  12.552  23.787  0.00  0.00    +0.000 F 
ATOM      8  C   UNL     1      -5.273  12.497  24.579  0.00  0.00    +0.000 A 
ATOM      9  C   UNL     1      -3.904  12.577  24.320  0.00  0.00    +0.000 A 
ENDBRANCH   2   3
BRANCH   2  10
ATOM     10  C   UNL     1      -1.366  11.562  22.259  0.00  0.00    +0.000 A 
ATOM     11  C   UNL     1      -1.097  11.353  20.896  0.00  0.00    +0.000 A 
ATOM     12  C   UNL     1      -0.449  10.188  20.478  0.00  0.00    +0.000 A 
ATOM     13  C   UNL     1      -0.073   9.232  21.413  0.00  0.00    +0.000 A 
ATOM     14  F   UNL     1       0.562   8.122  21.009  0.00  0.00    +0.000 F 
ATOM     15  C   UNL     1      -0.339   9.415  22.765  0.00  0.00    +0.000 A 
ATOM     16  C   UNL     1      -0.984  10.579  23.190  0.00  0.00    +0.000 A 
ENDBRANCH   2  10
BRANCH   1  22
ATOM     17  C   UNL     1      -2.585  15.988  20.708  0.00  0.00    +0.000 C 
ATOM     18  N   UNL     1      -2.538  16.031  22.143  0.00  0.00    +0.000 N 
ATOM     19  N   UNL     1      -3.187  17.037  22.769  0.00  0.00    +0.000 NA
ATOM     20  N   UNL     1      -2.890  16.911  24.048  0.00  0.00    +0.000 NA
ATOM     21  N   UNL     1      -2.120  15.803  24.262  0.00  0.00    +0.000 NA
ATOM     22  C   UNL     1      -1.896  15.252  23.075  0.00  0.00    +0.000 A 
ENDBRANCH   1  22
BRANCH   1  23
ATOM     23  C   UNL     1       0.082  14.000  22.227  0.00  0.00    +0.000 C 
ATOM     24  C   UNL     1       0.946  15.025  22.183  0.00  0.00    +0.000 C 
BRANCH  24  25
ATOM     25  C   UNL     1       2.283  14.913  21.493  0.00  0.00    +0.000 C 
BRANCH  25  26
ATOM     26  O   UNL     1       3.253  14.631  22.505  0.00  0.00    +0.000 OA
ATOM     27  H   UNL     1       3.089  15.245  23.241  0.00  0.00    +0.000 HD
ENDBRANCH  25  26
BRANCH  25  28
ATOM     28  C   UNL     1       2.331  13.810  20.424  0.00  0.00    +0.000 C 
BRANCH  28  29
ATOM     29  C   UNL     1       2.461  14.346  18.993  0.00  0.00    +0.000 C 
BRANCH  29  30
ATOM     30  O   UNL     1       1.259  15.061  18.683  0.00  0.00    +0.000 OA
ATOM     31  H   UNL     1       1.302  15.330  17.749  0.00  0.00    +0.000 HD
ENDBRANCH  29  30
BRANCH  29  32
ATOM     32  C   UNL     1       3.666  15.264  18.819  0.00  0.00    +0.000 C 
BRANCH  32  33
ATOM     33  C   UNL     1       3.215  16.588  18.237  0.00  0.00    +0.000 C 
ATOM     34  O   UNL     1       3.009  17.504  19.093  0.00  0.00    +0.000 OA
ATOM     35  O   UNL     1       3.089  16.654  16.991  0.00  0.00    +0.000 OA
ENDBRANCH  32  33
ENDBRANCH  29  32
ENDBRANCH  28  29
ENDBRANCH  25  28
ENDBRANCH  24  25
ENDBRANCH   1  23
TORSDOF 11
ENDMDL
MODEL 3
REMARK VINA RESULT:      -6.2      0.593      1.334
REMARK  Name = 
REMARK  12 active torsions:
REMARK  status: ('A' for Active; 'I' for Inactive)
REMARK    1  A    between atoms: C_1  and  N_2
REMARK    2  A    between atoms: C_6  and  C_7
REMARK    3  A    between atoms: C_7  and  C_8
REMARK    4  A    between atoms: C_9  and  C_10
REMARK    5  A    between atoms: C_10  and  O_11
REMARK    6  A    between atoms: C_10  and  C_12
REMARK    7  A    between atoms: C_12  and  C_13
REMARK    8  A    between atoms: C_13  and  O_14
REMARK    9  A    between atoms: C_13  and  C_15
REMARK   10  A    between atoms: C_15  and  C_16
REMARK   11  A    between atoms: C_19  and  C_20
REMARK   12  A    between atoms: C_19  and  C_27
REMARK                            x       y       z     vdW  Elec       q    Type
REMARK                         _______ _______ _______ _____ _____    ______ ____
ROOT
ATOM      1  C   UNL     1      -1.124  13.835  22.461  0.00  0.00    +0.000 C 
ATOM      2  C   UNL     1      -1.837  12.670  22.518  0.00  0.00    +0.000 C 
ENDROOT
BRANCH   2   3
ATOM      3  C   UNL     1      -3.280  12.639  22.839  0.00  0.00    +0.000 A 
ATOM      4  C   UNL     1      -3.696  12.523  24.175  0.00  0.00    +0.000 A 
ATOM      5  C   UNL     1      -5.052  12.558  24.492  0.00  0.00    +0.000 A 
ATOM      6  C   UNL     1      -5.986  12.714  23.474  0.00  0.00    +0.000 A 
ATOM      7  F   UNL     1      -7.290  12.749  23.776  0.00  0.00    +0.000 F 
ATOM      8  C   UNL     1      -5.588  12.855  22.149  0.00  0.00    +0.000 A 
ATOM      9  C   UNL     1      -4.230  12.828  21.829  0.00  0.00    +0.000 A 
ENDBRANCH   2   3
BRANCH   2  10
ATOM     10  C   UNL     1      -1.173  11.363  22.173  0.00  0.00    +0.000 A 
ATOM     11  C   UNL     1      -0.846  10.441  23.182  0.00  0.00    +0.000 A 
ATOM     12  C   UNL     1      -0.285   9.204  22.851  0.00  0.00    +0.000 A 
ATOM     13  C   UNL     1      -0.047   8.888  21.519  0.00  0.00    +0.000 A 
ATOM     14  F   UNL     1       0.478   7.694  21.205  0.00  0.00    +0.000 F 
ATOM     15  C   UNL     1      -0.353   9.790  20.507  0.00  0.00    +0.000 A 
ATOM     16  C   UNL     1      -0.917  11.026  20.830  0.00  0.00    +0.000 A 
ENDBRANCH   2  10
BRANCH   1  22
ATOM     17  C   UNL     1      -1.647  15.398  25.176  0.00  0.00    +0.000 C 
ATOM     18  N   UNL     1      -1.898  15.779  23.814  0.00  0.00    +0.000 N 
ATOM     19  N   UNL     1      -2.391  17.015  23.582  0.00  0.00    +0.000 NA
ATOM     20  N   UNL     1      -2.636  17.063  22.287  0.00  0.00    +0.000 NA
ATOM     21  N   UNL     1      -2.243  15.907  21.674  0.00  0.00    +0.000 NA
ATOM     22  C   UNL     1      -1.783  15.102  22.625  0.00  0.00    +0.000 A 
ENDBRANCH   1  22
BRANCH   1  23
ATOM     23  C   UNL     1       0.213  13.818  21.872  0.00  0.00    +0.000 C 
ATOM     24  C   UNL     1       1.177  14.741  22.003  0.00  0.00    +0.000 C 
BRANCH  24  25
ATOM     25  C   UNL     1       2.492  14.631  21.271  0.00  0.00    +0.000 C 
BRANCH  25  26
ATOM     26  O   UNL     1       3.511  14.480  22.263  0.00  0.00    +0.000 OA
ATOM     27  H   UNL     1       3.930  13.615  22.117  0.00  0.00    +0.000 HD
ENDBRANCH  25  26
BRANCH  25  28
ATOM     28  C   UNL     1       2.555  13.444  20.296  0.00  0.00    +0.000 C 
BRANCH  28  29
ATOM     29  C   UNL     1       2.658  13.862  18.825  0.00  0.00    +0.000 C 
BRANCH  29  30
ATOM     30  O   UNL     1       1.736  13.060  18.077  0.00  0.00    +0.000 OA
ATOM     31  H   UNL     1       1.004  13.633  17.790  0.00  0.00    +0.000 HD
ENDBRANCH  29  30
BRANCH  29  32
ATOM     32  C   UNL     1       2.347  15.339  18.613  0.00  0.00    +0.000 C 
BRANCH  32  33
ATOM     33  C   UNL     1       3.524  16.013  17.938  0.00  0.00    +0.000 C 
ATOM     34  O   UNL     1       3.474  17.282  17.922  0.00  0.00    +0.000 OA
ATOM     35  O   UNL     1       4.418  15.271  17.467  0.00  0.00    +0.000 OA
ENDBRANCH  32  33
ENDBRANCH  29  32
ENDBRANCH  28  29
ENDBRANCH  25  28
ENDBRANCH  24  25
ENDBRANCH   1  23
TORSDOF 11
ENDMDL
MODEL 4
REMARK VINA RESULT:      -6.1      0.540      1.404
REMARK  Name = 
REMARK  12 active torsions:
REMARK  status: ('A' for Active; 'I' for Inactive)
REMARK    1  A    between atoms: C_1  and  N_2
REMARK    2  A    between atoms: C_6  and  C_7
REMARK    3  A    between atoms: C_7  and  C_8
REMARK    4  A    between atoms: C_9  and  C_10
REMARK    5  A    between atoms: C_10  and  O_11
REMARK    6  A    between atoms: C_10  and  C_12
REMARK    7  A    between atoms: C_12  and  C_13
REMARK    8  A    between atoms: C_13  and  O_14
REMARK    9  A    between atoms: C_13  and  C_15
REMARK   10  A    between atoms: C_15  and  C_16
REMARK   11  A    between atoms: C_19  and  C_20
REMARK   12  A    between atoms: C_19  and  C_27
REMARK                            x       y       z     vdW  Elec       q    Type
REMARK                         _______ _______ _______ _____ _____    ______ ____
ROOT
ATOM      1  C   UNL     1      -1.033  14.019  22.619  0.00  0.00    +0.000 C 
ATOM      2  C   UNL     1      -1.785  12.877  22.579  0.00  0.00    +0.000 C 
ENDROOT
BRANCH   2   3
ATOM      3  C   UNL     1      -3.241  12.877  22.838  0.00  0.00    +0.000 A 
ATOM      4  C   UNL     1      -4.141  12.943  21.761  0.00  0.00    +0.000 A 
ATOM      5  C   UNL     1      -5.513  12.879  21.991  0.00  0.00    +0.000 A 
ATOM      6  C   UNL     1      -5.981  12.745  23.294  0.00  0.00    +0.000 A 
ATOM      7  F   UNL     1      -7.300  12.683  23.517  0.00  0.00    +0.000 F 
ATOM      8  C   UNL     1      -5.101  12.655  24.367  0.00  0.00    +0.000 A 
ATOM      9  C   UNL     1      -3.726  12.710  24.139  0.00  0.00    +0.000 A 
ENDBRANCH   2   3
BRANCH   2  10
ATOM     10  C   UNL     1      -1.148  11.569  22.188  0.00  0.00    +0.000 A 
ATOM     11  C   UNL     1      -0.861  10.597  23.162  0.00  0.00    +0.000 A 
ATOM     12  C   UNL     1      -0.327   9.362  22.786  0.00  0.00    +0.000 A 
ATOM     13  C   UNL     1      -0.074   9.096  21.446  0.00  0.00    +0.000 A 
ATOM     14  F   UNL     1       0.426   7.905  21.088  0.00  0.00    +0.000 F 
ATOM     15  C   UNL     1      -0.340  10.049  20.469  0.00  0.00    +0.000 A 
ATOM     16  C   UNL     1      -0.878  11.284  20.837  0.00  0.00    +0.000 A 
ENDBRANCH   2  10
BRANCH   1  22
ATOM     17  C   UNL     1      -2.177  15.985  20.403  0.00  0.00    +0.000 C 
ATOM     18  N   UNL     1      -2.223  16.063  21.836  0.00  0.00    +0.000 N 
ATOM     19  N   UNL     1      -2.894  17.095  22.394  0.00  0.00    +0.000 NA
ATOM     20  N   UNL     1      -2.684  16.996  23.693  0.00  0.00    +0.000 NA
ATOM     21  N   UNL     1      -1.951  15.879  23.983  0.00  0.00    +0.000 NA
ATOM     22  C   UNL     1      -1.660  15.296  22.826  0.00  0.00    +0.000 A 
ENDBRANCH   1  22
BRANCH   1  23
ATOM     23  C   UNL     1       0.326  13.989  22.085  0.00  0.00    +0.000 C 
ATOM     24  C   UNL     1       1.223  14.986  22.075  0.00  0.00    +0.000 C 
BRANCH  24  25
ATOM     25  C   UNL     1       2.573  14.838  21.417  0.00  0.00    +0.000 C 
BRANCH  25  26
ATOM     26  O   UNL     1       3.469  14.335  22.412  0.00  0.00    +0.000 OA
ATOM     27  H   UNL     1       3.514  14.998  23.122  0.00  0.00    +0.000 HD
ENDBRANCH  25  26
BRANCH  25  28
ATOM     28  C   UNL     1       2.568  13.884  20.212  0.00  0.00    +0.000 C 
BRANCH  28  29
ATOM     29  C   UNL     1       2.915  14.569  18.885  0.00  0.00    +0.000 C 
BRANCH  29  30
ATOM     30  O   UNL     1       2.960  13.558  17.870  0.00  0.00    +0.000 OA
ATOM     31  H   UNL     1       3.893  13.382  17.663  0.00  0.00    +0.000 HD
ENDBRANCH  29  30
BRANCH  29  32
ATOM     32  C   UNL     1       1.906  15.644  18.499  0.00  0.00    +0.000 C 
BRANCH  32  33
ATOM     33  C   UNL     1       2.626  16.957  18.269  0.00  0.00    +0.000 C 
ATOM     34  O   UNL     1       2.854  17.631  19.321  0.00  0.00    +0.000 OA
ATOM     35  O   UNL     1       2.922  17.250  17.086  0.00  0.00    +0.000 OA
ENDBRANCH  32  33
ENDBRANCH  29  32
ENDBRANCH  28  29
ENDBRANCH  25  28
ENDBRANCH  24  25
ENDBRANCH   1  23
TORSDOF 11
ENDMDL
MODEL 5
REMARK VINA RESULT:      -6.1      3.972      7.093
REMARK  Name = 
REMARK  12 active torsions:
REMARK  status: ('A' for Active; 'I' for Inactive)
REMARK    1  A    between atoms: C_1  and  N_2
REMARK    2  A    between atoms: C_6  and  C_7
REMARK    3  A    between atoms: C_7  and  C_8
REMARK    4  A    between atoms: C_9  and  C_10
REMARK    5  A    between atoms: C_10  and  O_11
REMARK    6  A    between atoms: C_10  and  C_12
REMARK    7  A    between atoms: C_12  and  C_13
REMARK    8  A    between atoms: C_13  and  O_14
REMARK    9  A    between atoms: C_13  and  C_15
REMARK   10  A    between atoms: C_15  and  C_16
REMARK   11  A    between atoms: C_19  and  C_20
REMARK   12  A    between atoms: C_19  and  C_27
REMARK                            x       y       z     vdW  Elec       q    Type
REMARK                         _______ _______ _______ _____ _____    ______ ____
ROOT
ATOM      1  C   UNL     1       0.048  13.236  19.608  0.00  0.00    +0.000 C 
ATOM      2  C   UNL     1      -0.404  12.029  19.151  0.00  0.00    +0.000 C 
ENDROOT
BRANCH   2   3
ATOM      3  C   UNL     1       0.442  10.815  19.151  0.00  0.00    +0.000 A 
ATOM      4  C   UNL     1       0.382   9.923  20.234  0.00  0.00    +0.000 A 
ATOM      5  C   UNL     1       1.127   8.746  20.213  0.00  0.00    +0.000 A 
ATOM      6  C   UNL     1       1.923   8.463  19.108  0.00  0.00    +0.000 A 
ATOM      7  F   UNL     1       2.639   7.332  19.086  0.00  0.00    +0.000 F 
ATOM      8  C   UNL     1       1.973   9.325  18.019  0.00  0.00    +0.000 A 
ATOM      9  C   UNL     1       1.223  10.501  18.033  0.00  0.00    +0.000 A 
ENDBRANCH   2   3
BRANCH   2  10
ATOM     10  C   UNL     1      -1.832  11.882  18.695  0.00  0.00    +0.000 A 
ATOM     11  C   UNL     1      -2.122  11.429  17.396  0.00  0.00    +0.000 A 
ATOM     12  C   UNL     1      -3.448  11.237  16.999  0.00  0.00    +0.000 A 
ATOM     13  C   UNL     1      -4.482  11.499  17.889  0.00  0.00    +0.000 A 
ATOM     14  F   UNL     1      -5.752  11.299  17.509  0.00  0.00    +0.000 F 
ATOM     15  C   UNL     1      -4.215  11.958  19.174  0.00  0.00    +0.000 A 
ATOM     16  C   UNL     1      -2.893  12.149  19.579  0.00  0.00    +0.000 A 
ENDBRANCH   2  10
BRANCH   1  22
ATOM     17  C   UNL     1       2.742  14.115  18.175  0.00  0.00    +0.000 C 
ATOM     18  N   UNL     1       2.468  13.827  19.556  0.00  0.00    +0.000 N 
ATOM     19  N   UNL     1       3.468  13.988  20.449  0.00  0.00    +0.000 NA
ATOM     20  N   UNL     1       2.993  13.551  21.599  0.00  0.00    +0.000 NA
ATOM     21  N   UNL     1       1.684  13.181  21.475  0.00  0.00    +0.000 NA
ATOM     22  C   UNL     1       1.353  13.350  20.200  0.00  0.00    +0.000 A 
ENDBRANCH   1  22
BRANCH   1  23
ATOM     23  C   UNL     1      -0.916  14.310  19.838  0.00  0.00    +0.000 C 
ATOM     24  C   UNL     1      -1.059  15.058  20.941  0.00  0.00    +0.000 C 
BRANCH  24  25
ATOM     25  C   UNL     1      -2.155  16.089  21.071  0.00  0.00    +0.000 C 
BRANCH  25  26
ATOM     26  O   UNL     1      -3.085  15.843  20.012  0.00  0.00    +0.000 OA
ATOM     27  H   UNL     1      -2.671  16.150  19.187  0.00  0.00    +0.000 HD
ENDBRANCH  25  26
BRANCH  25  28
ATOM     28  C   UNL     1      -2.894  16.033  22.417  0.00  0.00    +0.000 C 
BRANCH  28  29
ATOM     29  C   UNL     1      -2.681  14.720  23.180  0.00  0.00    +0.000 C 
BRANCH  29  30
ATOM     30  O   UNL     1      -2.868  14.990  24.575  0.00  0.00    +0.000 OA
ATOM     31  H   UNL     1      -2.084  14.667  25.050  0.00  0.00    +0.000 HD
ENDBRANCH  29  30
BRANCH  29  32
ATOM     32  C   UNL     1      -3.641  13.622  22.735  0.00  0.00    +0.000 C 
BRANCH  32  33
ATOM     33  C   UNL     1      -3.388  12.368  23.546  0.00  0.00    +0.000 C 
ATOM     34  O   UNL     1      -2.319  11.748  23.251  0.00  0.00    +0.000 OA
ATOM     35  O   UNL     1      -4.240  12.065  24.415  0.00  0.00    +0.000 OA
ENDBRANCH  32  33
ENDBRANCH  29  32
ENDBRANCH  28  29
ENDBRANCH  25  28
ENDBRANCH  24  25
ENDBRANCH   1  23
TORSDOF 11
ENDMDL
MODEL 6
REMARK VINA RESULT:      -6.0      0.960      1.412
REMARK  Name = 
REMARK  12 active torsions:
REMARK  status: ('A' for Active; 'I' for Inactive)
REMARK    1  A    between atoms: C_1  and  N_2
REMARK    2  A    between atoms: C_6  and  C_7
REMARK    3  A    between atoms: C_7  and  C_8
REMARK    4  A    between atoms: C_9  and  C_10
REMARK    5  A    between atoms: C_10  and  O_11
REMARK    6  A    between atoms: C_10  and  C_12
REMARK    7  A    between atoms: C_12  and  C_13
REMARK    8  A    between atoms: C_13  and  O_14
REMARK    9  A    between atoms: C_13  and  C_15
REMARK   10  A    between atoms: C_15  and  C_16
REMARK   11  A    between atoms: C_19  and  C_20
REMARK   12  A    between atoms: C_19  and  C_27
REMARK                            x       y       z     vdW  Elec       q    Type
REMARK                         _______ _______ _______ _____ _____    ______ ____
ROOT
ATOM      1  C   UNL     1      -1.355  13.951  22.874  0.00  0.00    +0.000 C 
ATOM      2  C   UNL     1      -2.056  12.782  22.759  0.00  0.00    +0.000 C 
ENDROOT
BRANCH   2   3
ATOM      3  C   UNL     1      -3.514  12.706  23.000  0.00  0.00    +0.000 A 
ATOM      4  C   UNL     1      -3.996  12.536  24.308  0.00  0.00    +0.000 A 
ATOM      5  C   UNL     1      -5.368  12.527  24.553  0.00  0.00    +0.000 A 
ATOM      6  C   UNL     1      -6.250  12.693  23.491  0.00  0.00    +0.000 A 
ATOM      7  F   UNL     1      -7.569  12.686  23.724  0.00  0.00    +0.000 F 
ATOM      8  C   UNL     1      -5.786  12.887  22.195  0.00  0.00    +0.000 A 
ATOM      9  C   UNL     1      -4.413  12.904  21.948  0.00  0.00    +0.000 A 
ENDBRANCH   2   3
BRANCH   2  10
ATOM     10  C   UNL     1      -1.360  11.528  22.299  0.00  0.00    +0.000 A 
ATOM     11  C   UNL     1      -1.062  11.337  20.939  0.00  0.00    +0.000 A 
ATOM     12  C   UNL     1      -0.362  10.201  20.525  0.00  0.00    +0.000 A 
ATOM     13  C   UNL     1       0.037   9.255  21.461  0.00  0.00    +0.000 A 
ATOM     14  F   UNL     1       0.721   8.173  21.062  0.00  0.00    +0.000 F 
ATOM     15  C   UNL     1      -0.258   9.421  22.810  0.00  0.00    +0.000 A 
ATOM     16  C   UNL     1      -0.954  10.555  23.231  0.00  0.00    +0.000 A 
ENDBRANCH   2  10
BRANCH   1  22
ATOM     17  C   UNL     1      -1.724  15.359  25.697  0.00  0.00    +0.000 C 
ATOM     18  N   UNL     1      -2.084  15.799  24.378  0.00  0.00    +0.000 N 
ATOM     19  N   UNL     1      -2.628  17.028  24.246  0.00  0.00    +0.000 NA
ATOM     20  N   UNL     1      -2.969  17.133  22.976  0.00  0.00    +0.000 NA
ATOM     21  N   UNL     1      -2.588  16.022  22.277  0.00  0.00    +0.000 NA
ATOM     22  C   UNL     1      -2.037  15.186  23.150  0.00  0.00    +0.000 A 
ENDBRANCH   1  22
BRANCH   1  23
ATOM     23  C   UNL     1       0.009  14.011  22.355  0.00  0.00    +0.000 C 
ATOM     24  C   UNL     1       0.426  14.581  21.215  0.00  0.00    +0.000 C 
BRANCH  24  25
ATOM     25  C   UNL     1       1.864  14.501  20.762  0.00  0.00    +0.000 C 
BRANCH  25  26
ATOM     26  O   UNL     1       2.357  13.220  21.165  0.00  0.00    +0.000 OA
ATOM     27  H   UNL     1       2.775  13.333  22.036  0.00  0.00    +0.000 HD
ENDBRANCH  25  26
BRANCH  25  28
ATOM     28  C   UNL     1       2.037  14.655  19.243  0.00  0.00    +0.000 C 
BRANCH  28  29
ATOM     29  C   UNL     1       2.810  15.916  18.838  0.00  0.00    +0.000 C 
BRANCH  29  30
ATOM     30  O   UNL     1       3.010  15.870  17.420  0.00  0.00    +0.000 OA
ATOM     31  H   UNL     1       3.574  16.622  17.172  0.00  0.00    +0.000 HD
ENDBRANCH  29  30
BRANCH  29  32
ATOM     32  C   UNL     1       2.074  17.198  19.213  0.00  0.00    +0.000 C 
BRANCH  32  33
ATOM     33  C   UNL     1       1.207  17.643  18.054  0.00  0.00    +0.000 C 
ATOM     34  O   UNL     1       1.736  18.515  17.296  0.00  0.00    +0.000 OA
ATOM     35  O   UNL     1       0.071  17.121  17.953  0.00  0.00    +0.000 OA
ENDBRANCH  32  33
ENDBRANCH  29  32
ENDBRANCH  28  29
ENDBRANCH  25  28
ENDBRANCH  24  25
ENDBRANCH   1  23
TORSDOF 11
ENDMDL
MODEL 7
REMARK VINA RESULT:      -6.0      0.941      1.258
REMARK  Name = 
REMARK  12 active torsions:
REMARK  status: ('A' for Active; 'I' for Inactive)
REMARK    1  A    between atoms: C_1  and  N_2
REMARK    2  A    between atoms: C_6  and  C_7
REMARK    3  A    between atoms: C_7  and  C_8
REMARK    4  A    between atoms: C_9  and  C_10
REMARK    5  A    between atoms: C_10  and  O_11
REMARK    6  A    between atoms: C_10  and  C_12
REMARK    7  A    between atoms: C_12  and  C_13
REMARK    8  A    between atoms: C_13  and  O_14
REMARK    9  A    between atoms: C_13  and  C_15
REMARK   10  A    between atoms: C_15  and  C_16
REMARK   11  A    between atoms: C_19  and  C_20
REMARK   12  A    between atoms: C_19  and  C_27
REMARK                            x       y       z     vdW  Elec       q    Type
REMARK                         _______ _______ _______ _____ _____    ______ ____
ROOT
ATOM      1  C   UNL     1      -1.369  14.118  22.805  0.00  0.00    +0.000 C 
ATOM      2  C   UNL     1      -2.077  12.948  22.760  0.00  0.00    +0.000 C 
ENDROOT
BRANCH   2   3
ATOM      3  C   UNL     1      -3.510  12.875  23.117  0.00  0.00    +0.000 A 
ATOM      4  C   UNL     1      -4.486  13.030  22.119  0.00  0.00    +0.000 A 
ATOM      5  C   UNL     1      -5.837  12.898  22.435  0.00  0.00    +0.000 A 
ATOM      6  C   UNL     1      -6.206  12.608  23.744  0.00  0.00    +0.000 A 
ATOM      7  F   UNL     1      -7.503  12.481  24.050  0.00  0.00    +0.000 F 
ATOM      8  C   UNL     1      -5.249  12.428  24.737  0.00  0.00    +0.000 A 
ATOM      9  C   UNL     1      -3.895  12.551  24.422  0.00  0.00    +0.000 A 
ENDBRANCH   2   3
BRANCH   2  10
ATOM     10  C   UNL     1      -1.418  11.689  22.263  0.00  0.00    +0.000 A 
ATOM     11  C   UNL     1      -1.135  11.525  20.896  0.00  0.00    +0.000 A 
ATOM     12  C   UNL     1      -0.469  10.381  20.448  0.00  0.00    +0.000 A 
ATOM     13  C   UNL     1      -0.090   9.401  21.356  0.00  0.00    +0.000 A 
ATOM     14  F   UNL     1       0.562   8.311  20.924  0.00  0.00    +0.000 F 
ATOM     15  C   UNL     1      -0.370   9.539  22.711  0.00  0.00    +0.000 A 
ATOM     16  C   UNL     1      -1.032  10.681  23.166  0.00  0.00    +0.000 A 
ENDBRANCH   2  10
BRANCH   1  22
ATOM     17  C   UNL     1      -1.678  15.467  25.663  0.00  0.00    +0.000 C 
ATOM     18  N   UNL     1      -2.050  15.942  24.360  0.00  0.00    +0.000 N 
ATOM     19  N   UNL     1      -2.576  17.182  24.263  0.00  0.00    +0.000 NA
ATOM     20  N   UNL     1      -2.932  17.321  23.001  0.00  0.00    +0.000 NA
ATOM     21  N   UNL     1      -2.578  16.221  22.271  0.00  0.00    +0.000 NA
ATOM     22  C   UNL     1      -2.029  15.357  23.117  0.00  0.00    +0.000 A 
ENDBRANCH   1  22
BRANCH   1  23
ATOM     23  C   UNL     1      -0.051  14.171  22.178  0.00  0.00    +0.000 C 
ATOM     24  C   UNL     1       0.849  15.163  22.248  0.00  0.00    +0.000 C 
BRANCH  24  25
ATOM     25  C   UNL     1       2.149  15.117  21.483  0.00  0.00    +0.000 C 
BRANCH  25  26
ATOM     26  O   UNL     1       3.095  14.433  22.310  0.00  0.00    +0.000 OA
ATOM     27  H   UNL     1       3.857  14.207  21.750  0.00  0.00    +0.000 HD
ENDBRANCH  25  26
BRANCH  25  28
ATOM     28  C   UNL     1       2.041  14.392  20.132  0.00  0.00    +0.000 C 
BRANCH  28  29
ATOM     29  C   UNL     1       2.723  15.137  18.979  0.00  0.00    +0.000 C 
BRANCH  29  30
ATOM     30  O   UNL     1       2.970  16.480  19.412  0.00  0.00    +0.000 OA
ATOM     31  H   UNL     1       3.073  16.470  20.378  0.00  0.00    +0.000 HD
ENDBRANCH  29  30
BRANCH  29  32
ATOM     32  C   UNL     1       4.032  14.483  18.553  0.00  0.00    +0.000 C 
BRANCH  32  33
ATOM     33  C   UNL     1       5.197  15.230  19.171  0.00  0.00    +0.000 C 
ATOM     34  O   UNL     1       5.455  14.913  20.374  0.00  0.00    +0.000 OA
ATOM     35  O   UNL     1       5.784  16.074  18.453  0.00  0.00    +0.000 OA
ENDBRANCH  32  33
ENDBRANCH  29  32
ENDBRANCH  28  29
ENDBRANCH  25  28
ENDBRANCH  24  25
ENDBRANCH   1  23
TORSDOF 11
ENDMDL
MODEL 8
REMARK VINA RESULT:      -6.0      3.601      5.749
REMARK  Name = 
REMARK  12 active torsions:
REMARK  status: ('A' for Active; 'I' for Inactive)
REMARK    1  A    between atoms: C_1  and  N_2
REMARK    2  A    between atoms: C_6  and  C_7
REMARK    3  A    between atoms: C_7  and  C_8
REMARK    4  A    between atoms: C_9  and  C_10
REMARK    5  A    between atoms: C_10  and  O_11
REMARK    6  A    between atoms: C_10  and  C_12
REMARK    7  A    between atoms: C_12  and  C_13
REMARK    8  A    between atoms: C_13  and  O_14
REMARK    9  A    between atoms: C_13  and  C_15
REMARK   10  A    between atoms: C_15  and  C_16
REMARK   11  A    between atoms: C_19  and  C_20
REMARK   12  A    between atoms: C_19  and  C_27
REMARK                            x       y       z     vdW  Elec       q    Type
REMARK                         _______ _______ _______ _____ _____    ______ ____
ROOT
ATOM      1  C   UNL     1      -2.735  13.383  21.827  0.00  0.00    +0.000 C 
ATOM      2  C   UNL     1      -1.912  14.459  22.011  0.00  0.00    +0.000 C 
ENDROOT
BRANCH   2   3
ATOM      3  C   UNL     1      -1.974  15.307  23.222  0.00  0.00    +0.000 A 
ATOM      4  C   UNL     1      -1.213  14.966  24.352  0.00  0.00    +0.000 A 
ATOM      5  C   UNL     1      -1.216  15.794  25.473  0.00  0.00    +0.000 A 
ATOM      6  C   UNL     1      -1.975  16.959  25.458  0.00  0.00    +0.000 A 
ATOM      7  F   UNL     1      -1.979  17.756  26.534  0.00  0.00    +0.000 F 
ATOM      8  C   UNL     1      -2.714  17.320  24.336  0.00  0.00    +0.000 A 
ATOM      9  C   UNL     1      -2.707  16.498  23.210  0.00  0.00    +0.000 A 
ENDBRANCH   2   3
BRANCH   2  10
ATOM     10  C   UNL     1      -0.843  14.771  20.997  0.00  0.00    +0.000 A 
ATOM     11  C   UNL     1      -1.116  15.625  19.914  0.00  0.00    +0.000 A 
ATOM     12  C   UNL     1      -0.103  15.960  19.011  0.00  0.00    +0.000 A 
ATOM     13  C   UNL     1       1.175  15.444  19.181  0.00  0.00    +0.000 A 
ATOM     14  F   UNL     1       2.147  15.779  18.320  0.00  0.00    +0.000 F 
ATOM     15  C   UNL     1       1.462  14.589  20.240  0.00  0.00    +0.000 A 
ATOM     16  C   UNL     1       0.457  14.253  21.148  0.00  0.00    +0.000 A 
ENDBRANCH   2  10
BRANCH   1  22
ATOM     17  C   UNL     1      -5.753  14.295  22.207  0.00  0.00    +0.000 C 
ATOM     18  N   UNL     1      -4.971  13.328  22.925  0.00  0.00    +0.000 N 
ATOM     19  N   UNL     1      -5.579  12.620  23.902  0.00  0.00    +0.000 NA
ATOM     20  N   UNL     1      -4.627  11.904  24.468  0.00  0.00    +0.000 NA
ATOM     21  N   UNL     1      -3.434  12.086  23.826  0.00  0.00    +0.000 NA
ATOM     22  C   UNL     1      -3.645  12.976  22.863  0.00  0.00    +0.000 A 
ENDBRANCH   1  22
BRANCH   1  23
ATOM     23  C   UNL     1      -2.434  12.437  20.756  0.00  0.00    +0.000 C 
ATOM     24  C   UNL     1      -3.016  12.352  19.551  0.00  0.00    +0.000 C 
BRANCH  24  25
ATOM     25  C   UNL     1      -2.654  11.269  18.563  0.00  0.00    +0.000 C 
BRANCH  25  26
ATOM     26  O   UNL     1      -3.534  11.415  17.445  0.00  0.00    +0.000 OA
ATOM     27  H   UNL     1      -4.084  10.614  17.404  0.00  0.00    +0.000 HD
ENDBRANCH  25  26
BRANCH  25  28
ATOM     28  C   UNL     1      -1.199  11.345  18.076  0.00  0.00    +0.000 C 
BRANCH  28  29
ATOM     29  C   UNL     1      -0.297  10.253  18.663  0.00  0.00    +0.000 C 
BRANCH  29  30
ATOM     30  O   UNL     1       0.451   9.676  17.586  0.00  0.00    +0.000 OA
ATOM     31  H   UNL     1       1.276  10.182  17.489  0.00  0.00    +0.000 HD
ENDBRANCH  29  30
BRANCH  29  32
ATOM     32  C   UNL     1       0.658  10.791  19.723  0.00  0.00    +0.000 C 
BRANCH  32  33
ATOM     33  C   UNL     1       0.302  10.200  21.073  0.00  0.00    +0.000 C 
ATOM     34  O   UNL     1      -0.287   9.076  21.024  0.00  0.00    +0.000 OA
ATOM     35  O   UNL     1       0.614  10.864  22.090  0.00  0.00    +0.000 OA
ENDBRANCH  32  33
ENDBRANCH  29  32
ENDBRANCH  28  29
ENDBRANCH  25  28
ENDBRANCH  24  25
ENDBRANCH   1  23
TORSDOF 11
ENDMDL
MODEL 9
REMARK VINA RESULT:      -6.0      4.188      7.094
REMARK  Name = 
REMARK  12 active torsions:
REMARK  status: ('A' for Active; 'I' for Inactive)
REMARK    1  A    between atoms: C_1  and  N_2
REMARK    2  A    between atoms: C_6  and  C_7
REMARK    3  A    between atoms: C_7  and  C_8
REMARK    4  A    between atoms: C_9  and  C_10
REMARK    5  A    between atoms: C_10  and  O_11
REMARK    6  A    between atoms: C_10  and  C_12
REMARK    7  A    between atoms: C_12  and  C_13
REMARK    8  A    between atoms: C_13  and  O_14
REMARK    9  A    between atoms: C_13  and  C_15
REMARK   10  A    between atoms: C_15  and  C_16
REMARK   11  A    between atoms: C_19  and  C_20
REMARK   12  A    between atoms: C_19  and  C_27
REMARK                            x       y       z     vdW  Elec       q    Type
REMARK                         _______ _______ _______ _____ _____    ______ ____
ROOT
ATOM      1  C   UNL     1      -0.162  13.244  19.557  0.00  0.00    +0.000 C 
ATOM      2  C   UNL     1      -0.715  12.023  19.281  0.00  0.00    +0.000 C 
ENDROOT
BRANCH   2   3
ATOM      3  C   UNL     1       0.014  10.755  19.502  0.00  0.00    +0.000 A 
ATOM      4  C   UNL     1       0.878  10.266  18.510  0.00  0.00    +0.000 A 
ATOM      5  C   UNL     1       1.618   9.106  18.735  0.00  0.00    +0.000 A 
ATOM      6  C   UNL     1       1.493   8.445  19.953  0.00  0.00    +0.000 A 
ATOM      7  F   UNL     1       2.203   7.331  20.172  0.00  0.00    +0.000 F 
ATOM      8  C   UNL     1       0.660   8.933  20.953  0.00  0.00    +0.000 A 
ATOM      9  C   UNL     1      -0.076  10.097  20.733  0.00  0.00    +0.000 A 
ENDBRANCH   2   3
BRANCH   2  10
ATOM     10  C   UNL     1      -2.141  11.933  18.805  0.00  0.00    +0.000 A 
ATOM     11  C   UNL     1      -2.430  11.506  17.498  0.00  0.00    +0.000 A 
ATOM     12  C   UNL     1      -3.757  11.365  17.081  0.00  0.00    +0.000 A 
ATOM     13  C   UNL     1      -4.792  11.653  17.961  0.00  0.00    +0.000 A 
ATOM     14  F   UNL     1      -6.064  11.503  17.562  0.00  0.00    +0.000 F 
ATOM     15  C   UNL     1      -4.527  12.088  19.255  0.00  0.00    +0.000 A 
ATOM     16  C   UNL     1      -3.204  12.227  19.679  0.00  0.00    +0.000 A 
ENDBRANCH   2  10
BRANCH   1  22
ATOM     17  C   UNL     1       2.622  13.709  18.103  0.00  0.00    +0.000 C 
ATOM     18  N   UNL     1       2.298  13.633  19.500  0.00  0.00    +0.000 N 
ATOM     19  N   UNL     1       3.291  13.834  20.394  0.00  0.00    +0.000 NA
ATOM     20  N   UNL     1       2.759  13.595  21.577  0.00  0.00    +0.000 NA
ATOM     21  N   UNL     1       1.426  13.314  21.464  0.00  0.00    +0.000 NA
ATOM     22  C   UNL     1       1.135  13.334  20.168  0.00  0.00    +0.000 A 
ENDBRANCH   1  22
BRANCH   1  23
ATOM     23  C   UNL     1      -1.026  14.421  19.581  0.00  0.00    +0.000 C 
ATOM     24  C   UNL     1      -1.275  15.233  20.619  0.00  0.00    +0.000 C 
BRANCH  24  25
ATOM     25  C   UNL     1      -2.255  16.377  20.522  0.00  0.00    +0.000 C 
BRANCH  25  26
ATOM     26  O   UNL     1      -2.159  16.896  19.192  0.00  0.00    +0.000 OA
ATOM     27  H   UNL     1      -1.374  16.493  18.782  0.00  0.00    +0.000 HD
ENDBRANCH  25  26
BRANCH  25  28
ATOM     28  C   UNL     1      -3.709  15.964  20.800  0.00  0.00    +0.000 C 
BRANCH  28  29
ATOM     29  C   UNL     1      -3.865  15.048  22.019  0.00  0.00    +0.000 C 
BRANCH  29  30
ATOM     30  O   UNL     1      -3.685  15.848  23.194  0.00  0.00    +0.000 OA
ATOM     31  H   UNL     1      -4.564  16.062  23.549  0.00  0.00    +0.000 HD
ENDBRANCH  29  30
BRANCH  29  32
ATOM     32  C   UNL     1      -5.225  14.362  22.066  0.00  0.00    +0.000 C 
BRANCH  32  33
ATOM     33  C   UNL     1      -5.644  14.163  23.508  0.00  0.00    +0.000 C 
ATOM     34  O   UNL     1      -5.029  13.233  24.118  0.00  0.00    +0.000 OA
ATOM     35  O   UNL     1      -6.540  14.918  23.956  0.00  0.00    +0.000 OA
ENDBRANCH  32  33
ENDBRANCH  29  32
ENDBRANCH  28  29
ENDBRANCH  25  28
ENDBRANCH  24  25
ENDBRANCH   1  23
TORSDOF 11
ENDMDL
