MODEL 1
REMARK VINA RESULT:      -7.8      0.000      0.000
REMARK  Name = 
REMARK  12 active torsions:
REMARK  status: ('A' for Active; 'I' for Inactive)
REMARK    1  A    between atoms: C_1  and  C_2
REMARK    2  A    between atoms: C_2  and  C_3
REMARK    3  A    between atoms: C_2  and  C_4
REMARK    4  A    between atoms: C_2  and  N_5
REMARK    5  A    between atoms: C_6  and  C_8
REMARK    6  A    between atoms: C_8  and  C_9
REMARK    7  A    between atoms: C_8  and  N_15
REMARK    8  A    between atoms: N_15  and  C_28
REMARK    9  A    between atoms: C_16  and  C_18
REMARK   10  A    between atoms: C_18  and  C_19
REMARK   11  A    between atoms: C_31  and  O_32
REMARK   12  A    between atoms: O_32  and  C_33
REMARK                            x       y       z     vdW  Elec       q    Type
REMARK                         _______ _______ _______ _____ _____    ______ ____
ROOT
ATOM      1  N   UNL     1       0.278  10.707  19.311  0.00  0.00    +0.000 N 
ATOM      2  C   UNL     1      -0.805  10.801  18.416  0.00  0.00    +0.000 C 
ATOM      3  O   UNL     1      -1.039   9.947  17.552  0.00  0.00    +0.000 OA
ENDROOT
BRANCH   1   4
ATOM      4  C   UNL     1       1.120   9.546  19.212  0.00  0.00    +0.000 A 
ATOM      5  C   UNL     1       1.816   9.258  18.024  0.00  0.00    +0.000 A 
ATOM      6  C   UNL     1       2.535   8.064  17.891  0.00  0.00    +0.000 A 
ATOM      7  C   UNL     1       2.565   7.136  18.928  0.00  0.00    +0.000 A 
ATOM      8  C   UNL     1       1.868   7.409  20.104  0.00  0.00    +0.000 A 
ATOM      9  C   UNL     1       1.178   8.619  20.255  0.00  0.00    +0.000 A 
BRANCH   7  10
ATOM     10  O   UNL     1       3.264   5.989  18.674  0.00  0.00    +0.000 OA
BRANCH  10  11
ATOM     11  C   UNL     1       2.491   4.798  18.601  0.00  0.00    +0.000 C 
ATOM     12  F   UNL     1       1.580   4.933  17.602  0.00  0.00    +0.000 F 
ENDBRANCH  10  11
ENDBRANCH   7  10
ENDBRANCH   1   4
BRANCH   1  13
ATOM     13  C   UNL     1       0.741  11.828  20.185  0.00  0.00    +0.000 C 
BRANCH  13  14
ATOM     14  C   UNL     1      -0.300  12.230  21.240  0.00  0.00    +0.000 A 
ATOM     15  C   UNL     1      -0.938  11.318  22.093  0.00  0.00    +0.000 A 
ATOM     16  C   UNL     1      -1.906  11.756  22.995  0.00  0.00    +0.000 A 
ATOM     17  C   UNL     1      -2.198  13.106  23.037  0.00  0.00    +0.000 A 
ATOM     18  N   UNL     1      -1.606  14.023  22.243  0.00  0.00    +0.000 NA
ATOM     19  C   UNL     1      -0.679  13.567  21.368  0.00  0.00    +0.000 A 
ENDBRANCH  13  14
BRANCH  13  21
ATOM     20  N   UNL     1       2.485  13.679  20.199  0.00  0.00    +0.000 N 
ATOM     21  C   UNL     1       1.440  13.070  19.531  0.00  0.00    +0.000 C 
ATOM     22  O   UNL     1       1.021  13.525  18.464  0.00  0.00    +0.000 OA
ATOM     23  H   UNL     1       2.744  13.334  21.117  0.00  0.00    +0.000 HD
BRANCH  20  25
ATOM     24  C   UNL     1       3.820  14.395  18.213  0.00  0.00    +0.000 C 
ATOM     25  C   UNL     1       3.285  14.781  19.604  0.00  0.00    +0.000 C 
ATOM     26  C   UNL     1       4.458  15.169  20.529  0.00  0.00    +0.000 C 
ATOM     27  C   UNL     1       2.401  16.031  19.434  0.00  0.00    +0.000 C 
ENDBRANCH  20  25
ENDBRANCH  13  21
ENDBRANCH   1  13
BRANCH   2  28
ATOM     28  C   UNL     1      -1.832  11.909  18.606  0.00  0.00    +0.000 C 
BRANCH  28  29
ATOM     29  C   UNL     1      -3.198  11.608  18.068  0.00  0.00    +0.000 A 
ATOM     30  C   UNL     1      -3.487  11.241  16.767  0.00  0.00    +0.000 A 
ATOM     31  N   UNL     1      -4.846  11.196  16.615  0.00  0.00    +0.000 N 
ATOM     32  C   UNL     1      -5.468  11.536  17.794  0.00  0.00    +0.000 A 
ATOM     33  C   UNL     1      -6.832  11.665  18.084  0.00  0.00    +0.000 A 
ATOM     34  C   UNL     1      -7.193  12.039  19.379  0.00  0.00    +0.000 A 
ATOM     35  C   UNL     1      -6.222  12.258  20.348  0.00  0.00    +0.000 A 
ATOM     36  C   UNL     1      -4.859  12.138  20.042  0.00  0.00    +0.000 A 
ATOM     37  C   UNL     1      -4.463  11.771  18.736  0.00  0.00    +0.000 A 
ATOM     38  H   UNL     1      -5.336  10.999  15.753  0.00  0.00    +0.000 HD
ENDBRANCH  28  29
ENDBRANCH   2  28
TORSDOF 9
ENDMDL
MODEL 2
REMARK VINA RESULT:      -7.7      0.643      1.250
REMARK  Name = 
REMARK  12 active torsions:
REMARK  status: ('A' for Active; 'I' for Inactive)
REMARK    1  A    between atoms: C_1  and  C_2
REMARK    2  A    between atoms: C_2  and  C_3
REMARK    3  A    between atoms: C_2  and  C_4
REMARK    4  A    between atoms: C_2  and  N_5
REMARK    5  A    between atoms: C_6  and  C_8
REMARK    6  A    between atoms: C_8  and  C_9
REMARK    7  A    between atoms: C_8  and  N_15
REMARK    8  A    between atoms: N_15  and  C_28
REMARK    9  A    between atoms: C_16  and  C_18
REMARK   10  A    between atoms: C_18  and  C_19
REMARK   11  A    between atoms: C_31  and  O_32
REMARK   12  A    between atoms: O_32  and  C_33
REMARK                            x       y       z     vdW  Elec       q    Type
REMARK                         _______ _______ _______ _____ _____    ______ ____
ROOT
ATOM      1  N   UNL     1       0.268  10.534  19.182  0.00  0.00    +0.000 N 
ATOM      2  C   UNL     1      -0.836  10.676  18.319  0.00  0.00    +0.000 C 
ATOM      3  O   UNL     1      -1.126   9.840  17.456  0.00  0.00    +0.000 OA
ENDROOT
BRANCH   1   4
ATOM      4  C   UNL     1       1.063   9.343  19.047  0.00  0.00    +0.000 A 
ATOM      5  C   UNL     1       1.226   8.457  20.128  0.00  0.00    +0.000 A 
ATOM      6  C   UNL     1       2.097   7.366  20.030  0.00  0.00    +0.000 A 
ATOM      7  C   UNL     1       2.826   7.143  18.865  0.00  0.00    +0.000 A 
ATOM      8  C   UNL     1       2.678   8.023  17.794  0.00  0.00    +0.000 A 
ATOM      9  C   UNL     1       1.779   9.095  17.874  0.00  0.00    +0.000 A 
BRANCH   7  10
ATOM     10  O   UNL     1       3.675   6.073  18.895  0.00  0.00    +0.000 OA
BRANCH  10  11
ATOM     11  C   UNL     1       4.550   5.947  17.781  0.00  0.00    +0.000 C 
ATOM     12  F   UNL     1       4.126   4.911  17.013  0.00  0.00    +0.000 F 
ENDBRANCH  10  11
ENDBRANCH   7  10
ENDBRANCH   1   4
BRANCH   1  13
ATOM     13  C   UNL     1       0.798  11.628  20.052  0.00  0.00    +0.000 C 
BRANCH  13  14
ATOM     14  C   UNL     1      -0.166  12.004  21.188  0.00  0.00    +0.000 A 
ATOM     15  C   UNL     1      -0.779  11.067  22.033  0.00  0.00    +0.000 A 
ATOM     16  C   UNL     1      -1.677  11.486  23.013  0.00  0.00    +0.000 A 
ATOM     17  C   UNL     1      -1.924  12.839  23.140  0.00  0.00    +0.000 A 
ATOM     18  N   UNL     1      -1.352  13.779  22.357  0.00  0.00    +0.000 NA
ATOM     19  C   UNL     1      -0.494  13.343  21.406  0.00  0.00    +0.000 A 
ENDBRANCH  13  14
BRANCH  13  21
ATOM     20  N   UNL     1       2.467  13.546  20.057  0.00  0.00    +0.000 N 
ATOM     21  C   UNL     1       1.457  12.884  19.386  0.00  0.00    +0.000 C 
ATOM     22  O   UNL     1       1.036  13.304  18.305  0.00  0.00    +0.000 OA
ATOM     23  H   UNL     1       2.726  13.227  20.985  0.00  0.00    +0.000 HD
BRANCH  20  25
ATOM     24  C   UNL     1       2.336  15.904  19.241  0.00  0.00    +0.000 C 
ATOM     25  C   UNL     1       3.231  14.668  19.454  0.00  0.00    +0.000 C 
ATOM     26  C   UNL     1       3.865  14.243  18.113  0.00  0.00    +0.000 C 
ATOM     27  C   UNL     1       4.378  15.081  20.395  0.00  0.00    +0.000 C 
ENDBRANCH  20  25
ENDBRANCH  13  21
ENDBRANCH   1  13
BRANCH   2  28
ATOM     28  C   UNL     1      -1.815  11.819  18.550  0.00  0.00    +0.000 C 
BRANCH  28  29
ATOM     29  C   UNL     1      -3.201  11.583  18.031  0.00  0.00    +0.000 A 
ATOM     30  C   UNL     1      -3.525  11.222  16.737  0.00  0.00    +0.000 A 
ATOM     31  N   UNL     1      -4.887  11.243  16.603  0.00  0.00    +0.000 N 
ATOM     32  C   UNL     1      -5.476  11.620  17.788  0.00  0.00    +0.000 A 
ATOM     33  C   UNL     1      -6.828  11.818  18.095  0.00  0.00    +0.000 A 
ATOM     34  C   UNL     1      -7.153  12.217  19.392  0.00  0.00    +0.000 A 
ATOM     35  C   UNL     1      -6.159  12.395  20.346  0.00  0.00    +0.000 A 
ATOM     36  C   UNL     1      -4.808  12.206  20.023  0.00  0.00    +0.000 A 
ATOM     37  C   UNL     1      -4.448  11.812  18.715  0.00  0.00    +0.000 A 
ATOM     38  H   UNL     1      -5.397  11.064  15.749  0.00  0.00    +0.000 HD
ENDBRANCH  28  29
ENDBRANCH   2  28
TORSDOF 9
ENDMDL
MODEL 3
REMARK VINA RESULT:      -7.7      0.589      1.382
REMARK  Name = 
REMARK  12 active torsions:
REMARK  status: ('A' for Active; 'I' for Inactive)
REMARK    1  A    between atoms: C_1  and  C_2
REMARK    2  A    between atoms: C_2  and  C_3
REMARK    3  A    between atoms: C_2  and  C_4
REMARK    4  A    between atoms: C_2  and  N_5
REMARK    5  A    between atoms: C_6  and  C_8
REMARK    6  A    between atoms: C_8  and  C_9
REMARK    7  A    between atoms: C_8  and  N_15
REMARK    8  A    between atoms: N_15  and  C_28
REMARK    9  A    between atoms: C_16  and  C_18
REMARK   10  A    between atoms: C_18  and  C_19
REMARK   11  A    between atoms: C_31  and  O_32
REMARK   12  A    between atoms: O_32  and  C_33
REMARK                            x       y       z     vdW  Elec       q    Type
REMARK                         _______ _______ _______ _____ _____    ______ ____
ROOT
ATOM      1  N   UNL     1       0.056  10.695  19.225  0.00  0.00    +0.000 N 
ATOM      2  C   UNL     1      -1.010  10.839  18.316  0.00  0.00    +0.000 C 
ATOM      3  O   UNL     1      -1.265  10.003  17.441  0.00  0.00    +0.000 OA
ENDROOT
BRANCH   1   4
ATOM      4  C   UNL     1       0.853   9.502  19.125  0.00  0.00    +0.000 A 
ATOM      5  C   UNL     1       1.005   8.640  20.226  0.00  0.00    +0.000 A 
ATOM      6  C   UNL     1       1.878   7.548  20.162  0.00  0.00    +0.000 A 
ATOM      7  C   UNL     1       2.620   7.302  19.010  0.00  0.00    +0.000 A 
ATOM      8  C   UNL     1       2.484   8.158  17.919  0.00  0.00    +0.000 A 
ATOM      9  C   UNL     1       1.584   9.230  17.966  0.00  0.00    +0.000 A 
BRANCH   7  10
ATOM     10  O   UNL     1       3.470   6.233  19.073  0.00  0.00    +0.000 OA
BRANCH  10  11
ATOM     11  C   UNL     1       3.448   5.359  17.952  0.00  0.00    +0.000 C 
ATOM     12  F   UNL     1       2.189   4.870  17.810  0.00  0.00    +0.000 F 
ENDBRANCH  10  11
ENDBRANCH   7  10
ENDBRANCH   1   4
BRANCH   1  13
ATOM     13  C   UNL     1       0.550  11.789  20.116  0.00  0.00    +0.000 C 
BRANCH  13  14
ATOM     14  C   UNL     1      -0.474  12.193  21.187  0.00  0.00    +0.000 A 
ATOM     15  C   UNL     1      -0.982  13.493  21.328  0.00  0.00    +0.000 A 
ATOM     16  C   UNL     1      -1.877  13.790  22.355  0.00  0.00    +0.000 A 
ATOM     17  C   UNL     1      -2.260  12.771  23.205  0.00  0.00    +0.000 A 
ATOM     18  N   UNL     1      -1.806  11.504  23.104  0.00  0.00    +0.000 NA
ATOM     19  C   UNL     1      -0.929  11.246  22.106  0.00  0.00    +0.000 A 
ENDBRANCH  13  14
BRANCH  13  21
ATOM     20  N   UNL     1       2.309  13.625  20.169  0.00  0.00    +0.000 N 
ATOM     21  C   UNL     1       1.271  13.027  19.480  0.00  0.00    +0.000 C 
ATOM     22  O   UNL     1       0.875  13.490  18.407  0.00  0.00    +0.000 OA
ATOM     23  H   UNL     1       2.548  13.274  21.091  0.00  0.00    +0.000 HD
BRANCH  20  25
ATOM     24  C   UNL     1       4.342  15.040  20.487  0.00  0.00    +0.000 C 
ATOM     25  C   UNL     1       3.128  14.723  19.594  0.00  0.00    +0.000 C 
ATOM     26  C   UNL     1       2.278  15.995  19.393  0.00  0.00    +0.000 C 
ATOM     27  C   UNL     1       3.662  14.304  18.212  0.00  0.00    +0.000 C 
ENDBRANCH  20  25
ENDBRANCH  13  21
ENDBRANCH   1  13
BRANCH   2  28
ATOM     28  C   UNL     1      -1.996  11.984  18.504  0.00  0.00    +0.000 C 
BRANCH  28  29
ATOM     29  C   UNL     1      -3.404  11.685  18.087  0.00  0.00    +0.000 A 
ATOM     30  C   UNL     1      -3.802  11.293  16.823  0.00  0.00    +0.000 A 
ATOM     31  N   UNL     1      -5.170  11.258  16.785  0.00  0.00    +0.000 N 
ATOM     32  C   UNL     1      -5.689  11.628  18.004  0.00  0.00    +0.000 A 
ATOM     33  C   UNL     1      -7.023  11.776  18.403  0.00  0.00    +0.000 A 
ATOM     34  C   UNL     1      -7.273  12.180  19.716  0.00  0.00    +0.000 A 
ATOM     35  C   UNL     1      -6.223  12.410  20.596  0.00  0.00    +0.000 A 
ATOM     36  C   UNL     1      -4.892  12.271  20.180  0.00  0.00    +0.000 A 
ATOM     37  C   UNL     1      -4.608  11.873  18.854  0.00  0.00    +0.000 A 
ATOM     38  H   UNL     1      -5.731  11.046  15.971  0.00  0.00    +0.000 HD
ENDBRANCH  28  29
ENDBRANCH   2  28
TORSDOF 9
ENDMDL
MODEL 4
REMARK VINA RESULT:      -7.7      0.577      1.089
REMARK  Name = 
REMARK  12 active torsions:
REMARK  status: ('A' for Active; 'I' for Inactive)
REMARK    1  A    between atoms: C_1  and  C_2
REMARK    2  A    between atoms: C_2  and  C_3
REMARK    3  A    between atoms: C_2  and  C_4
REMARK    4  A    between atoms: C_2  and  N_5
REMARK    5  A    between atoms: C_6  and  C_8
REMARK    6  A    between atoms: C_8  and  C_9
REMARK    7  A    between atoms: C_8  and  N_15
REMARK    8  A    between atoms: N_15  and  C_28
REMARK    9  A    between atoms: C_16  and  C_18
REMARK   10  A    between atoms: C_18  and  C_19
REMARK   11  A    between atoms: C_31  and  O_32
REMARK   12  A    between atoms: O_32  and  C_33
REMARK                            x       y       z     vdW  Elec       q    Type
REMARK                         _______ _______ _______ _____ _____    ______ ____
ROOT
ATOM      1  N   UNL     1       0.412  10.674  19.256  0.00  0.00    +0.000 N 
ATOM      2  C   UNL     1      -0.695  10.743  18.389  0.00  0.00    +0.000 C 
ATOM      3  O   UNL     1      -0.973   9.849  17.581  0.00  0.00    +0.000 OA
ENDROOT
BRANCH   1   4
ATOM      4  C   UNL     1       1.226   9.491  19.196  0.00  0.00    +0.000 A 
ATOM      5  C   UNL     1       1.925   9.153  18.022  0.00  0.00    +0.000 A 
ATOM      6  C   UNL     1       2.616   7.940  17.928  0.00  0.00    +0.000 A 
ATOM      7  C   UNL     1       2.616   7.040  18.991  0.00  0.00    +0.000 A 
ATOM      8  C   UNL     1       1.916   7.362  20.153  0.00  0.00    +0.000 A 
ATOM      9  C   UNL     1       1.254   8.592  20.265  0.00  0.00    +0.000 A 
BRANCH   7  10
ATOM     10  O   UNL     1       3.288   5.870  18.775  0.00  0.00    +0.000 OA
BRANCH  10  11
ATOM     11  C   UNL     1       2.625   4.919  17.953  0.00  0.00    +0.000 C 
ATOM     12  F   UNL     1       1.638   4.332  18.680  0.00  0.00    +0.000 F 
ENDBRANCH  10  11
ENDBRANCH   7  10
ENDBRANCH   1   4
BRANCH   1  13
ATOM     13  C   UNL     1       0.924  11.830  20.053  0.00  0.00    +0.000 C 
BRANCH  13  14
ATOM     14  C   UNL     1      -0.063  12.291  21.136  0.00  0.00    +0.000 A 
ATOM     15  C   UNL     1      -0.635  13.572  21.175  0.00  0.00    +0.000 A 
ATOM     16  C   UNL     1      -1.489  13.929  22.217  0.00  0.00    +0.000 A 
ATOM     17  C   UNL     1      -1.771  12.985  23.186  0.00  0.00    +0.000 A 
ATOM     18  N   UNL     1      -1.252  11.739  23.187  0.00  0.00    +0.000 NA
ATOM     19  C   UNL     1      -0.415  11.423  22.170  0.00  0.00    +0.000 A 
ENDBRANCH  13  14
BRANCH  13  21
ATOM     20  N   UNL     1       2.464  13.854  20.010  0.00  0.00    +0.000 N 
ATOM     21  C   UNL     1       1.601  13.033  19.310  0.00  0.00    +0.000 C 
ATOM     22  O   UNL     1       1.319  13.271  18.132  0.00  0.00    +0.000 OA
ATOM     23  H   UNL     1       2.603  13.683  21.001  0.00  0.00    +0.000 HD
BRANCH  20  25
ATOM     24  C   UNL     1       2.323  16.081  18.887  0.00  0.00    +0.000 C 
ATOM     25  C   UNL     1       3.243  14.940  19.362  0.00  0.00    +0.000 C 
ATOM     26  C   UNL     1       4.060  14.396  18.171  0.00  0.00    +0.000 C 
ATOM     27  C   UNL     1       4.242  15.537  20.371  0.00  0.00    +0.000 C 
ENDBRANCH  20  25
ENDBRANCH  13  21
ENDBRANCH   1  13
BRANCH   2  28
ATOM     28  C   UNL     1      -1.693  11.883  18.548  0.00  0.00    +0.000 C 
BRANCH  28  29
ATOM     29  C   UNL     1      -3.072  11.595  18.035  0.00  0.00    +0.000 A 
ATOM     30  C   UNL     1      -3.383  11.169  16.758  0.00  0.00    +0.000 A 
ATOM     31  N   UNL     1      -4.744  11.158  16.618  0.00  0.00    +0.000 N 
ATOM     32  C   UNL     1      -5.346  11.577  17.781  0.00  0.00    +0.000 A 
ATOM     33  C   UNL     1      -6.703  11.763  18.074  0.00  0.00    +0.000 A 
ATOM     34  C   UNL     1      -7.042  12.215  19.350  0.00  0.00    +0.000 A 
ATOM     35  C   UNL     1      -6.056  12.455  20.299  0.00  0.00    +0.000 A 
ATOM     36  C   UNL     1      -4.700  12.278  19.990  0.00  0.00    +0.000 A 
ATOM     37  C   UNL     1      -4.326  11.831  18.703  0.00  0.00    +0.000 A 
ATOM     38  H   UNL     1      -5.246  10.930  15.771  0.00  0.00    +0.000 HD
ENDBRANCH  28  29
ENDBRANCH   2  28
TORSDOF 9
ENDMDL
MODEL 5
REMARK VINA RESULT:      -7.6      0.788      1.281
REMARK  Name = 
REMARK  12 active torsions:
REMARK  status: ('A' for Active; 'I' for Inactive)
REMARK    1  A    between atoms: C_1  and  C_2
REMARK    2  A    between atoms: C_2  and  C_3
REMARK    3  A    between atoms: C_2  and  C_4
REMARK    4  A    between atoms: C_2  and  N_5
REMARK    5  A    between atoms: C_6  and  C_8
REMARK    6  A    between atoms: C_8  and  C_9
REMARK    7  A    between atoms: C_8  and  N_15
REMARK    8  A    between atoms: N_15  and  C_28
REMARK    9  A    between atoms: C_16  and  C_18
REMARK   10  A    between atoms: C_18  and  C_19
REMARK   11  A    between atoms: C_31  and  O_32
REMARK   12  A    between atoms: O_32  and  C_33
REMARK                            x       y       z     vdW  Elec       q    Type
REMARK                         _______ _______ _______ _____ _____    ______ ____
ROOT
ATOM      1  N   UNL     1       0.149  10.771  19.350  0.00  0.00    +0.000 N 
ATOM      2  C   UNL     1      -0.792  10.791  18.302  0.00  0.00    +0.000 C 
ATOM      3  O   UNL     1      -0.954   9.841  17.526  0.00  0.00    +0.000 OA
ENDROOT
BRANCH   1   4
ATOM      4  C   UNL     1       0.926   9.572  19.518  0.00  0.00    +0.000 A 
ATOM      5  C   UNL     1       1.696   9.056  18.461  0.00  0.00    +0.000 A 
ATOM      6  C   UNL     1       2.351   7.826  18.590  0.00  0.00    +0.000 A 
ATOM      7  C   UNL     1       2.244   7.087  19.766  0.00  0.00    +0.000 A 
ATOM      8  C   UNL     1       1.473   7.587  20.814  0.00  0.00    +0.000 A 
ATOM      9  C   UNL     1       0.846   8.834  20.702  0.00  0.00    +0.000 A 
BRANCH   7  10
ATOM     10  O   UNL     1       2.891   5.883  19.767  0.00  0.00    +0.000 OA
BRANCH  10  11
ATOM     11  C   UNL     1       2.289   4.858  20.547  0.00  0.00    +0.000 C 
ATOM     12  F   UNL     1       1.244   4.341  19.849  0.00  0.00    +0.000 F 
ENDBRANCH  10  11
ENDBRANCH   7  10
ENDBRANCH   1   4
BRANCH   1  13
ATOM     13  C   UNL     1       0.552  11.976  20.137  0.00  0.00    +0.000 C 
BRANCH  13  14
ATOM     14  C   UNL     1      -0.577  12.507  21.033  0.00  0.00    +0.000 A 
ATOM     15  C   UNL     1      -1.087  13.812  20.954  0.00  0.00    +0.000 A 
ATOM     16  C   UNL     1      -2.083  14.232  21.834  0.00  0.00    +0.000 A 
ATOM     17  C   UNL     1      -2.562  13.327  22.760  0.00  0.00    +0.000 A 
ATOM     18  N   UNL     1      -2.110  12.060  22.869  0.00  0.00    +0.000 NA
ATOM     19  C   UNL     1      -1.134  11.682  22.010  0.00  0.00    +0.000 A 
ENDBRANCH  13  14
BRANCH  13  21
ATOM     20  N   UNL     1       2.278  13.844  20.141  0.00  0.00    +0.000 N 
ATOM     21  C   UNL     1       1.341  13.127  19.422  0.00  0.00    +0.000 C 
ATOM     22  O   UNL     1       1.082  13.422  18.252  0.00  0.00    +0.000 OA
ATOM     23  H   UNL     1       2.400  13.635  21.126  0.00  0.00    +0.000 HD
BRANCH  20  25
ATOM     24  C   UNL     1       4.241  15.346  20.503  0.00  0.00    +0.000 C 
ATOM     25  C   UNL     1       3.157  14.867  19.519  0.00  0.00    +0.000 C 
ATOM     26  C   UNL     1       2.331  16.072  19.022  0.00  0.00    +0.000 C 
ATOM     27  C   UNL     1       3.872  14.264  18.295  0.00  0.00    +0.000 C 
ENDBRANCH  20  25
ENDBRANCH  13  21
ENDBRANCH   1  13
BRANCH   2  28
ATOM     28  C   UNL     1      -1.768  11.955  18.203  0.00  0.00    +0.000 C 
BRANCH  28  29
ATOM     29  C   UNL     1      -3.163  11.582  17.801  0.00  0.00    +0.000 A 
ATOM     30  C   UNL     1      -3.547  11.129  16.553  0.00  0.00    +0.000 A 
ATOM     31  N   UNL     1      -4.912  11.035  16.522  0.00  0.00    +0.000 N 
ATOM     32  C   UNL     1      -5.444  11.426  17.728  0.00  0.00    +0.000 A 
ATOM     33  C   UNL     1      -6.782  11.533  18.127  0.00  0.00    +0.000 A 
ATOM     34  C   UNL     1      -7.047  11.972  19.424  0.00  0.00    +0.000 A 
ATOM     35  C   UNL     1      -6.005  12.278  20.292  0.00  0.00    +0.000 A 
ATOM     36  C   UNL     1      -4.670  12.180  19.877  0.00  0.00    +0.000 A 
ATOM     37  C   UNL     1      -4.372  11.747  18.566  0.00  0.00    +0.000 A 
ATOM     38  H   UNL     1      -5.465  10.772  15.718  0.00  0.00    +0.000 HD
ENDBRANCH  28  29
ENDBRANCH   2  28
TORSDOF 9
ENDMDL
MODEL 6
REMARK VINA RESULT:      -7.6      2.040      5.716
REMARK  Name = 
REMARK  12 active torsions:
REMARK  status: ('A' for Active; 'I' for Inactive)
REMARK    1  A    between atoms: C_1  and  C_2
REMARK    2  A    between atoms: C_2  and  C_3
REMARK    3  A    between atoms: C_2  and  C_4
REMARK    4  A    between atoms: C_2  and  N_5
REMARK    5  A    between atoms: C_6  and  C_8
REMARK    6  A    between atoms: C_8  and  C_9
REMARK    7  A    between atoms: C_8  and  N_15
REMARK    8  A    between atoms: N_15  and  C_28
REMARK    9  A    between atoms: C_16  and  C_18
REMARK   10  A    between atoms: C_18  and  C_19
REMARK   11  A    between atoms: C_31  and  O_32
REMARK   12  A    between atoms: O_32  and  C_33
REMARK                            x       y       z     vdW  Elec       q    Type
REMARK                         _______ _______ _______ _____ _____    ______ ____
ROOT
ATOM      1  N   UNL     1       0.479  12.314  20.009  0.00  0.00    +0.000 N 
ATOM      2  C   UNL     1       1.386  13.120  20.723  0.00  0.00    +0.000 C 
ATOM      3  O   UNL     1       2.454  12.691  21.177  0.00  0.00    +0.000 OA
ENDROOT
BRANCH   1   4
ATOM      4  C   UNL     1       0.845  10.941  19.790  0.00  0.00    +0.000 A 
ATOM      5  C   UNL     1       0.740   9.992  20.823  0.00  0.00    +0.000 A 
ATOM      6  C   UNL     1       1.211   8.686  20.643  0.00  0.00    +0.000 A 
ATOM      7  C   UNL     1       1.803   8.307  19.440  0.00  0.00    +0.000 A 
ATOM      8  C   UNL     1       1.921   9.245  18.416  0.00  0.00    +0.000 A 
ATOM      9  C   UNL     1       1.417  10.541  18.580  0.00  0.00    +0.000 A 
BRANCH   7  10
ATOM     10  O   UNL     1       2.264   7.021  19.389  0.00  0.00    +0.000 OA
BRANCH  10  11
ATOM     11  C   UNL     1       1.874   6.181  20.468  0.00  0.00    +0.000 C 
ATOM     12  F   UNL     1       1.484   4.982  19.964  0.00  0.00    +0.000 F 
ENDBRANCH  10  11
ENDBRANCH   7  10
ENDBRANCH   1   4
BRANCH   1  13
ATOM     13  C   UNL     1      -0.919  12.722  19.673  0.00  0.00    +0.000 C 
BRANCH  13  14
ATOM     14  C   UNL     1      -1.839  12.764  20.902  0.00  0.00    +0.000 A 
ATOM     15  C   UNL     1      -1.631  11.997  22.058  0.00  0.00    +0.000 A 
ATOM     16  C   UNL     1      -2.538  12.058  23.115  0.00  0.00    +0.000 A 
ATOM     17  C   UNL     1      -3.623  12.905  22.999  0.00  0.00    +0.000 A 
ATOM     18  N   UNL     1      -3.861  13.669  21.911  0.00  0.00    +0.000 NA
ATOM     19  C   UNL     1      -2.971  13.580  20.895  0.00  0.00    +0.000 A 
ENDBRANCH  13  14
BRANCH  13  21
ATOM     20  N   UNL     1      -2.508  11.048  18.605  0.00  0.00    +0.000 N 
ATOM     21  C   UNL     1      -1.621  12.091  18.421  0.00  0.00    +0.000 C 
ATOM     22  O   UNL     1      -1.337  12.485  17.287  0.00  0.00    +0.000 OA
ATOM     23  H   UNL     1      -2.649  10.688  19.544  0.00  0.00    +0.000 HD
BRANCH  20  25
ATOM     24  C   UNL     1      -4.280  11.510  16.906  0.00  0.00    +0.000 C 
ATOM     25  C   UNL     1      -3.309  10.469  17.496  0.00  0.00    +0.000 C 
ATOM     26  C   UNL     1      -4.096   9.231  17.976  0.00  0.00    +0.000 C 
ATOM     27  C   UNL     1      -2.373  10.009  16.364  0.00  0.00    +0.000 C 
ENDBRANCH  20  25
ENDBRANCH  13  21
ENDBRANCH   1  13
BRANCH   2  28
ATOM     28  C   UNL     1       1.135  14.619  20.813  0.00  0.00    +0.000 C 
BRANCH  28  29
ATOM     29  C   UNL     1       1.671  15.423  19.668  0.00  0.00    +0.000 A 
ATOM     30  C   UNL     1       3.006  15.550  19.329  0.00  0.00    +0.000 A 
ATOM     31  N   UNL     1       3.117  16.475  18.326  0.00  0.00    +0.000 N 
ATOM     32  C   UNL     1       1.878  16.972  17.997  0.00  0.00    +0.000 A 
ATOM     33  C   UNL     1       1.524  17.959  17.068  0.00  0.00    +0.000 A 
ATOM     34  C   UNL     1       0.173  18.284  16.940  0.00  0.00    +0.000 A 
ATOM     35  C   UNL     1      -0.786  17.630  17.704  0.00  0.00    +0.000 A 
ATOM     36  C   UNL     1      -0.418  16.653  18.639  0.00  0.00    +0.000 A 
ATOM     37  C   UNL     1       0.943  16.310  18.798  0.00  0.00    +0.000 A 
ATOM     38  H   UNL     1       3.983  16.797  17.917  0.00  0.00    +0.000 HD
ENDBRANCH  28  29
ENDBRANCH   2  28
TORSDOF 9
ENDMDL
MODEL 7
REMARK VINA RESULT:      -7.6      1.925      5.681
REMARK  Name = 
REMARK  12 active torsions:
REMARK  status: ('A' for Active; 'I' for Inactive)
REMARK    1  A    between atoms: C_1  and  C_2
REMARK    2  A    between atoms: C_2  and  C_3
REMARK    3  A    between atoms: C_2  and  C_4
REMARK    4  A    between atoms: C_2  and  N_5
REMARK    5  A    between atoms: C_6  and  C_8
REMARK    6  A    between atoms: C_8  and  C_9
REMARK    7  A    between atoms: C_8  and  N_15
REMARK    8  A    between atoms: N_15  and  C_28
REMARK    9  A    between atoms: C_16  and  C_18
REMARK   10  A    between atoms: C_18  and  C_19
REMARK   11  A    between atoms: C_31  and  O_32
REMARK   12  A    between atoms: O_32  and  C_33
REMARK                            x       y       z     vdW  Elec       q    Type
REMARK                         _______ _______ _______ _____ _____    ______ ____
ROOT
ATOM      1  N   UNL     1       0.280  12.167  20.017  0.00  0.00    +0.000 N 
ATOM      2  C   UNL     1       1.187  13.089  20.573  0.00  0.00    +0.000 C 
ATOM      3  O   UNL     1       2.330  12.777  20.927  0.00  0.00    +0.000 OA
ENDROOT
BRANCH   1   4
ATOM      4  C   UNL     1       0.735  10.815  19.842  0.00  0.00    +0.000 A 
ATOM      5  C   UNL     1       0.687   9.894  20.904  0.00  0.00    +0.000 A 
ATOM      6  C   UNL     1       1.243   8.617  20.765  0.00  0.00    +0.000 A 
ATOM      7  C   UNL     1       1.862   8.239  19.577  0.00  0.00    +0.000 A 
ATOM      8  C   UNL     1       1.923   9.150  18.524  0.00  0.00    +0.000 A 
ATOM      9  C   UNL     1       1.335  10.416  18.646  0.00  0.00    +0.000 A 
BRANCH   7  10
ATOM     10  O   UNL     1       2.406   6.984  19.567  0.00  0.00    +0.000 OA
BRANCH  10  11
ATOM     11  C   UNL     1       2.851   6.515  18.301  0.00  0.00    +0.000 C 
ATOM     12  F   UNL     1       1.901   5.692  17.786  0.00  0.00    +0.000 F 
ENDBRANCH  10  11
ENDBRANCH   7  10
ENDBRANCH   1   4
BRANCH   1  13
ATOM     13  C   UNL     1      -1.176  12.442  19.818  0.00  0.00    +0.000 C 
BRANCH  13  14
ATOM     14  C   UNL     1      -1.910  12.748  21.132  0.00  0.00    +0.000 A 
ATOM     15  C   UNL     1      -1.890  11.903  22.251  0.00  0.00    +0.000 A 
ATOM     16  C   UNL     1      -2.619  12.230  23.393  0.00  0.00    +0.000 A 
ATOM     17  C   UNL     1      -3.336  13.411  23.396  0.00  0.00    +0.000 A 
ATOM     18  N   UNL     1      -3.379  14.261  22.348  0.00  0.00    +0.000 NA
ATOM     19  C   UNL     1      -2.672  13.911  21.248  0.00  0.00    +0.000 A 
ENDBRANCH  13  14
BRANCH  13  21
ATOM     20  N   UNL     1      -3.013  12.062  18.100  0.00  0.00    +0.000 N 
ATOM     21  C   UNL     1      -2.008  11.510  18.871  0.00  0.00    +0.000 C 
ATOM     22  O   UNL     1      -1.802  10.293  18.863  0.00  0.00    +0.000 OA
ATOM     23  H   UNL     1      -3.215  13.051  18.200  0.00  0.00    +0.000 HD
BRANCH  20  25
ATOM     24  C   UNL     1      -2.935  11.062  15.812  0.00  0.00    +0.000 C 
ATOM     25  C   UNL     1      -3.770  11.282  17.088  0.00  0.00    +0.000 C 
ATOM     26  C   UNL     1      -5.096  11.986  16.731  0.00  0.00    +0.000 C 
ATOM     27  C   UNL     1      -4.124   9.896  17.658  0.00  0.00    +0.000 C 
ENDBRANCH  20  25
ENDBRANCH  13  21
ENDBRANCH   1  13
BRANCH   2  28
ATOM     28  C   UNL     1       0.822  14.567  20.599  0.00  0.00    +0.000 C 
BRANCH  28  29
ATOM     29  C   UNL     1       1.389  15.382  19.477  0.00  0.00    +0.000 A 
ATOM     30  C   UNL     1       2.717  15.410  19.094  0.00  0.00    +0.000 A 
ATOM     31  N   UNL     1       2.878  16.375  18.137  0.00  0.00    +0.000 N 
ATOM     32  C   UNL     1       1.679  16.996  17.882  0.00  0.00    +0.000 A 
ATOM     33  C   UNL     1       1.385  18.061  17.020  0.00  0.00    +0.000 A 
ATOM     34  C   UNL     1       0.065  18.510  16.961  0.00  0.00    +0.000 A 
ATOM     35  C   UNL     1      -0.923  17.903  17.726  0.00  0.00    +0.000 A 
ATOM     36  C   UNL     1      -0.614  16.847  18.594  0.00  0.00    +0.000 A 
ATOM     37  C   UNL     1       0.715  16.377  18.684  0.00  0.00    +0.000 A 
ATOM     38  H   UNL     1       3.756  16.641  17.712  0.00  0.00    +0.000 HD
ENDBRANCH  28  29
ENDBRANCH   2  28
TORSDOF 9
ENDMDL
MODEL 8
REMARK VINA RESULT:      -7.6      1.937      4.819
REMARK  Name = 
REMARK  12 active torsions:
REMARK  status: ('A' for Active; 'I' for Inactive)
REMARK    1  A    between atoms: C_1  and  C_2
REMARK    2  A    between atoms: C_2  and  C_3
REMARK    3  A    between atoms: C_2  and  C_4
REMARK    4  A    between atoms: C_2  and  N_5
REMARK    5  A    between atoms: C_6  and  C_8
REMARK    6  A    between atoms: C_8  and  C_9
REMARK    7  A    between atoms: C_8  and  N_15
REMARK    8  A    between atoms: N_15  and  C_28
REMARK    9  A    between atoms: C_16  and  C_18
REMARK   10  A    between atoms: C_18  and  C_19
REMARK   11  A    between atoms: C_31  and  O_32
REMARK   12  A    between atoms: O_32  and  C_33
REMARK                            x       y       z     vdW  Elec       q    Type
REMARK                         _______ _______ _______ _____ _____    ______ ____
ROOT
ATOM      1  N   UNL     1       0.918  10.631  19.734  0.00  0.00    +0.000 N 
ATOM      2  C   UNL     1       0.768  10.921  21.104  0.00  0.00    +0.000 C 
ATOM      3  O   UNL     1       1.146  10.154  21.998  0.00  0.00    +0.000 OA
ENDROOT
BRANCH   1   4
ATOM      4  C   UNL     1       1.562   9.394  19.386  0.00  0.00    +0.000 A 
ATOM      5  C   UNL     1       2.117   9.203  18.108  0.00  0.00    +0.000 A 
ATOM      6  C   UNL     1       2.634   7.957  17.734  0.00  0.00    +0.000 A 
ATOM      7  C   UNL     1       2.598   6.881  18.617  0.00  0.00    +0.000 A 
ATOM      8  C   UNL     1       2.039   7.060  19.882  0.00  0.00    +0.000 A 
ATOM      9  C   UNL     1       1.555   8.315  20.273  0.00  0.00    +0.000 A 
BRANCH   7  10
ATOM     10  O   UNL     1       3.093   5.703  18.133  0.00  0.00    +0.000 OA
BRANCH  10  11
ATOM     11  C   UNL     1       2.239   4.574  18.265  0.00  0.00    +0.000 C 
ATOM     12  F   UNL     1       1.235   4.682  17.356  0.00  0.00    +0.000 F 
ENDBRANCH  10  11
ENDBRANCH   7  10
ENDBRANCH   1   4
BRANCH   1  13
ATOM     13  C   UNL     1       0.252  11.400  18.639  0.00  0.00    +0.000 C 
BRANCH  13  14
ATOM     14  C   UNL     1       0.619  12.892  18.650  0.00  0.00    +0.000 A 
ATOM     15  C   UNL     1       1.936  13.371  18.700  0.00  0.00    +0.000 A 
ATOM     16  C   UNL     1       2.185  14.741  18.753  0.00  0.00    +0.000 A 
ATOM     17  C   UNL     1       1.106  15.604  18.732  0.00  0.00    +0.000 A 
ATOM     18  N   UNL     1      -0.178  15.192  18.676  0.00  0.00    +0.000 NA
ATOM     19  C   UNL     1      -0.391  13.855  18.639  0.00  0.00    +0.000 A 
ENDBRANCH  13  14
BRANCH  13  21
ATOM     20  N   UNL     1      -1.673  10.889  17.058  0.00  0.00    +0.000 N 
ATOM     21  C   UNL     1      -1.270  11.161  18.351  0.00  0.00    +0.000 C 
ATOM     22  O   UNL     1      -2.097  11.272  19.260  0.00  0.00    +0.000 OA
ATOM     23  H   UNL     1      -0.977  10.895  16.319  0.00  0.00    +0.000 HD
BRANCH  20  25
ATOM     24  C   UNL     1      -3.189  10.098  15.237  0.00  0.00    +0.000 C 
ATOM     25  C   UNL     1      -3.072  10.529  16.711  0.00  0.00    +0.000 C 
ATOM     26  C   UNL     1      -4.028  11.708  16.990  0.00  0.00    +0.000 C 
ATOM     27  C   UNL     1      -3.536   9.346  17.581  0.00  0.00    +0.000 C 
ENDBRANCH  20  25
ENDBRANCH  13  21
ENDBRANCH   1  13
BRANCH   2  28
ATOM     28  C   UNL     1       0.270  12.298  21.522  0.00  0.00    +0.000 C 
BRANCH  28  29
ATOM     29  C   UNL     1      -1.024  12.302  22.279  0.00  0.00    +0.000 A 
ATOM     30  C   UNL     1      -1.492  11.276  23.079  0.00  0.00    +0.000 A 
ATOM     31  N   UNL     1      -2.765  11.578  23.480  0.00  0.00    +0.000 N 
ATOM     32  C   UNL     1      -3.156  12.787  22.953  0.00  0.00    +0.000 A 
ATOM     33  C   UNL     1      -4.380  13.458  23.060  0.00  0.00    +0.000 A 
ATOM     34  C   UNL     1      -4.514  14.684  22.406  0.00  0.00    +0.000 A 
ATOM     35  C   UNL     1      -3.454  15.220  21.686  0.00  0.00    +0.000 A 
ATOM     36  C   UNL     1      -2.238  14.531  21.575  0.00  0.00    +0.000 A 
ATOM     37  C   UNL     1      -2.076  13.284  22.218  0.00  0.00    +0.000 A 
ATOM     38  H   UNL     1      -3.362  10.983  24.037  0.00  0.00    +0.000 HD
ENDBRANCH  28  29
ENDBRANCH   2  28
TORSDOF 9
ENDMDL
MODEL 9
REMARK VINA RESULT:      -7.5      2.043      4.921
REMARK  Name = 
REMARK  12 active torsions:
REMARK  status: ('A' for Active; 'I' for Inactive)
REMARK    1  A    between atoms: C_1  and  C_2
REMARK    2  A    between atoms: C_2  and  C_3
REMARK    3  A    between atoms: C_2  and  C_4
REMARK    4  A    between atoms: C_2  and  N_5
REMARK    5  A    between atoms: C_6  and  C_8
REMARK    6  A    between atoms: C_8  and  C_9
REMARK    7  A    between atoms: C_8  and  N_15
REMARK    8  A    between atoms: N_15  and  C_28
REMARK    9  A    between atoms: C_16  and  C_18
REMARK   10  A    between atoms: C_18  and  C_19
REMARK   11  A    between atoms: C_31  and  O_32
REMARK   12  A    between atoms: O_32  and  C_33
REMARK                            x       y       z     vdW  Elec       q    Type
REMARK                         _______ _______ _______ _____ _____    ______ ____
ROOT
ATOM      1  N   UNL     1       0.894  10.560  19.812  0.00  0.00    +0.000 N 
ATOM      2  C   UNL     1       0.747  10.869  21.178  0.00  0.00    +0.000 C 
ATOM      3  O   UNL     1       1.109  10.107  22.083  0.00  0.00    +0.000 OA
ENDROOT
BRANCH   1   4
ATOM      4  C   UNL     1       1.517   9.308  19.481  0.00  0.00    +0.000 A 
ATOM      5  C   UNL     1       2.011   9.067  18.186  0.00  0.00    +0.000 A 
ATOM      6  C   UNL     1       2.505   7.805  17.835  0.00  0.00    +0.000 A 
ATOM      7  C   UNL     1       2.507   6.763  18.759  0.00  0.00    +0.000 A 
ATOM      8  C   UNL     1       2.009   6.991  20.041  0.00  0.00    +0.000 A 
ATOM      9  C   UNL     1       1.548   8.263  20.407  0.00  0.00    +0.000 A 
BRANCH   7  10
ATOM     10  O   UNL     1       2.974   5.565  18.297  0.00  0.00    +0.000 OA
BRANCH  10  11
ATOM     11  C   UNL     1       4.067   5.636  17.390  0.00  0.00    +0.000 C 
ATOM     12  F   UNL     1       4.107   4.485  16.670  0.00  0.00    +0.000 F 
ENDBRANCH  10  11
ENDBRANCH   7  10
ENDBRANCH   1   4
BRANCH   1  13
ATOM     13  C   UNL     1       0.244  11.328  18.706  0.00  0.00    +0.000 C 
BRANCH  13  14
ATOM     14  C   UNL     1       0.622  12.817  18.712  0.00  0.00    +0.000 A 
ATOM     15  C   UNL     1      -0.317  13.859  18.744  0.00  0.00    +0.000 A 
ATOM     16  C   UNL     1       0.104  15.187  18.702  0.00  0.00    +0.000 A 
ATOM     17  C   UNL     1       1.461  15.442  18.652  0.00  0.00    +0.000 A 
ATOM     18  N   UNL     1       2.402  14.474  18.628  0.00  0.00    +0.000 NA
ATOM     19  C   UNL     1       1.964  13.193  18.657  0.00  0.00    +0.000 A 
ENDBRANCH  13  14
BRANCH  13  21
ATOM     20  N   UNL     1      -1.668  10.805  17.113  0.00  0.00    +0.000 N 
ATOM     21  C   UNL     1      -1.277  11.097  18.405  0.00  0.00    +0.000 C 
ATOM     22  O   UNL     1      -2.113  11.233  19.303  0.00  0.00    +0.000 OA
ATOM     23  H   UNL     1      -0.963  10.791  16.382  0.00  0.00    +0.000 HD
BRANCH  20  25
ATOM     24  C   UNL     1      -4.000  11.670  16.887  0.00  0.00    +0.000 C 
ATOM     25  C   UNL     1      -3.066  10.452  16.756  0.00  0.00    +0.000 C 
ATOM     26  C   UNL     1      -3.583   9.298  17.640  0.00  0.00    +0.000 C 
ATOM     27  C   UNL     1      -3.125   9.974  15.294  0.00  0.00    +0.000 C 
ENDBRANCH  20  25
ENDBRANCH  13  21
ENDBRANCH   1  13
BRANCH   2  28
ATOM     28  C   UNL     1       0.272  12.260  21.578  0.00  0.00    +0.000 C 
BRANCH  28  29
ATOM     29  C   UNL     1      -1.029  12.297  22.322  0.00  0.00    +0.000 A 
ATOM     30  C   UNL     1      -1.561  11.260  23.065  0.00  0.00    +0.000 A 
ATOM     31  N   UNL     1      -2.820  11.611  23.470  0.00  0.00    +0.000 N 
ATOM     32  C   UNL     1      -3.139  12.864  23.002  0.00  0.00    +0.000 A 
ATOM     33  C   UNL     1      -4.325  13.596  23.132  0.00  0.00    +0.000 A 
ATOM     34  C   UNL     1      -4.384  14.859  22.541  0.00  0.00    +0.000 A 
ATOM     35  C   UNL     1      -3.288  15.371  21.858  0.00  0.00    +0.000 A 
ATOM     36  C   UNL     1      -2.110  14.623  21.723  0.00  0.00    +0.000 A 
ATOM     37  C   UNL     1      -2.024  13.337  22.303  0.00  0.00    +0.000 A 
ATOM     38  H   UNL     1      -3.456  11.022  23.990  0.00  0.00    +0.000 HD
ENDBRANCH  28  29
ENDBRANCH   2  28
TORSDOF 9
ENDMDL
