MODEL 1
REMARK VINA RESULT:      -7.2      0.000      0.000
REMARK  Name = 
REMARK  4 active torsions:
REMARK  status: ('A' for Active; 'I' for Inactive)
REMARK    1  A    between atoms: C_1  and  N_2
REMARK    2  A    between atoms: N_2  and  C_3
REMARK    3  A    between atoms: N_2  and  C_4
REMARK    4  A    between atoms: C_7  and  C_8
REMARK                            x       y       z     vdW  Elec       q    Type
REMARK                         _______ _______ _______ _____ _____    ______ ____
ROOT
ATOM      1  C   UNL     1       8.414   8.873  18.374  0.00  0.00    +0.000 A 
ATOM      2  N   UNL     1       7.625   8.624  17.340  0.00  0.00    +0.000 NA
ATOM      3  C   UNL     1       7.301   7.291  17.427  0.00  0.00    +0.000 A 
ATOM      4  C   UNL     1       6.476   6.481  16.641  0.00  0.00    +0.000 A 
ATOM      5  C   UNL     1       6.365   5.143  17.026  0.00  0.00    +0.000 A 
ATOM      6 BR   UNL     1       5.268   3.964  16.038  0.00  0.00    +0.000 Br
ATOM      7  C   UNL     1       7.063   4.682  18.142  0.00  0.00    +0.000 A 
ATOM      8  N   UNL     1       7.876   5.431  18.932  0.00  0.00    +0.000 NA
ATOM      9  C   UNL     1       7.936   6.707  18.513  0.00  0.00    +0.000 A 
ATOM     10  N   UNL     1       8.649   7.716  19.085  0.00  0.00    +0.000 N 
ATOM     11  H   UNL     1       9.239   7.615  19.896  0.00  0.00    +0.000 HD
ENDROOT
BRANCH   1  15
ATOM     12  C   UNL     1      10.154  12.684  19.481  0.00  0.00    +0.000 A 
ATOM     13  C   UNL     1       9.558  12.477  18.228  0.00  0.00    +0.000 A 
ATOM     14  C   UNL     1       8.992  11.248  17.859  0.00  0.00    +0.000 A 
ATOM     15  C   UNL     1       8.983  10.170  18.746  0.00  0.00    +0.000 A 
ATOM     16  C   UNL     1       9.552  10.357  20.007  0.00  0.00    +0.000 A 
ATOM     17  C   UNL     1      10.116  11.592  20.365  0.00  0.00    +0.000 A 
BRANCH  12  19
ATOM     18  C   UNL     1      11.991  14.321  19.231  0.00  0.00    +0.000 C 
ATOM     19  N   UNL     1      10.729  13.906  19.837  0.00  0.00    +0.000 N 
ATOM     20  C   UNL     1      10.402  14.489  21.135  0.00  0.00    +0.000 C 
ENDBRANCH  12  19
ENDBRANCH   1  15
TORSDOF 2
ENDMDL
MODEL 2
REMARK VINA RESULT:      -7.2      0.271      1.368
REMARK  Name = 
REMARK  4 active torsions:
REMARK  status: ('A' for Active; 'I' for Inactive)
REMARK    1  A    between atoms: C_1  and  N_2
REMARK    2  A    between atoms: N_2  and  C_3
REMARK    3  A    between atoms: N_2  and  C_4
REMARK    4  A    between atoms: C_7  and  C_8
REMARK                            x       y       z     vdW  Elec       q    Type
REMARK                         _______ _______ _______ _____ _____    ______ ____
ROOT
ATOM      1  C   UNL     1       8.419   8.884  18.381  0.00  0.00    +0.000 A 
ATOM      2  N   UNL     1       7.598   8.652  17.367  0.00  0.00    +0.000 NA
ATOM      3  C   UNL     1       7.257   7.323  17.457  0.00  0.00    +0.000 A 
ATOM      4  C   UNL     1       6.399   6.530  16.690  0.00  0.00    +0.000 A 
ATOM      5  C   UNL     1       6.279   5.192  17.071  0.00  0.00    +0.000 A 
ATOM      6 BR   UNL     1       5.139   4.034  16.107  0.00  0.00    +0.000 Br
ATOM      7  C   UNL     1       7.001   4.715  18.165  0.00  0.00    +0.000 A 
ATOM      8  N   UNL     1       7.845   5.448  18.936  0.00  0.00    +0.000 NA
ATOM      9  C   UNL     1       7.913   6.725  18.522  0.00  0.00    +0.000 A 
ATOM     10  N   UNL     1       8.656   7.720  19.079  0.00  0.00    +0.000 N 
ATOM     11  H   UNL     1       9.265   7.607  19.873  0.00  0.00    +0.000 HD
ENDROOT
BRANCH   1  15
ATOM     12  C   UNL     1      10.128  12.719  19.452  0.00  0.00    +0.000 A 
ATOM     13  C   UNL     1      10.185  11.615  20.316  0.00  0.00    +0.000 A 
ATOM     14  C   UNL     1       9.635  10.369  19.979  0.00  0.00    +0.000 A 
ATOM     15  C   UNL     1       9.016  10.171  18.744  0.00  0.00    +0.000 A 
ATOM     16  C   UNL     1       8.964  11.249  17.859  0.00  0.00    +0.000 A 
ATOM     17  C   UNL     1       9.518  12.491  18.207  0.00  0.00    +0.000 A 
BRANCH  12  19
ATOM     18  C   UNL     1      10.296  14.586  21.067  0.00  0.00    +0.000 C 
ATOM     19  N   UNL     1      10.664  13.961  19.799  0.00  0.00    +0.000 N 
ATOM     20  C   UNL     1      11.122  14.854  18.738  0.00  0.00    +0.000 C 
ENDBRANCH  12  19
ENDBRANCH   1  15
TORSDOF 2
ENDMDL
MODEL 3
REMARK VINA RESULT:      -6.8      6.552      7.753
REMARK  Name = 
REMARK  4 active torsions:
REMARK  status: ('A' for Active; 'I' for Inactive)
REMARK    1  A    between atoms: C_1  and  N_2
REMARK    2  A    between atoms: N_2  and  C_3
REMARK    3  A    between atoms: N_2  and  C_4
REMARK    4  A    between atoms: C_7  and  C_8
REMARK                            x       y       z     vdW  Elec       q    Type
REMARK                         _______ _______ _______ _____ _____    ______ ____
ROOT
ATOM      1  C   UNL     1       2.701   7.229  18.647  0.00  0.00    +0.000 A 
ATOM      2  N   UNL     1       3.567   7.588  17.711  0.00  0.00    +0.000 NA
ATOM      3  C   UNL     1       4.087   6.418  17.212  0.00  0.00    +0.000 A 
ATOM      4  C   UNL     1       5.009   6.171  16.189  0.00  0.00    +0.000 A 
ATOM      5  C   UNL     1       5.315   4.833  15.934  0.00  0.00    +0.000 A 
ATOM      6 BR   UNL     1       6.542   4.389  14.568  0.00  0.00    +0.000 Br
ATOM      7  C   UNL     1       4.711   3.827  16.689  0.00  0.00    +0.000 A 
ATOM      8  N   UNL     1       3.813   4.020  17.690  0.00  0.00    +0.000 NA
ATOM      9  C   UNL     1       3.557   5.326  17.882  0.00  0.00    +0.000 A 
ATOM     10  N   UNL     1       2.702   5.858  18.797  0.00  0.00    +0.000 N 
ATOM     11  H   UNL     1       2.163   5.325  19.459  0.00  0.00    +0.000 HD
ENDROOT
BRANCH   1  15
ATOM     12  C   UNL     1       0.131   9.854  20.944  0.00  0.00    +0.000 A 
ATOM     13  C   UNL     1       0.680   8.687  21.494  0.00  0.00    +0.000 A 
ATOM     14  C   UNL     1       1.513   7.829  20.760  0.00  0.00    +0.000 A 
ATOM     15  C   UNL     1       1.849   8.120  19.437  0.00  0.00    +0.000 A 
ATOM     16  C   UNL     1       1.332   9.287  18.872  0.00  0.00    +0.000 A 
ATOM     17  C   UNL     1       0.499  10.137  19.617  0.00  0.00    +0.000 A 
BRANCH  12  19
ATOM     18  C   UNL     1      -0.954  12.060  21.216  0.00  0.00    +0.000 C 
ATOM     19  N   UNL     1      -0.709  10.696  21.675  0.00  0.00    +0.000 N 
ATOM     20  C   UNL     1      -0.898  10.441  23.100  0.00  0.00    +0.000 C 
ENDBRANCH  12  19
ENDBRANCH   1  15
TORSDOF 2
ENDMDL
MODEL 4
REMARK VINA RESULT:      -6.7      6.566      7.634
REMARK  Name = 
REMARK  4 active torsions:
REMARK  status: ('A' for Active; 'I' for Inactive)
REMARK    1  A    between atoms: C_1  and  N_2
REMARK    2  A    between atoms: N_2  and  C_3
REMARK    3  A    between atoms: N_2  and  C_4
REMARK    4  A    between atoms: C_7  and  C_8
REMARK                            x       y       z     vdW  Elec       q    Type
REMARK                         _______ _______ _______ _____ _____    ______ ____
ROOT
ATOM      1  C   UNL     1       2.816   7.178  18.492  0.00  0.00    +0.000 A 
ATOM      2  N   UNL     1       3.673   7.544  17.550  0.00  0.00    +0.000 NA
ATOM      3  C   UNL     1       4.185   6.377  17.034  0.00  0.00    +0.000 A 
ATOM      4  C   UNL     1       5.094   6.138  15.999  0.00  0.00    +0.000 A 
ATOM      5  C   UNL     1       5.394   4.801  15.728  0.00  0.00    +0.000 A 
ATOM      6 BR   UNL     1       6.605   4.366  14.345  0.00  0.00    +0.000 Br
ATOM      7  C   UNL     1       4.795   3.790  16.480  0.00  0.00    +0.000 A 
ATOM      8  N   UNL     1       3.909   3.976  17.493  0.00  0.00    +0.000 NA
ATOM      9  C   UNL     1       3.659   5.281  17.700  0.00  0.00    +0.000 A 
ATOM     10  N   UNL     1       2.815   5.807  18.629  0.00  0.00    +0.000 N 
ATOM     11  H   UNL     1       2.281   5.268  19.292  0.00  0.00    +0.000 HD
ENDROOT
BRANCH   1  15
ATOM     12  C   UNL     1       0.378   9.811  20.920  0.00  0.00    +0.000 A 
ATOM     13  C   UNL     1       0.680  10.105  19.583  0.00  0.00    +0.000 A 
ATOM     14  C   UNL     1       1.469   9.260  18.787  0.00  0.00    +0.000 A 
ATOM     15  C   UNL     1       1.976   8.064  19.299  0.00  0.00    +0.000 A 
ATOM     16  C   UNL     1       1.672   7.740  20.622  0.00  0.00    +0.000 A 
ATOM     17  C   UNL     1       0.882   8.593  21.408  0.00  0.00    +0.000 A 
BRANCH  12  19
ATOM     18  C   UNL     1      -0.838  10.228  23.034  0.00  0.00    +0.000 C 
ATOM     19  N   UNL     1      -0.396  10.663  21.712  0.00  0.00    +0.000 N 
ATOM     20  C   UNL     1      -1.192  11.700  21.062  0.00  0.00    +0.000 C 
ENDBRANCH  12  19
ENDBRANCH   1  15
TORSDOF 2
ENDMDL
MODEL 5
REMARK VINA RESULT:      -6.7      7.781      8.606
REMARK  Name = 
REMARK  4 active torsions:
REMARK  status: ('A' for Active; 'I' for Inactive)
REMARK    1  A    between atoms: C_1  and  N_2
REMARK    2  A    between atoms: N_2  and  C_3
REMARK    3  A    between atoms: N_2  and  C_4
REMARK    4  A    between atoms: C_7  and  C_8
REMARK                            x       y       z     vdW  Elec       q    Type
REMARK                         _______ _______ _______ _____ _____    ______ ____
ROOT
ATOM      1  C   UNL     1       1.485   8.140  20.459  0.00  0.00    +0.000 A 
ATOM      2  N   UNL     1       2.056   8.197  19.264  0.00  0.00    +0.000 NA
ATOM      3  C   UNL     1       2.605   6.955  19.051  0.00  0.00    +0.000 A 
ATOM      4  C   UNL     1       3.294   6.419  17.959  0.00  0.00    +0.000 A 
ATOM      5  C   UNL     1       3.717   5.093  18.078  0.00  0.00    +0.000 A 
ATOM      6 BR   UNL     1       4.649   4.267  16.657  0.00  0.00    +0.000 Br
ATOM      7  C   UNL     1       3.446   4.381  19.246  0.00  0.00    +0.000 A 
ATOM      8  N   UNL     1       2.783   4.861  20.330  0.00  0.00    +0.000 NA
ATOM      9  C   UNL     1       2.399   6.137  20.152  0.00  0.00    +0.000 A 
ATOM     10  N   UNL     1       1.710   6.908  21.036  0.00  0.00    +0.000 N 
ATOM     11  H   UNL     1       1.415   6.610  21.952  0.00  0.00    +0.000 HD
ENDROOT
BRANCH   1  15
ATOM     12  C   UNL     1      -0.736  11.285  22.445  0.00  0.00    +0.000 A 
ATOM     13  C   UNL     1      -0.093  11.495  21.216  0.00  0.00    +0.000 A 
ATOM     14  C   UNL     1       0.629  10.484  20.564  0.00  0.00    +0.000 A 
ATOM     15  C   UNL     1       0.721   9.203  21.113  0.00  0.00    +0.000 A 
ATOM     16  C   UNL     1       0.073   8.965  22.326  0.00  0.00    +0.000 A 
ATOM     17  C   UNL     1      -0.646   9.984  22.969  0.00  0.00    +0.000 A 
BRANCH  12  19
ATOM     18  C   UNL     1      -2.854  12.117  23.416  0.00  0.00    +0.000 C 
ATOM     19  N   UNL     1      -1.440  12.300  23.096  0.00  0.00    +0.000 N 
ATOM     20  C   UNL     1      -0.970  13.677  22.975  0.00  0.00    +0.000 C 
ENDBRANCH  12  19
ENDBRANCH   1  15
TORSDOF 2
ENDMDL
MODEL 6
REMARK VINA RESULT:      -6.6      7.658      8.579
REMARK  Name = 
REMARK  4 active torsions:
REMARK  status: ('A' for Active; 'I' for Inactive)
REMARK    1  A    between atoms: C_1  and  N_2
REMARK    2  A    between atoms: N_2  and  C_3
REMARK    3  A    between atoms: N_2  and  C_4
REMARK    4  A    between atoms: C_7  and  C_8
REMARK                            x       y       z     vdW  Elec       q    Type
REMARK                         _______ _______ _______ _____ _____    ______ ____
ROOT
ATOM      1  C   UNL     1       1.552   8.085  20.292  0.00  0.00    +0.000 A 
ATOM      2  N   UNL     1       2.098   8.105  19.085  0.00  0.00    +0.000 NA
ATOM      3  C   UNL     1       2.669   6.867  18.910  0.00  0.00    +0.000 A 
ATOM      4  C   UNL     1       3.347   6.300  17.827  0.00  0.00    +0.000 A 
ATOM      5  C   UNL     1       3.798   4.989  17.989  0.00  0.00    +0.000 A 
ATOM      6 BR   UNL     1       4.719   4.125  16.584  0.00  0.00    +0.000 Br
ATOM      7  C   UNL     1       3.564   4.319  19.191  0.00  0.00    +0.000 A 
ATOM      8  N   UNL     1       2.912   4.829  20.267  0.00  0.00    +0.000 NA
ATOM      9  C   UNL     1       2.500   6.090  20.046  0.00  0.00    +0.000 A 
ATOM     10  N   UNL     1       1.812   6.882  20.913  0.00  0.00    +0.000 N 
ATOM     11  H   UNL     1       1.541   6.614  21.845  0.00  0.00    +0.000 HD
ENDROOT
BRANCH   1  15
ATOM     12  C   UNL     1      -0.782  11.254  22.104  0.00  0.00    +0.000 A 
ATOM     13  C   UNL     1      -0.450  10.085  22.804  0.00  0.00    +0.000 A 
ATOM     14  C   UNL     1       0.305   9.052  22.228  0.00  0.00    +0.000 A 
ATOM     15  C   UNL     1       0.779   9.158  20.919  0.00  0.00    +0.000 A 
ATOM     16  C   UNL     1       0.478  10.321  20.208  0.00  0.00    +0.000 A 
ATOM     17  C   UNL     1      -0.278  11.347  20.795  0.00  0.00    +0.000 A 
BRANCH  12  19
ATOM     18  C   UNL     1      -0.923  13.548  23.019  0.00  0.00    +0.000 C 
ATOM     19  N   UNL     1      -1.546  12.271  22.678  0.00  0.00    +0.000 N 
ATOM     20  C   UNL     1      -2.756  11.916  23.415  0.00  0.00    +0.000 C 
ENDBRANCH  12  19
ENDBRANCH   1  15
TORSDOF 2
ENDMDL
MODEL 7
REMARK VINA RESULT:      -6.5      6.806      8.120
REMARK  Name = 
REMARK  4 active torsions:
REMARK  status: ('A' for Active; 'I' for Inactive)
REMARK    1  A    between atoms: C_1  and  N_2
REMARK    2  A    between atoms: N_2  and  C_3
REMARK    3  A    between atoms: N_2  and  C_4
REMARK    4  A    between atoms: C_7  and  C_8
REMARK                            x       y       z     vdW  Elec       q    Type
REMARK                         _______ _______ _______ _____ _____    ______ ____
ROOT
ATOM      1  C   UNL     1       2.263   7.612  19.491  0.00  0.00    +0.000 A 
ATOM      2  N   UNL     1       2.806   7.662  18.283  0.00  0.00    +0.000 NA
ATOM      3  C   UNL     1       3.497   6.483  18.133  0.00  0.00    +0.000 A 
ATOM      4  C   UNL     1       4.229   5.964  17.061  0.00  0.00    +0.000 A 
ATOM      5  C   UNL     1       4.807   4.707  17.250  0.00  0.00    +0.000 A 
ATOM      6 BR   UNL     1       5.811   3.911  15.862  0.00  0.00    +0.000 Br
ATOM      7  C   UNL     1       4.640   4.042  18.465  0.00  0.00    +0.000 A 
ATOM      8  N   UNL     1       3.939   4.508  19.532  0.00  0.00    +0.000 NA
ATOM      9  C   UNL     1       3.404   5.716  19.285  0.00  0.00    +0.000 A 
ATOM     10  N   UNL     1       2.641   6.454  20.137  0.00  0.00    +0.000 N 
ATOM     11  H   UNL     1       2.396   6.180  21.074  0.00  0.00    +0.000 HD
ENDROOT
BRANCH   1  15
ATOM     12  C   UNL     1      -0.375  10.571  21.240  0.00  0.00    +0.000 A 
ATOM     13  C   UNL     1       0.072   9.456  21.964  0.00  0.00    +0.000 A 
ATOM     14  C   UNL     1       0.926   8.492  21.408  0.00  0.00    +0.000 A 
ATOM     15  C   UNL     1       1.387   8.617  20.096  0.00  0.00    +0.000 A 
ATOM     16  C   UNL     1       0.972   9.729  19.361  0.00  0.00    +0.000 A 
ATOM     17  C   UNL     1       0.118  10.687  19.928  0.00  0.00    +0.000 A 
BRANCH  12  19
ATOM     18  C   UNL     1      -1.695  11.371  23.173  0.00  0.00    +0.000 C 
ATOM     19  N   UNL     1      -1.237  11.520  21.794  0.00  0.00    +0.000 N 
ATOM     20  C   UNL     1      -2.083  12.310  20.905  0.00  0.00    +0.000 C 
ENDBRANCH  12  19
ENDBRANCH   1  15
TORSDOF 2
ENDMDL
MODEL 8
REMARK VINA RESULT:      -6.5      6.899      8.985
REMARK  Name = 
REMARK  4 active torsions:
REMARK  status: ('A' for Active; 'I' for Inactive)
REMARK    1  A    between atoms: C_1  and  N_2
REMARK    2  A    between atoms: N_2  and  C_3
REMARK    3  A    between atoms: N_2  and  C_4
REMARK    4  A    between atoms: C_7  and  C_8
REMARK                            x       y       z     vdW  Elec       q    Type
REMARK                         _______ _______ _______ _____ _____    ______ ____
ROOT
ATOM      1  C   UNL     1       2.189   7.853  19.411  0.00  0.00    +0.000 A 
ATOM      2  N   UNL     1       1.536   8.848  18.829  0.00  0.00    +0.000 NA
ATOM      3  C   UNL     1       0.789   9.437  19.821  0.00  0.00    +0.000 A 
ATOM      4  C   UNL     1      -0.062  10.547  19.809  0.00  0.00    +0.000 A 
ATOM      5  C   UNL     1      -0.668  10.882  21.022  0.00  0.00    +0.000 A 
ATOM      6 BR   UNL     1      -1.830  12.368  21.118  0.00  0.00    +0.000 Br
ATOM      7  C   UNL     1      -0.412  10.117  22.160  0.00  0.00    +0.000 A 
ATOM      8  N   UNL     1       0.405   9.033  22.217  0.00  0.00    +0.000 NA
ATOM      9  C   UNL     1       0.961   8.766  21.022  0.00  0.00    +0.000 A 
ATOM     10  N   UNL     1       1.830   7.758  20.739  0.00  0.00    +0.000 N 
ATOM     11  H   UNL     1       2.152   7.073  21.402  0.00  0.00    +0.000 HD
ENDROOT
BRANCH   1  15
ATOM     12  C   UNL     1       5.100   5.243  17.543  0.00  0.00    +0.000 A 
ATOM     13  C   UNL     1       4.492   4.920  18.765  0.00  0.00    +0.000 A 
ATOM     14  C   UNL     1       3.548   5.758  19.379  0.00  0.00    +0.000 A 
ATOM     15  C   UNL     1       3.158   6.956  18.778  0.00  0.00    +0.000 A 
ATOM     16  C   UNL     1       3.734   7.289  17.551  0.00  0.00    +0.000 A 
ATOM     17  C   UNL     1       4.677   6.443  16.947  0.00  0.00    +0.000 A 
BRANCH  12  19
ATOM     18  C   UNL     1       7.458   4.530  17.313  0.00  0.00    +0.000 C 
ATOM     19  N   UNL     1       6.049   4.412  16.944  0.00  0.00    +0.000 N 
ATOM     20  C   UNL     1       5.762   3.843  15.631  0.00  0.00    +0.000 C 
ENDBRANCH  12  19
ENDBRANCH   1  15
TORSDOF 2
ENDMDL
MODEL 9
REMARK VINA RESULT:      -6.4      7.946     10.283
REMARK  Name = 
REMARK  4 active torsions:
REMARK  status: ('A' for Active; 'I' for Inactive)
REMARK    1  A    between atoms: C_1  and  N_2
REMARK    2  A    between atoms: N_2  and  C_3
REMARK    3  A    between atoms: N_2  and  C_4
REMARK    4  A    between atoms: C_7  and  C_8
REMARK                            x       y       z     vdW  Elec       q    Type
REMARK                         _______ _______ _______ _____ _____    ______ ____
ROOT
ATOM      1  C   UNL     1       1.471   8.065  20.368  0.00  0.00    +0.000 A 
ATOM      2  N   UNL     1       0.990   8.403  21.555  0.00  0.00    +0.000 NA
ATOM      3  C   UNL     1       0.519   9.688  21.417  0.00  0.00    +0.000 A 
ATOM      4  C   UNL     1      -0.126  10.543  22.316  0.00  0.00    +0.000 A 
ATOM      5  C   UNL     1      -0.480  11.805  21.833  0.00  0.00    +0.000 A 
ATOM      6 BR   UNL     1      -1.362  13.035  22.961  0.00  0.00    +0.000 Br
ATOM      7  C   UNL     1      -0.181  12.151  20.514  0.00  0.00    +0.000 A 
ATOM      8  N   UNL     1       0.443  11.354  19.609  0.00  0.00    +0.000 NA
ATOM      9  C   UNL     1       0.752  10.155  20.133  0.00  0.00    +0.000 A 
ATOM     10  N   UNL     1       1.372   9.125  19.493  0.00  0.00    +0.000 N 
ATOM     11  H   UNL     1       1.690   9.150  18.538  0.00  0.00    +0.000 HD
ENDROOT
BRANCH   1  15
ATOM     12  C   UNL     1       3.093   4.206  19.251  0.00  0.00    +0.000 A 
ATOM     13  C   UNL     1       3.351   5.363  18.502  0.00  0.00    +0.000 A 
ATOM     14  C   UNL     1       2.832   6.618  18.855  0.00  0.00    +0.000 A 
ATOM     15  C   UNL     1       2.039   6.769  19.994  0.00  0.00    +0.000 A 
ATOM     16  C   UNL     1       1.784   5.635  20.767  0.00  0.00    +0.000 A 
ATOM     17  C   UNL     1       2.309   4.385  20.404  0.00  0.00    +0.000 A 
BRANCH  12  19
ATOM     18  C   UNL     1       2.951   2.185  17.831  0.00  0.00    +0.000 C 
ATOM     19  N   UNL     1       3.601   2.957  18.887  0.00  0.00    +0.000 N 
ATOM     20  C   UNL     1       4.388   2.204  19.859  0.00  0.00    +0.000 C 
ENDBRANCH  12  19
ENDBRANCH   1  15
TORSDOF 2
ENDMDL
