MODEL 1
REMARK VINA RESULT:      -7.6      0.000      0.000
REMARK  Name = 
REMARK  7 active torsions:
REMARK  status: ('A' for Active; 'I' for Inactive)
REMARK    1  A    between atoms: C_2  and  C_7
REMARK    2  A    between atoms: N_3  and  C_4
REMARK    3  A    between atoms: C_4  and  C_5
REMARK    4  A    between atoms: C_5  and  O_6
REMARK    5  A    between atoms: C_8  and  O_9
REMARK    6  A    between atoms: C_13  and  C_14
REMARK    7  A    between atoms: C_14  and  C_15
REMARK                            x       y       z     vdW  Elec       q    Type
REMARK                         _______ _______ _______ _____ _____    ______ ____
ROOT
ATOM      1  C   UNL     1      -0.366  11.031  21.799  0.00  0.00    +0.000 A 
ATOM      2  C   UNL     1      -0.106  11.081  20.470  0.00  0.00    +0.000 A 
ATOM      3  C   UNL     1       0.668   9.997  19.821  0.00  0.00    +0.000 A 
ATOM      4  N   UNL     1       0.902  10.046  18.489  0.00  0.00    +0.000 NA
ATOM      5  C   UNL     1       1.650   9.055  17.960  0.00  0.00    +0.000 A 
ATOM      6  C   UNL     1       2.192   7.995  18.687  0.00  0.00    +0.000 A 
ATOM      7  C   UNL     1       1.948   7.972  20.063  0.00  0.00    +0.000 A 
ATOM      8  C   UNL     1       1.161   8.972  20.627  0.00  0.00    +0.000 A 
ATOM      9  N   UNL     1       0.862   8.924  21.985  0.00  0.00    +0.000 N 
ATOM     10  C   UNL     1       0.079   9.854  22.601  0.00  0.00    +0.000 A 
ATOM     11  O   UNL     1      -0.239   9.708  23.781  0.00  0.00    +0.000 OA
ATOM     12  H   UNL     1       1.179   8.159  22.560  0.00  0.00    +0.000 HD
ENDROOT
BRANCH   1  14
ATOM     13  O   UNL     1      -0.535  13.271  22.547  0.00  0.00    +0.000 OA
ATOM     14  C   UNL     1      -1.077  12.167  22.446  0.00  0.00    +0.000 C 
ATOM     15  N   UNL     1      -2.343  11.921  22.903  0.00  0.00    +0.000 N 
ATOM     16  H   UNL     1      -2.676  10.952  22.934  0.00  0.00    +0.000 HD
BRANCH  15  17
ATOM     17  C   UNL     1      -3.129  12.938  23.574  0.00  0.00    +0.000 C 
BRANCH  17  18
ATOM     18  C   UNL     1      -4.147  12.342  24.548  0.00  0.00    +0.000 C 
BRANCH  18  19
ATOM     19  O   UNL     1      -5.358  13.097  24.542  0.00  0.00    +0.000 OA
ATOM     20  H   UNL     1      -5.967  12.644  25.153  0.00  0.00    +0.000 HD
ENDBRANCH  18  19
ENDBRANCH  17  18
ENDBRANCH  15  17
ENDBRANCH   1  14
BRANCH   2  21
ATOM     21  O   UNL     1      -0.490  12.118  19.633  0.00  0.00    +0.000 OA
ATOM     22  H   UNL     1      -0.809  12.872  20.174  0.00  0.00    +0.000 HD
ENDBRANCH   2  21
BRANCH   6  23
ATOM     23  C   UNL     1       2.958   6.892  18.014  0.00  0.00    +0.000 C 
BRANCH  23  24
ATOM     24  C   UNL     1       2.640   5.488  18.468  0.00  0.00    +0.000 A 
ATOM     25  C   UNL     1       1.586   4.772  17.879  0.00  0.00    +0.000 A 
ATOM     26  C   UNL     1       1.414   3.415  18.156  0.00  0.00    +0.000 A 
ATOM     27  C   UNL     1       2.281   2.781  19.038  0.00  0.00    +0.000 A 
ATOM     28  F   UNL     1       2.158   1.464  19.250  0.00  0.00    +0.000 F 
ATOM     29  C   UNL     1       3.289   3.488  19.681  0.00  0.00    +0.000 A 
ATOM     30  C   UNL     1       3.462   4.845  19.407  0.00  0.00    +0.000 A 
ENDBRANCH  23  24
ENDBRANCH   6  23
TORSDOF 7
ENDMDL
MODEL 2
REMARK VINA RESULT:      -7.6      0.913      1.334
REMARK  Name = 
REMARK  7 active torsions:
REMARK  status: ('A' for Active; 'I' for Inactive)
REMARK    1  A    between atoms: C_2  and  C_7
REMARK    2  A    between atoms: N_3  and  C_4
REMARK    3  A    between atoms: C_4  and  C_5
REMARK    4  A    between atoms: C_5  and  O_6
REMARK    5  A    between atoms: C_8  and  O_9
REMARK    6  A    between atoms: C_13  and  C_14
REMARK    7  A    between atoms: C_14  and  C_15
REMARK                            x       y       z     vdW  Elec       q    Type
REMARK                         _______ _______ _______ _____ _____    ______ ____
ROOT
ATOM      1  C   UNL     1      -0.045  10.656  21.710  0.00  0.00    +0.000 A 
ATOM      2  C   UNL     1       0.155  10.695  20.371  0.00  0.00    +0.000 A 
ATOM      3  C   UNL     1       0.927   9.621  19.702  0.00  0.00    +0.000 A 
ATOM      4  N   UNL     1       1.102   9.658  18.360  0.00  0.00    +0.000 NA
ATOM      5  C   UNL     1       1.851   8.679  17.810  0.00  0.00    +0.000 A 
ATOM      6  C   UNL     1       2.450   7.643  18.526  0.00  0.00    +0.000 A 
ATOM      7  C   UNL     1       2.267   7.632  19.912  0.00  0.00    +0.000 A 
ATOM      8  C   UNL     1       1.481   8.620  20.497  0.00  0.00    +0.000 A 
ATOM      9  N   UNL     1       1.243   8.582  21.867  0.00  0.00    +0.000 N 
ATOM     10  C   UNL     1       0.464   9.500  22.506  0.00  0.00    +0.000 A 
ATOM     11  O   UNL     1       0.202   9.363  23.701  0.00  0.00    +0.000 OA
ATOM     12  H   UNL     1       1.604   7.833  22.437  0.00  0.00    +0.000 HD
ENDROOT
BRANCH   1  14
ATOM     13  O   UNL     1      -0.257  12.912  22.398  0.00  0.00    +0.000 OA
ATOM     14  C   UNL     1      -0.756  11.782  22.374  0.00  0.00    +0.000 C 
ATOM     15  N   UNL     1      -1.971  11.499  22.934  0.00  0.00    +0.000 N 
ATOM     16  H   UNL     1      -2.257  10.518  23.021  0.00  0.00    +0.000 HD
BRANCH  15  17
ATOM     17  C   UNL     1      -2.749  12.505  23.632  0.00  0.00    +0.000 C 
BRANCH  17  18
ATOM     18  C   UNL     1      -3.739  13.220  22.711  0.00  0.00    +0.000 C 
BRANCH  18  19
ATOM     19  O   UNL     1      -3.092  14.261  21.979  0.00  0.00    +0.000 OA
ATOM     20  H   UNL     1      -3.650  15.053  22.076  0.00  0.00    +0.000 HD
ENDBRANCH  18  19
ENDBRANCH  17  18
ENDBRANCH  15  17
ENDBRANCH   1  14
BRANCH   2  21
ATOM     21  O   UNL     1      -0.291  11.711  19.538  0.00  0.00    +0.000 OA
ATOM     22  H   UNL     1      -0.746  11.319  18.762  0.00  0.00    +0.000 HD
ENDBRANCH   2  21
BRANCH   6  23
ATOM     23  C   UNL     1       3.214   6.549  17.834  0.00  0.00    +0.000 C 
BRANCH  23  24
ATOM     24  C   UNL     1       2.861   5.137  18.231  0.00  0.00    +0.000 A 
ATOM     25  C   UNL     1       3.693   4.414  19.102  0.00  0.00    +0.000 A 
ATOM     26  C   UNL     1       3.273   3.189  19.622  0.00  0.00    +0.000 A 
ATOM     27  C   UNL     1       2.035   2.677  19.254  0.00  0.00    +0.000 A 
ATOM     28  F   UNL     1       1.603   1.535  19.806  0.00  0.00    +0.000 F 
ATOM     29  C   UNL     1       1.227   3.345  18.342  0.00  0.00    +0.000 A 
ATOM     30  C   UNL     1       1.645   4.570  17.820  0.00  0.00    +0.000 A 
ENDBRANCH  23  24
ENDBRANCH   6  23
TORSDOF 7
ENDMDL
MODEL 3
REMARK VINA RESULT:      -7.5      4.810      8.715
REMARK  Name = 
REMARK  7 active torsions:
REMARK  status: ('A' for Active; 'I' for Inactive)
REMARK    1  A    between atoms: C_2  and  C_7
REMARK    2  A    between atoms: N_3  and  C_4
REMARK    3  A    between atoms: C_4  and  C_5
REMARK    4  A    between atoms: C_5  and  O_6
REMARK    5  A    between atoms: C_8  and  O_9
REMARK    6  A    between atoms: C_13  and  C_14
REMARK    7  A    between atoms: C_14  and  C_15
REMARK                            x       y       z     vdW  Elec       q    Type
REMARK                         _______ _______ _______ _____ _____    ______ ____
ROOT
ATOM      1  C   UNL     1       3.751   5.711  18.813  0.00  0.00    +0.000 A 
ATOM      2  C   UNL     1       2.900   6.236  19.727  0.00  0.00    +0.000 A 
ATOM      3  C   UNL     1       2.214   7.521  19.454  0.00  0.00    +0.000 A 
ATOM      4  N   UNL     1       1.349   8.025  20.365  0.00  0.00    +0.000 NA
ATOM      5  C   UNL     1       0.787   9.220  20.084  0.00  0.00    +0.000 A 
ATOM      6  C   UNL     1       1.037   9.961  18.929  0.00  0.00    +0.000 A 
ATOM      7  C   UNL     1       1.943   9.427  18.009  0.00  0.00    +0.000 A 
ATOM      8  C   UNL     1       2.518   8.187  18.268  0.00  0.00    +0.000 A 
ATOM      9  N   UNL     1       3.374   7.619  17.329  0.00  0.00    +0.000 N 
ATOM     10  C   UNL     1       3.955   6.398  17.503  0.00  0.00    +0.000 A 
ATOM     11  O   UNL     1       4.621   5.898  16.599  0.00  0.00    +0.000 OA
ATOM     12  H   UNL     1       3.559   8.078  16.451  0.00  0.00    +0.000 HD
ENDROOT
BRANCH   1  14
ATOM     13  O   UNL     1       5.715   4.475  19.282  0.00  0.00    +0.000 OA
ATOM     14  C   UNL     1       4.488   4.460  19.137  0.00  0.00    +0.000 C 
ATOM     15  N   UNL     1       3.742   3.322  19.273  0.00  0.00    +0.000 N 
ATOM     16  H   UNL     1       2.758   3.342  18.987  0.00  0.00    +0.000 HD
BRANCH  15  17
ATOM     17  C   UNL     1       4.347   2.036  19.562  0.00  0.00    +0.000 C 
BRANCH  17  18
ATOM     18  C   UNL     1       4.346   1.713  21.057  0.00  0.00    +0.000 C 
BRANCH  18  19
ATOM     19  O   UNL     1       5.628   1.249  21.479  0.00  0.00    +0.000 OA
ATOM     20  H   UNL     1       5.659   0.299  21.267  0.00  0.00    +0.000 HD
ENDBRANCH  18  19
ENDBRANCH  17  18
ENDBRANCH  15  17
ENDBRANCH   1  14
BRANCH   2  21
ATOM     21  O   UNL     1       2.626   5.669  20.963  0.00  0.00    +0.000 OA
ATOM     22  H   UNL     1       2.153   4.819  20.833  0.00  0.00    +0.000 HD
ENDBRANCH   2  21
BRANCH   6  23
ATOM     23  C   UNL     1       0.320  11.253  18.654  0.00  0.00    +0.000 C 
BRANCH  23  24
ATOM     24  C   UNL     1      -1.144  11.141  18.309  0.00  0.00    +0.000 A 
ATOM     25  C   UNL     1      -1.604  10.100  17.486  0.00  0.00    +0.000 A 
ATOM     26  C   UNL     1      -2.973   9.881  17.325  0.00  0.00    +0.000 A 
ATOM     27  C   UNL     1      -3.880  10.715  17.967  0.00  0.00    +0.000 A 
ATOM     28  F   UNL     1      -5.192  10.462  17.867  0.00  0.00    +0.000 F 
ATOM     29  C   UNL     1      -3.446  11.790  18.731  0.00  0.00    +0.000 A 
ATOM     30  C   UNL     1      -2.077  12.012  18.893  0.00  0.00    +0.000 A 
ENDBRANCH  23  24
ENDBRANCH   6  23
TORSDOF 7
ENDMDL
MODEL 4
REMARK VINA RESULT:      -7.5      4.795      8.707
REMARK  Name = 
REMARK  7 active torsions:
REMARK  status: ('A' for Active; 'I' for Inactive)
REMARK    1  A    between atoms: C_2  and  C_7
REMARK    2  A    between atoms: N_3  and  C_4
REMARK    3  A    between atoms: C_4  and  C_5
REMARK    4  A    between atoms: C_5  and  O_6
REMARK    5  A    between atoms: C_8  and  O_9
REMARK    6  A    between atoms: C_13  and  C_14
REMARK    7  A    between atoms: C_14  and  C_15
REMARK                            x       y       z     vdW  Elec       q    Type
REMARK                         _______ _______ _______ _____ _____    ______ ____
ROOT
ATOM      1  C   UNL     1       3.668   5.717  18.867  0.00  0.00    +0.000 A 
ATOM      2  C   UNL     1       2.827   6.247  19.789  0.00  0.00    +0.000 A 
ATOM      3  C   UNL     1       2.149   7.537  19.524  0.00  0.00    +0.000 A 
ATOM      4  N   UNL     1       1.294   8.045  20.442  0.00  0.00    +0.000 NA
ATOM      5  C   UNL     1       0.740   9.245  20.168  0.00  0.00    +0.000 A 
ATOM      6  C   UNL     1       0.989   9.988  19.014  0.00  0.00    +0.000 A 
ATOM      7  C   UNL     1       1.885   9.450  18.086  0.00  0.00    +0.000 A 
ATOM      8  C   UNL     1       2.451   8.204  18.338  0.00  0.00    +0.000 A 
ATOM      9  N   UNL     1       3.297   7.633  17.392  0.00  0.00    +0.000 N 
ATOM     10  C   UNL     1       3.869   6.407  17.559  0.00  0.00    +0.000 A 
ATOM     11  O   UNL     1       4.526   5.904  16.649  0.00  0.00    +0.000 OA
ATOM     12  H   UNL     1       3.480   8.093  16.514  0.00  0.00    +0.000 HD
ENDROOT
BRANCH   1  14
ATOM     13  O   UNL     1       5.630   4.417  19.120  0.00  0.00    +0.000 OA
ATOM     14  C   UNL     1       4.398   4.460  19.184  0.00  0.00    +0.000 C 
ATOM     15  N   UNL     1       3.639   3.382  19.550  0.00  0.00    +0.000 N 
ATOM     16  H   UNL     1       2.622   3.433  19.431  0.00  0.00    +0.000 HD
BRANCH  15  17
ATOM     17  C   UNL     1       4.231   2.094  19.857  0.00  0.00    +0.000 C 
BRANCH  17  18
ATOM     18  C   UNL     1       3.949   1.049  18.777  0.00  0.00    +0.000 C 
BRANCH  18  19
ATOM     19  O   UNL     1       2.842   1.442  17.966  0.00  0.00    +0.000 OA
ATOM     20  H   UNL     1       2.364   0.624  17.739  0.00  0.00    +0.000 HD
ENDBRANCH  18  19
ENDBRANCH  17  18
ENDBRANCH  15  17
ENDBRANCH   1  14
BRANCH   2  21
ATOM     21  O   UNL     1       2.557   5.678  21.025  0.00  0.00    +0.000 OA
ATOM     22  H   UNL     1       1.986   4.888  20.901  0.00  0.00    +0.000 HD
ENDBRANCH   2  21
BRANCH   6  23
ATOM     23  C   UNL     1       0.280  11.287  18.748  0.00  0.00    +0.000 C 
BRANCH  23  24
ATOM     24  C   UNL     1      -1.173  11.184  18.356  0.00  0.00    +0.000 A 
ATOM     25  C   UNL     1      -1.605  10.170  17.485  0.00  0.00    +0.000 A 
ATOM     26  C   UNL     1      -2.968   9.954  17.276  0.00  0.00    +0.000 A 
ATOM     27  C   UNL     1      -3.896  10.764  17.918  0.00  0.00    +0.000 A 
ATOM     28  F   UNL     1      -5.204  10.512  17.772  0.00  0.00    +0.000 F 
ATOM     29  C   UNL     1      -3.488  11.814  18.731  0.00  0.00    +0.000 A 
ATOM     30  C   UNL     1      -2.125  12.033  18.940  0.00  0.00    +0.000 A 
ENDBRANCH  23  24
ENDBRANCH   6  23
TORSDOF 7
ENDMDL
MODEL 5
REMARK VINA RESULT:      -7.5      0.921      1.078
REMARK  Name = 
REMARK  7 active torsions:
REMARK  status: ('A' for Active; 'I' for Inactive)
REMARK    1  A    between atoms: C_2  and  C_7
REMARK    2  A    between atoms: N_3  and  C_4
REMARK    3  A    between atoms: C_4  and  C_5
REMARK    4  A    between atoms: C_5  and  O_6
REMARK    5  A    between atoms: C_8  and  O_9
REMARK    6  A    between atoms: C_13  and  C_14
REMARK    7  A    between atoms: C_14  and  C_15
REMARK                            x       y       z     vdW  Elec       q    Type
REMARK                         _______ _______ _______ _____ _____    ______ ____
ROOT
ATOM      1  C   UNL     1      -0.851  11.119  21.373  0.00  0.00    +0.000 A 
ATOM      2  C   UNL     1      -0.536  10.966  20.064  0.00  0.00    +0.000 A 
ATOM      3  C   UNL     1       0.380   9.881  19.641  0.00  0.00    +0.000 A 
ATOM      4  N   UNL     1       0.670   9.724  18.328  0.00  0.00    +0.000 NA
ATOM      5  C   UNL     1       1.545   8.748  18.004  0.00  0.00    +0.000 A 
ATOM      6  C   UNL     1       2.165   7.902  18.924  0.00  0.00    +0.000 A 
ATOM      7  C   UNL     1       1.861   8.092  20.275  0.00  0.00    +0.000 A 
ATOM      8  C   UNL     1       0.944   9.078  20.629  0.00  0.00    +0.000 A 
ATOM      9  N   UNL     1       0.590   9.233  21.966  0.00  0.00    +0.000 N 
ATOM     10  C   UNL     1      -0.318  10.160  22.385  0.00  0.00    +0.000 A 
ATOM     11  O   UNL     1      -0.673  10.188  23.562  0.00  0.00    +0.000 OA
ATOM     12  H   UNL     1       0.961   8.623  22.677  0.00  0.00    +0.000 HD
ENDROOT
BRANCH   1  14
ATOM     13  O   UNL     1      -1.568  13.374  21.272  0.00  0.00    +0.000 OA
ATOM     14  C   UNL     1      -1.712  12.261  21.787  0.00  0.00    +0.000 C 
ATOM     15  N   UNL     1      -2.656  12.005  22.743  0.00  0.00    +0.000 N 
ATOM     16  H   UNL     1      -2.621  11.111  23.242  0.00  0.00    +0.000 HD
BRANCH  15  17
ATOM     17  C   UNL     1      -3.537  13.040  23.248  0.00  0.00    +0.000 C 
BRANCH  17  18
ATOM     18  C   UNL     1      -4.013  12.758  24.674  0.00  0.00    +0.000 C 
BRANCH  18  19
ATOM     19  O   UNL     1      -5.059  11.787  24.679  0.00  0.00    +0.000 OA
ATOM     20  H   UNL     1      -5.047  11.366  23.800  0.00  0.00    +0.000 HD
ENDBRANCH  18  19
ENDBRANCH  17  18
ENDBRANCH  15  17
ENDBRANCH   1  14
BRANCH   2  21
ATOM     21  O   UNL     1      -0.992  11.789  19.044  0.00  0.00    +0.000 OA
ATOM     22  H   UNL     1      -0.376  11.733  18.282  0.00  0.00    +0.000 HD
ENDBRANCH   2  21
BRANCH   6  23
ATOM     23  C   UNL     1       3.078   6.794  18.481  0.00  0.00    +0.000 C 
BRANCH  23  24
ATOM     24  C   UNL     1       2.534   5.392  18.608  0.00  0.00    +0.000 A 
ATOM     25  C   UNL     1       1.776   5.023  19.731  0.00  0.00    +0.000 A 
ATOM     26  C   UNL     1       1.111   3.796  19.759  0.00  0.00    +0.000 A 
ATOM     27  C   UNL     1       1.223   2.931  18.678  0.00  0.00    +0.000 A 
ATOM     28  F   UNL     1       0.530   1.784  18.677  0.00  0.00    +0.000 F 
ATOM     29  C   UNL     1       2.021   3.250  17.587  0.00  0.00    +0.000 A 
ATOM     30  C   UNL     1       2.688   4.476  17.557  0.00  0.00    +0.000 A 
ENDBRANCH  23  24
ENDBRANCH   6  23
TORSDOF 7
ENDMDL
MODEL 6
REMARK VINA RESULT:      -7.5      1.504      2.653
REMARK  Name = 
REMARK  7 active torsions:
REMARK  status: ('A' for Active; 'I' for Inactive)
REMARK    1  A    between atoms: C_2  and  C_7
REMARK    2  A    between atoms: N_3  and  C_4
REMARK    3  A    between atoms: C_4  and  C_5
REMARK    4  A    between atoms: C_5  and  O_6
REMARK    5  A    between atoms: C_8  and  O_9
REMARK    6  A    between atoms: C_13  and  C_14
REMARK    7  A    between atoms: C_14  and  C_15
REMARK                            x       y       z     vdW  Elec       q    Type
REMARK                         _______ _______ _______ _____ _____    ______ ____
ROOT
ATOM      1  C   UNL     1      -0.832  11.438  20.092  0.00  0.00    +0.000 A 
ATOM      2  C   UNL     1      -0.275  10.386  20.740  0.00  0.00    +0.000 A 
ATOM      3  C   UNL     1       0.663   9.486  20.029  0.00  0.00    +0.000 A 
ATOM      4  N   UNL     1       1.231   8.452  20.692  0.00  0.00    +0.000 NA
ATOM      5  C   UNL     1       2.042   7.638  19.983  0.00  0.00    +0.000 A 
ATOM      6  C   UNL     1       2.330   7.792  18.627  0.00  0.00    +0.000 A 
ATOM      7  C   UNL     1       1.722   8.859  17.959  0.00  0.00    +0.000 A 
ATOM      8  C   UNL     1       0.899   9.723  18.676  0.00  0.00    +0.000 A 
ATOM      9  N   UNL     1       0.338  10.823  18.034  0.00  0.00    +0.000 N 
ATOM     10  C   UNL     1      -0.458  11.724  18.676  0.00  0.00    +0.000 A 
ATOM     11  O   UNL     1      -0.844  12.734  18.089  0.00  0.00    +0.000 OA
ATOM     12  H   UNL     1       0.544  11.022  17.068  0.00  0.00    +0.000 HD
ENDROOT
BRANCH   1  14
ATOM     13  O   UNL     1      -1.619  12.672  21.954  0.00  0.00    +0.000 OA
ATOM     14  C   UNL     1      -1.831  12.284  20.801  0.00  0.00    +0.000 C 
ATOM     15  N   UNL     1      -2.966  12.607  20.109  0.00  0.00    +0.000 N 
ATOM     16  H   UNL     1      -3.156  12.128  19.223  0.00  0.00    +0.000 HD
BRANCH  15  17
ATOM     17  C   UNL     1      -4.025  13.404  20.700  0.00  0.00    +0.000 C 
BRANCH  17  18
ATOM     18  C   UNL     1      -5.197  12.550  21.187  0.00  0.00    +0.000 C 
BRANCH  18  19
ATOM     19  O   UNL     1      -5.126  12.348  22.598  0.00  0.00    +0.000 OA
ATOM     20  H   UNL     1      -6.028  12.482  22.940  0.00  0.00    +0.000 HD
ENDBRANCH  18  19
ENDBRANCH  17  18
ENDBRANCH  15  17
ENDBRANCH   1  14
BRANCH   2  21
ATOM     21  O   UNL     1      -0.540  10.044  22.058  0.00  0.00    +0.000 OA
ATOM     22  H   UNL     1      -0.086   9.201  22.273  0.00  0.00    +0.000 HD
ENDBRANCH   2  21
BRANCH   6  23
ATOM     23  C   UNL     1       3.298   6.884  17.922  0.00  0.00    +0.000 C 
BRANCH  23  24
ATOM     24  C   UNL     1       3.085   5.403  18.118  0.00  0.00    +0.000 A 
ATOM     25  C   UNL     1       4.075   4.618  18.732  0.00  0.00    +0.000 A 
ATOM     26  C   UNL     1       3.804   3.296  19.089  0.00  0.00    +0.000 A 
ATOM     27  C   UNL     1       2.555   2.754  18.814  0.00  0.00    +0.000 A 
ATOM     28  F   UNL     1       2.272   1.509  19.219  0.00  0.00    +0.000 F 
ATOM     29  C   UNL     1       1.586   3.494  18.149  0.00  0.00    +0.000 A 
ATOM     30  C   UNL     1       1.854   4.816  17.789  0.00  0.00    +0.000 A 
ENDBRANCH  23  24
ENDBRANCH   6  23
TORSDOF 7
ENDMDL
MODEL 7
REMARK VINA RESULT:      -7.4      1.555      2.532
REMARK  Name = 
REMARK  7 active torsions:
REMARK  status: ('A' for Active; 'I' for Inactive)
REMARK    1  A    between atoms: C_2  and  C_7
REMARK    2  A    between atoms: N_3  and  C_4
REMARK    3  A    between atoms: C_4  and  C_5
REMARK    4  A    between atoms: C_5  and  O_6
REMARK    5  A    between atoms: C_8  and  O_9
REMARK    6  A    between atoms: C_13  and  C_14
REMARK    7  A    between atoms: C_14  and  C_15
REMARK                            x       y       z     vdW  Elec       q    Type
REMARK                         _______ _______ _______ _____ _____    ______ ____
ROOT
ATOM      1  C   UNL     1      -0.570  11.378  20.282  0.00  0.00    +0.000 A 
ATOM      2  C   UNL     1      -0.036  10.275  20.859  0.00  0.00    +0.000 A 
ATOM      3  C   UNL     1       0.842   9.376  20.075  0.00  0.00    +0.000 A 
ATOM      4  N   UNL     1       1.388   8.288  20.668  0.00  0.00    +0.000 NA
ATOM      5  C   UNL     1       2.142   7.480  19.894  0.00  0.00    +0.000 A 
ATOM      6  C   UNL     1       2.394   7.689  18.538  0.00  0.00    +0.000 A 
ATOM      7  C   UNL     1       1.809   8.810  17.944  0.00  0.00    +0.000 A 
ATOM      8  C   UNL     1       1.045   9.669  18.728  0.00  0.00    +0.000 A 
ATOM      9  N   UNL     1       0.509  10.820  18.159  0.00  0.00    +0.000 N 
ATOM     10  C   UNL     1      -0.229  11.720  18.869  0.00  0.00    +0.000 A 
ATOM     11  O   UNL     1      -0.592  12.771  18.344  0.00  0.00    +0.000 OA
ATOM     12  H   UNL     1       0.693  11.059  17.197  0.00  0.00    +0.000 HD
ENDROOT
BRANCH   1  14
ATOM     13  O   UNL     1      -1.171  12.702  22.151  0.00  0.00    +0.000 OA
ATOM     14  C   UNL     1      -1.510  12.227  21.063  0.00  0.00    +0.000 C 
ATOM     15  N   UNL     1      -2.741  12.452  20.510  0.00  0.00    +0.000 N 
ATOM     16  H   UNL     1      -3.019  11.906  19.689  0.00  0.00    +0.000 HD
BRANCH  15  17
ATOM     17  C   UNL     1      -3.754  13.241  21.185  0.00  0.00    +0.000 C 
BRANCH  17  18
ATOM     18  C   UNL     1      -5.152  13.017  20.606  0.00  0.00    +0.000 C 
BRANCH  18  19
ATOM     19  O   UNL     1      -5.823  11.960  21.290  0.00  0.00    +0.000 OA
ATOM     20  H   UNL     1      -5.161  11.261  21.432  0.00  0.00    +0.000 HD
ENDBRANCH  18  19
ENDBRANCH  17  18
ENDBRANCH  15  17
ENDBRANCH   1  14
BRANCH   2  21
ATOM     21  O   UNL     1      -0.274   9.879  22.167  0.00  0.00    +0.000 OA
ATOM     22  H   UNL     1      -0.367  10.674  22.736  0.00  0.00    +0.000 HD
ENDBRANCH   2  21
BRANCH   6  23
ATOM     23  C   UNL     1       3.302   6.779  17.759  0.00  0.00    +0.000 C 
BRANCH  23  24
ATOM     24  C   UNL     1       3.219   5.310  18.093  0.00  0.00    +0.000 A 
ATOM     25  C   UNL     1       2.093   4.558  17.719  0.00  0.00    +0.000 A 
ATOM     26  C   UNL     1       2.098   3.169  17.852  0.00  0.00    +0.000 A 
ATOM     27  C   UNL     1       3.217   2.535  18.379  0.00  0.00    +0.000 A 
ATOM     28  F   UNL     1       3.248   1.197  18.442  0.00  0.00    +0.000 F 
ATOM     29  C   UNL     1       4.314   3.267  18.815  0.00  0.00    +0.000 A 
ATOM     30  C   UNL     1       4.310   4.657  18.685  0.00  0.00    +0.000 A 
ENDBRANCH  23  24
ENDBRANCH   6  23
TORSDOF 7
ENDMDL
MODEL 8
REMARK VINA RESULT:      -7.4      1.469      1.863
REMARK  Name = 
REMARK  7 active torsions:
REMARK  status: ('A' for Active; 'I' for Inactive)
REMARK    1  A    between atoms: C_2  and  C_7
REMARK    2  A    between atoms: N_3  and  C_4
REMARK    3  A    between atoms: C_4  and  C_5
REMARK    4  A    between atoms: C_5  and  O_6
REMARK    5  A    between atoms: C_8  and  O_9
REMARK    6  A    between atoms: C_13  and  C_14
REMARK    7  A    between atoms: C_14  and  C_15
REMARK                            x       y       z     vdW  Elec       q    Type
REMARK                         _______ _______ _______ _____ _____    ______ ____
ROOT
ATOM      1  C   UNL     1      -0.380  10.526  21.108  0.00  0.00    +0.000 A 
ATOM      2  C   UNL     1       0.082  10.571  19.835  0.00  0.00    +0.000 A 
ATOM      3  C   UNL     1       0.968   9.499  19.325  0.00  0.00    +0.000 A 
ATOM      4  N   UNL     1       1.404   9.543  18.045  0.00  0.00    +0.000 NA
ATOM      5  C   UNL     1       2.245   8.565  17.648  0.00  0.00    +0.000 A 
ATOM      6  C   UNL     1       2.689   7.523  18.462  0.00  0.00    +0.000 A 
ATOM      7  C   UNL     1       2.237   7.505  19.784  0.00  0.00    +0.000 A 
ATOM      8  C   UNL     1       1.352   8.492  20.208  0.00  0.00    +0.000 A 
ATOM      9  N   UNL     1       0.848   8.447  21.504  0.00  0.00    +0.000 N 
ATOM     10  C   UNL     1      -0.040   9.364  21.982  0.00  0.00    +0.000 A 
ATOM     11  O   UNL     1      -0.533   9.221  23.100  0.00  0.00    +0.000 OA
ATOM     12  H   UNL     1       1.088   7.694  22.130  0.00  0.00    +0.000 HD
ENDROOT
BRANCH   1  14
ATOM     13  O   UNL     1      -2.156  12.085  20.967  0.00  0.00    +0.000 OA
ATOM     14  C   UNL     1      -1.206  11.650  21.625  0.00  0.00    +0.000 C 
ATOM     15  N   UNL     1      -0.862  12.155  22.849  0.00  0.00    +0.000 N 
ATOM     16  H   UNL     1       0.025  11.863  23.271  0.00  0.00    +0.000 HD
BRANCH  15  17
ATOM     17  C   UNL     1      -1.573  13.268  23.449  0.00  0.00    +0.000 C 
BRANCH  17  18
ATOM     18  C   UNL     1      -0.851  14.601  23.245  0.00  0.00    +0.000 C 
BRANCH  18  19
ATOM     19  O   UNL     1      -0.550  15.212  24.499  0.00  0.00    +0.000 OA
ATOM     20  H   UNL     1      -0.462  16.167  24.325  0.00  0.00    +0.000 HD
ENDBRANCH  18  19
ENDBRANCH  17  18
ENDBRANCH  15  17
ENDBRANCH   1  14
BRANCH   2  21
ATOM     21  O   UNL     1      -0.190  11.593  18.937  0.00  0.00    +0.000 OA
ATOM     22  H   UNL     1      -0.787  11.258  18.234  0.00  0.00    +0.000 HD
ENDBRANCH   2  21
BRANCH   6  23
ATOM     23  C   UNL     1       3.573   6.431  17.927  0.00  0.00    +0.000 C 
BRANCH  23  24
ATOM     24  C   UNL     1       3.098   5.018  18.157  0.00  0.00    +0.000 A 
ATOM     25  C   UNL     1       3.934   4.078  18.782  0.00  0.00    +0.000 A 
ATOM     26  C   UNL     1       3.432   2.835  19.170  0.00  0.00    +0.000 A 
ATOM     27  C   UNL     1       2.102   2.523  18.913  0.00  0.00    +0.000 A 
ATOM     28  F   UNL     1       1.603   1.358  19.346  0.00  0.00    +0.000 F 
ATOM     29  C   UNL     1       1.277   3.413  18.236  0.00  0.00    +0.000 A 
ATOM     30  C   UNL     1       1.778   4.656  17.847  0.00  0.00    +0.000 A 
ENDBRANCH  23  24
ENDBRANCH   6  23
TORSDOF 7
ENDMDL
MODEL 9
REMARK VINA RESULT:      -7.3      4.865      8.672
REMARK  Name = 
REMARK  7 active torsions:
REMARK  status: ('A' for Active; 'I' for Inactive)
REMARK    1  A    between atoms: C_2  and  C_7
REMARK    2  A    between atoms: N_3  and  C_4
REMARK    3  A    between atoms: C_4  and  C_5
REMARK    4  A    between atoms: C_5  and  O_6
REMARK    5  A    between atoms: C_8  and  O_9
REMARK    6  A    between atoms: C_13  and  C_14
REMARK    7  A    between atoms: C_14  and  C_15
REMARK                            x       y       z     vdW  Elec       q    Type
REMARK                         _______ _______ _______ _____ _____    ______ ____
ROOT
ATOM      1  C   UNL     1       3.810   5.643  18.801  0.00  0.00    +0.000 A 
ATOM      2  C   UNL     1       2.955   6.140  19.727  0.00  0.00    +0.000 A 
ATOM      3  C   UNL     1       2.233   7.408  19.470  0.00  0.00    +0.000 A 
ATOM      4  N   UNL     1       1.365   7.883  20.393  0.00  0.00    +0.000 NA
ATOM      5  C   UNL     1       0.769   9.065  20.125  0.00  0.00    +0.000 A 
ATOM      6  C   UNL     1       0.987   9.819  18.973  0.00  0.00    +0.000 A 
ATOM      7  C   UNL     1       1.898   9.316  18.040  0.00  0.00    +0.000 A 
ATOM      8  C   UNL     1       2.507   8.089  18.286  0.00  0.00    +0.000 A 
ATOM      9  N   UNL     1       3.368   7.550  17.334  0.00  0.00    +0.000 N 
ATOM     10  C   UNL     1       3.982   6.344  17.494  0.00  0.00    +0.000 A 
ATOM     11  O   UNL     1       4.652   5.866  16.580  0.00  0.00    +0.000 OA
ATOM     12  H   UNL     1       3.532   8.019  16.457  0.00  0.00    +0.000 HD
ENDROOT
BRANCH   1  14
ATOM     13  O   UNL     1       5.808   4.459  19.260  0.00  0.00    +0.000 OA
ATOM     14  C   UNL     1       4.584   4.410  19.110  0.00  0.00    +0.000 C 
ATOM     15  N   UNL     1       3.871   3.248  19.224  0.00  0.00    +0.000 N 
ATOM     16  H   UNL     1       2.888   3.243  18.934  0.00  0.00    +0.000 HD
BRANCH  15  17
ATOM     17  C   UNL     1       4.513   1.976  19.497  0.00  0.00    +0.000 C 
BRANCH  17  18
ATOM     18  C   UNL     1       4.584   1.666  20.993  0.00  0.00    +0.000 C 
BRANCH  18  19
ATOM     19  O   UNL     1       3.432   2.167  21.671  0.00  0.00    +0.000 OA
ATOM     20  H   UNL     1       3.286   1.581  22.435  0.00  0.00    +0.000 HD
ENDBRANCH  18  19
ENDBRANCH  17  18
ENDBRANCH  15  17
ENDBRANCH   1  14
BRANCH   2  21
ATOM     21  O   UNL     1       2.709   5.558  20.962  0.00  0.00    +0.000 OA
ATOM     22  H   UNL     1       1.741   5.467  21.092  0.00  0.00    +0.000 HD
ENDBRANCH   2  21
BRANCH   6  23
ATOM     23  C   UNL     1       0.234  11.094  18.715  0.00  0.00    +0.000 C 
BRANCH  23  24
ATOM     24  C   UNL     1      -1.237  10.948  18.411  0.00  0.00    +0.000 A 
ATOM     25  C   UNL     1      -2.177  11.785  19.033  0.00  0.00    +0.000 A 
ATOM     26  C   UNL     1      -3.508  11.784  18.611  0.00  0.00    +0.000 A 
ATOM     27  C   UNL     1      -3.902  10.932  17.587  0.00  0.00    +0.000 A 
ATOM     28  F   UNL     1      -5.162  10.981  17.136  0.00  0.00    +0.000 F 
ATOM     29  C   UNL     1      -3.000  10.050  17.005  0.00  0.00    +0.000 A 
ATOM     30  C   UNL     1      -1.669  10.048  17.426  0.00  0.00    +0.000 A 
ENDBRANCH  23  24
ENDBRANCH   6  23
TORSDOF 7
ENDMDL
