MODEL 1
REMARK VINA RESULT:      -8.0      0.000      0.000
REMARK  Name = 
REMARK  8 active torsions:
REMARK  status: ('A' for Active; 'I' for Inactive)
REMARK    1  A    between atoms: C_1  and  N_2
REMARK    2  A    between atoms: C_3  and  C_5
REMARK    3  A    between atoms: C_7  and  O_8
REMARK    4  A    between atoms: O_8  and  C_9
REMARK    5  A    between atoms: C_9  and  C_10
REMARK    6  A    between atoms: C_10  and  C_11
REMARK    7  A    between atoms: C_11  and  C_12
REMARK    8  A    between atoms: C_12  and  N_13
REMARK                            x       y       z     vdW  Elec       q    Type
REMARK                         _______ _______ _______ _____ _____    ______ ____
ROOT
ATOM      1  C   UNL     1       0.849   9.704  18.837  0.00  0.00    +0.000 C 
ENDROOT
BRANCH   1   2
ATOM      2  N   UNL     1       0.968  11.123  19.194  0.00  0.00    +0.000 NA
ATOM      3  C   UNL     1      -0.043  11.982  18.519  0.00  0.00    +0.000 C 
ATOM      4  C   UNL     1      -1.501  11.853  19.031  0.00  0.00    +0.000 C 
ATOM      5  N   UNL     1      -1.510  12.015  20.489  0.00  0.00    +0.000 N 
ATOM      6  C   UNL     1      -2.568  12.612  21.107  0.00  0.00    +0.000 A 
ATOM      7  N   UNL     1      -3.802  12.621  20.603  0.00  0.00    +0.000 NA
ATOM      8  S   UNL     1      -4.800  13.486  21.588  0.00  0.00    +0.000 S 
ATOM      9  C   UNL     1      -3.603  13.948  22.726  0.00  0.00    +0.000 A 
ATOM     10  C   UNL     1      -3.720  14.753  23.872  0.00  0.00    +0.000 A 
ATOM     11  C   UNL     1      -2.575  14.994  24.637  0.00  0.00    +0.000 A 
ATOM     12  C   UNL     1      -1.349  14.471  24.264  0.00  0.00    +0.000 A 
ATOM     13  C   UNL     1      -1.243  13.693  23.110  0.00  0.00    +0.000 A 
ATOM     14  C   UNL     1      -2.388  13.388  22.329  0.00  0.00    +0.000 A 
ATOM     15  C   UNL     1      -0.615  11.094  21.195  0.00  0.00    +0.000 C 
ATOM     16  C   UNL     1       0.823  11.304  20.663  0.00  0.00    +0.000 C 
ENDBRANCH   1   2
BRANCH   1  17
ATOM     17  C   UNL     1       1.910   9.218  17.837  0.00  0.00    +0.000 C 
BRANCH  17  18
ATOM     18  C   UNL     1       2.244   7.725  17.918  0.00  0.00    +0.000 C 
BRANCH  18  19
ATOM     19  C   UNL     1       3.741   7.466  17.780  0.00  0.00    +0.000 C 
BRANCH  19  20
ATOM     20  O   UNL     1       4.009   6.077  17.998  0.00  0.00    +0.000 OA
BRANCH  20  23
ATOM     21  C   UNL     1       6.673   4.951  15.718  0.00  0.00    +0.000 A 
ATOM     22  C   UNL     1       5.434   5.453  16.097  0.00  0.00    +0.000 A 
ATOM     23  C   UNL     1       5.175   5.604  17.454  0.00  0.00    +0.000 A 
ATOM     24  C   UNL     1       6.162   5.257  18.373  0.00  0.00    +0.000 A 
ATOM     25  C   UNL     1       7.371   4.763  17.903  0.00  0.00    +0.000 A 
ATOM     26  N   UNL     1       7.656   4.599  16.594  0.00  0.00    +0.000 NA
BRANCH  21  29
ATOM     27  C   UNL     1       6.481   3.426  12.263  0.00  0.00    +0.000 C 
ATOM     28  N   UNL     1       6.298   3.746  13.651  0.00  0.00    +0.000 N 
ATOM     29  C   UNL     1       6.978   4.777  14.260  0.00  0.00    +0.000 C 
ATOM     30  O   UNL     1       7.774   5.508  13.679  0.00  0.00    +0.000 OA
ATOM     31  H   UNL     1       5.663   3.210  14.237  0.00  0.00    +0.000 HD
ENDBRANCH  21  29
ENDBRANCH  20  23
ENDBRANCH  19  20
ENDBRANCH  18  19
ENDBRANCH  17  18
ENDBRANCH   1  17
TORSDOF 7
ENDMDL
MODEL 2
REMARK VINA RESULT:      -7.7      7.817     10.780
REMARK  Name = 
REMARK  8 active torsions:
REMARK  status: ('A' for Active; 'I' for Inactive)
REMARK    1  A    between atoms: C_1  and  N_2
REMARK    2  A    between atoms: C_3  and  C_5
REMARK    3  A    between atoms: C_7  and  O_8
REMARK    4  A    between atoms: O_8  and  C_9
REMARK    5  A    between atoms: C_9  and  C_10
REMARK    6  A    between atoms: C_10  and  C_11
REMARK    7  A    between atoms: C_11  and  C_12
REMARK    8  A    between atoms: C_12  and  N_13
REMARK                            x       y       z     vdW  Elec       q    Type
REMARK                         _______ _______ _______ _____ _____    ______ ____
ROOT
ATOM      1  C   UNL     1       7.967   7.626  17.736  0.00  0.00    +0.000 C 
ENDROOT
BRANCH   1   2
ATOM      2  N   UNL     1       7.107   6.840  16.841  0.00  0.00    +0.000 NA
ATOM      3  C   UNL     1       7.430   5.387  16.849  0.00  0.00    +0.000 C 
ATOM      4  C   UNL     1       7.023   4.603  18.123  0.00  0.00    +0.000 C 
ATOM      5  N   UNL     1       5.609   4.866  18.413  0.00  0.00    +0.000 N 
ATOM      6  C   UNL     1       4.829   3.893  18.964  0.00  0.00    +0.000 A 
ATOM      7  N   UNL     1       5.312   2.906  19.718  0.00  0.00    +0.000 NA
ATOM      8  S   UNL     1       4.091   1.889  20.152  0.00  0.00    +0.000 S 
ATOM      9  C   UNL     1       2.845   2.697  19.293  0.00  0.00    +0.000 A 
ATOM     10  C   UNL     1       1.484   2.369  19.170  0.00  0.00    +0.000 A 
ATOM     11  C   UNL     1       0.668   3.194  18.390  0.00  0.00    +0.000 A 
ATOM     12  C   UNL     1       1.191   4.295  17.735  0.00  0.00    +0.000 A 
ATOM     13  C   UNL     1       2.550   4.595  17.847  0.00  0.00    +0.000 A 
ATOM     14  C   UNL     1       3.405   3.810  18.664  0.00  0.00    +0.000 A 
ATOM     15  C   UNL     1       5.283   6.289  18.537  0.00  0.00    +0.000 C 
ATOM     16  C   UNL     1       5.678   7.000  17.221  0.00  0.00    +0.000 C 
ENDBRANCH   1   2
BRANCH   1  17
ATOM     17  C   UNL     1       7.571   9.107  17.846  0.00  0.00    +0.000 C 
BRANCH  17  18
ATOM     18  C   UNL     1       8.740  10.096  17.819  0.00  0.00    +0.000 C 
BRANCH  18  19
ATOM     19  C   UNL     1       9.186  10.493  19.223  0.00  0.00    +0.000 C 
BRANCH  19  20
ATOM     20  O   UNL     1      10.518  11.013  19.173  0.00  0.00    +0.000 OA
BRANCH  20  23
ATOM     21  C   UNL     1      10.079  14.450  17.924  0.00  0.00    +0.000 A 
ATOM     22  C   UNL     1       9.782  13.295  18.637  0.00  0.00    +0.000 A 
ATOM     23  C   UNL     1      10.661  12.223  18.544  0.00  0.00    +0.000 A 
ATOM     24  C   UNL     1      11.800  12.350  17.753  0.00  0.00    +0.000 A 
ATOM     25  C   UNL     1      12.017  13.542  17.077  0.00  0.00    +0.000 A 
ATOM     26  N   UNL     1      11.183  14.602  17.140  0.00  0.00    +0.000 NA
BRANCH  21  29
ATOM     27  C   UNL     1       6.841  16.304  18.538  0.00  0.00    +0.000 C 
ATOM     28  N   UNL     1       7.869  15.309  18.420  0.00  0.00    +0.000 N 
ATOM     29  C   UNL     1       9.146  15.621  18.007  0.00  0.00    +0.000 C 
ATOM     30  O   UNL     1       9.513  16.757  17.723  0.00  0.00    +0.000 OA
ATOM     31  H   UNL     1       7.684  14.331  18.627  0.00  0.00    +0.000 HD
ENDBRANCH  21  29
ENDBRANCH  20  23
ENDBRANCH  19  20
ENDBRANCH  18  19
ENDBRANCH  17  18
ENDBRANCH   1  17
TORSDOF 7
ENDMDL
MODEL 3
REMARK VINA RESULT:      -7.6      8.177     11.176
REMARK  Name = 
REMARK  8 active torsions:
REMARK  status: ('A' for Active; 'I' for Inactive)
REMARK    1  A    between atoms: C_1  and  N_2
REMARK    2  A    between atoms: C_3  and  C_5
REMARK    3  A    between atoms: C_7  and  O_8
REMARK    4  A    between atoms: O_8  and  C_9
REMARK    5  A    between atoms: C_9  and  C_10
REMARK    6  A    between atoms: C_10  and  C_11
REMARK    7  A    between atoms: C_11  and  C_12
REMARK    8  A    between atoms: C_12  and  N_13
REMARK                            x       y       z     vdW  Elec       q    Type
REMARK                         _______ _______ _______ _____ _____    ______ ____
ROOT
ATOM      1  C   UNL     1       8.017   7.406  17.718  0.00  0.00    +0.000 C 
ENDROOT
BRANCH   1   2
ATOM      2  N   UNL     1       7.127   6.655  16.823  0.00  0.00    +0.000 NA
ATOM      3  C   UNL     1       7.398   5.191  16.825  0.00  0.00    +0.000 C 
ATOM      4  C   UNL     1       6.965   4.418  18.097  0.00  0.00    +0.000 C 
ATOM      5  N   UNL     1       5.562   4.730  18.391  0.00  0.00    +0.000 N 
ATOM      6  C   UNL     1       4.748   3.785  18.940  0.00  0.00    +0.000 A 
ATOM      7  N   UNL     1       5.196   2.778  19.690  0.00  0.00    +0.000 NA
ATOM      8  S   UNL     1       3.940   1.805  20.124  0.00  0.00    +0.000 S 
ATOM      9  C   UNL     1       2.723   2.660  19.269  0.00  0.00    +0.000 A 
ATOM     10  C   UNL     1       1.350   2.382  19.148  0.00  0.00    +0.000 A 
ATOM     11  C   UNL     1       0.563   3.239  18.372  0.00  0.00    +0.000 A 
ATOM     12  C   UNL     1       1.125   4.323  17.720  0.00  0.00    +0.000 A 
ATOM     13  C   UNL     1       2.493   4.573  17.831  0.00  0.00    +0.000 A 
ATOM     14  C   UNL     1       3.321   3.754  18.643  0.00  0.00    +0.000 A 
ATOM     15  C   UNL     1       5.287   6.164  18.521  0.00  0.00    +0.000 C 
ATOM     16  C   UNL     1       5.706   6.864  17.206  0.00  0.00    +0.000 C 
ENDBRANCH   1   2
BRANCH   1  17
ATOM     17  C   UNL     1       7.845   8.931  17.639  0.00  0.00    +0.000 C 
BRANCH  17  18
ATOM     18  C   UNL     1       8.593   9.726  18.714  0.00  0.00    +0.000 C 
BRANCH  18  19
ATOM     19  C   UNL     1       9.636  10.660  18.111  0.00  0.00    +0.000 C 
BRANCH  19  20
ATOM     20  O   UNL     1       9.678  11.880  18.859  0.00  0.00    +0.000 OA
BRANCH  20  23
ATOM     21  C   UNL     1      11.260  15.091  17.995  0.00  0.00    +0.000 A 
ATOM     22  C   UNL     1      10.365  14.225  18.611  0.00  0.00    +0.000 A 
ATOM     23  C   UNL     1      10.477  12.866  18.343  0.00  0.00    +0.000 A 
ATOM     24  C   UNL     1      11.480  12.429  17.480  0.00  0.00    +0.000 A 
ATOM     25  C   UNL     1      12.329  13.367  16.910  0.00  0.00    +0.000 A 
ATOM     26  N   UNL     1      12.247  14.693  17.144  0.00  0.00    +0.000 NA
BRANCH  21  29
ATOM     27  C   UNL     1       9.936  18.621  17.693  0.00  0.00    +0.000 C 
ATOM     28  N   UNL     1      10.163  17.209  17.568  0.00  0.00    +0.000 N 
ATOM     29  C   UNL     1      11.158  16.563  18.268  0.00  0.00    +0.000 C 
ATOM     30  O   UNL     1      11.915  17.124  19.054  0.00  0.00    +0.000 OA
ATOM     31  H   UNL     1       9.599  16.636  16.944  0.00  0.00    +0.000 HD
ENDBRANCH  21  29
ENDBRANCH  20  23
ENDBRANCH  19  20
ENDBRANCH  18  19
ENDBRANCH  17  18
ENDBRANCH   1  17
TORSDOF 7
ENDMDL
MODEL 4
REMARK VINA RESULT:      -7.6      8.027     10.937
REMARK  Name = 
REMARK  8 active torsions:
REMARK  status: ('A' for Active; 'I' for Inactive)
REMARK    1  A    between atoms: C_1  and  N_2
REMARK    2  A    between atoms: C_3  and  C_5
REMARK    3  A    between atoms: C_7  and  O_8
REMARK    4  A    between atoms: O_8  and  C_9
REMARK    5  A    between atoms: C_9  and  C_10
REMARK    6  A    between atoms: C_10  and  C_11
REMARK    7  A    between atoms: C_11  and  C_12
REMARK    8  A    between atoms: C_12  and  N_13
REMARK                            x       y       z     vdW  Elec       q    Type
REMARK                         _______ _______ _______ _____ _____    ______ ____
ROOT
ATOM      1  C   UNL     1       7.999   7.556  17.587  0.00  0.00    +0.000 C 
ENDROOT
BRANCH   1   2
ATOM      2  N   UNL     1       7.121   6.756  16.724  0.00  0.00    +0.000 NA
ATOM      3  C   UNL     1       7.432   5.301  16.764  0.00  0.00    +0.000 C 
ATOM      4  C   UNL     1       7.033   4.553  18.063  0.00  0.00    +0.000 C 
ATOM      5  N   UNL     1       5.625   4.836  18.363  0.00  0.00    +0.000 N 
ATOM      6  C   UNL     1       4.843   3.885  18.948  0.00  0.00    +0.000 A 
ATOM      7  N   UNL     1       5.326   2.912  19.721  0.00  0.00    +0.000 NA
ATOM      8  S   UNL     1       4.102   1.919  20.196  0.00  0.00    +0.000 S 
ATOM      9  C   UNL     1       2.853   2.715  19.331  0.00  0.00    +0.000 A 
ATOM     10  C   UNL     1       1.487   2.397  19.233  0.00  0.00    +0.000 A 
ATOM     11  C   UNL     1       0.669   3.209  18.442  0.00  0.00    +0.000 A 
ATOM     12  C   UNL     1       1.194   4.289  17.753  0.00  0.00    +0.000 A 
ATOM     13  C   UNL     1       2.557   4.579  17.841  0.00  0.00    +0.000 A 
ATOM     14  C   UNL     1       3.415   3.807  18.667  0.00  0.00    +0.000 A 
ATOM     15  C   UNL     1       5.313   6.264  18.455  0.00  0.00    +0.000 C 
ATOM     16  C   UNL     1       5.698   6.938  17.116  0.00  0.00    +0.000 C 
ENDBRANCH   1   2
BRANCH   1  17
ATOM     17  C   UNL     1       7.585   9.032  17.708  0.00  0.00    +0.000 C 
BRANCH  17  18
ATOM     18  C   UNL     1       8.743  10.021  17.870  0.00  0.00    +0.000 C 
BRANCH  18  19
ATOM     19  C   UNL     1       9.199  10.135  19.321  0.00  0.00    +0.000 C 
BRANCH  19  20
ATOM     20  O   UNL     1      10.323  11.017  19.402  0.00  0.00    +0.000 OA
BRANCH  20  23
ATOM     21  C   UNL     1      10.136  14.629  18.707  0.00  0.00    +0.000 A 
ATOM     22  C   UNL     1      10.539  13.309  18.545  0.00  0.00    +0.000 A 
ATOM     23  C   UNL     1      10.028  12.356  19.417  0.00  0.00    +0.000 A 
ATOM     24  C   UNL     1       9.131  12.756  20.405  0.00  0.00    +0.000 A 
ATOM     25  C   UNL     1       8.784  14.097  20.492  0.00  0.00    +0.000 A 
ATOM     26  N   UNL     1       9.264  15.050  19.666  0.00  0.00    +0.000 NA
BRANCH  21  29
ATOM     27  C   UNL     1      11.141  18.083  17.540  0.00  0.00    +0.000 C 
ATOM     28  N   UNL     1      10.677  16.954  18.297  0.00  0.00    +0.000 N 
ATOM     29  C   UNL     1      10.674  15.678  17.779  0.00  0.00    +0.000 C 
ATOM     30  O   UNL     1      11.073  15.396  16.654  0.00  0.00    +0.000 OA
ATOM     31  H   UNL     1      10.321  17.063  19.243  0.00  0.00    +0.000 HD
ENDBRANCH  21  29
ENDBRANCH  20  23
ENDBRANCH  19  20
ENDBRANCH  18  19
ENDBRANCH  17  18
ENDBRANCH   1  17
TORSDOF 7
ENDMDL
MODEL 5
REMARK VINA RESULT:      -7.6      1.178      1.380
REMARK  Name = 
REMARK  8 active torsions:
REMARK  status: ('A' for Active; 'I' for Inactive)
REMARK    1  A    between atoms: C_1  and  N_2
REMARK    2  A    between atoms: C_3  and  C_5
REMARK    3  A    between atoms: C_7  and  O_8
REMARK    4  A    between atoms: O_8  and  C_9
REMARK    5  A    between atoms: C_9  and  C_10
REMARK    6  A    between atoms: C_10  and  C_11
REMARK    7  A    between atoms: C_11  and  C_12
REMARK    8  A    between atoms: C_12  and  N_13
REMARK                            x       y       z     vdW  Elec       q    Type
REMARK                         _______ _______ _______ _____ _____    ______ ____
ROOT
ATOM      1  C   UNL     1       0.498   9.920  19.034  0.00  0.00    +0.000 C 
ENDROOT
BRANCH   1   2
ATOM      2  N   UNL     1       0.524  11.371  19.260  0.00  0.00    +0.000 NA
ATOM      3  C   UNL     1      -0.697  12.061  18.761  0.00  0.00    +0.000 C 
ATOM      4  C   UNL     1      -1.992  11.837  19.583  0.00  0.00    +0.000 C 
ATOM      5  N   UNL     1      -1.718  12.129  20.995  0.00  0.00    +0.000 N 
ATOM      6  C   UNL     1      -2.687  12.674  21.785  0.00  0.00    +0.000 A 
ATOM      7  N   UNL     1      -3.991  12.516  21.558  0.00  0.00    +0.000 NA
ATOM      8  S   UNL     1      -4.856  13.364  22.674  0.00  0.00    +0.000 S 
ATOM      9  C   UNL     1      -3.511  14.043  23.493  0.00  0.00    +0.000 A 
ATOM     10  C   UNL     1      -3.480  14.934  24.580  0.00  0.00    +0.000 A 
ATOM     11  C   UNL     1      -2.237  15.355  25.062  0.00  0.00    +0.000 A 
ATOM     12  C   UNL     1      -1.063  14.923  24.469  0.00  0.00    +0.000 A 
ATOM     13  C   UNL     1      -1.109  14.057  23.376  0.00  0.00    +0.000 A 
ATOM     14  C   UNL     1      -2.348  13.571  22.883  0.00  0.00    +0.000 A 
ATOM     15  C   UNL     1      -0.597  11.369  21.552  0.00  0.00    +0.000 C 
ATOM     16  C   UNL     1       0.667  11.670  20.710  0.00  0.00    +0.000 C 
ENDBRANCH   1   2
BRANCH   1  17
ATOM     17  C   UNL     1       1.097   9.484  17.688  0.00  0.00    +0.000 C 
BRANCH  17  18
ATOM     18  C   UNL     1       2.451   8.775  17.778  0.00  0.00    +0.000 C 
BRANCH  18  19
ATOM     19  C   UNL     1       2.437   7.641  18.798  0.00  0.00    +0.000 C 
BRANCH  19  20
ATOM     20  O   UNL     1       2.455   6.383  18.117  0.00  0.00    +0.000 OA
BRANCH  20  23
ATOM     21  C   UNL     1       5.639   4.747  17.248  0.00  0.00    +0.000 A 
ATOM     22  C   UNL     1       4.458   5.450  17.042  0.00  0.00    +0.000 A 
ATOM     23  C   UNL     1       3.649   5.710  18.142  0.00  0.00    +0.000 A 
ATOM     24  C   UNL     1       4.055   5.265  19.398  0.00  0.00    +0.000 A 
ATOM     25  C   UNL     1       5.250   4.570  19.510  0.00  0.00    +0.000 A 
ATOM     26  N   UNL     1       6.058   4.296  18.464  0.00  0.00    +0.000 NA
BRANCH  21  29
ATOM     27  C   UNL     1       6.565   4.037  13.651  0.00  0.00    +0.000 C 
ATOM     28  N   UNL     1       5.871   4.334  14.873  0.00  0.00    +0.000 N 
ATOM     29  C   UNL     1       6.529   4.453  16.077  0.00  0.00    +0.000 C 
ATOM     30  O   UNL     1       7.743   4.332  16.208  0.00  0.00    +0.000 OA
ATOM     31  H   UNL     1       4.862   4.456  14.891  0.00  0.00    +0.000 HD
ENDBRANCH  21  29
ENDBRANCH  20  23
ENDBRANCH  19  20
ENDBRANCH  18  19
ENDBRANCH  17  18
ENDBRANCH   1  17
TORSDOF 7
ENDMDL
MODEL 6
REMARK VINA RESULT:      -7.5      1.905      2.707
REMARK  Name = 
REMARK  8 active torsions:
REMARK  status: ('A' for Active; 'I' for Inactive)
REMARK    1  A    between atoms: C_1  and  N_2
REMARK    2  A    between atoms: C_3  and  C_5
REMARK    3  A    between atoms: C_7  and  O_8
REMARK    4  A    between atoms: O_8  and  C_9
REMARK    5  A    between atoms: C_9  and  C_10
REMARK    6  A    between atoms: C_10  and  C_11
REMARK    7  A    between atoms: C_11  and  C_12
REMARK    8  A    between atoms: C_12  and  N_13
REMARK                            x       y       z     vdW  Elec       q    Type
REMARK                         _______ _______ _______ _____ _____    ______ ____
ROOT
ATOM      1  C   UNL     1       1.709   6.405  20.097  0.00  0.00    +0.000 C 
ENDROOT
BRANCH   1   2
ATOM      2  N   UNL     1       2.150   7.786  20.330  0.00  0.00    +0.000 NA
ATOM      3  C   UNL     1       2.003   8.656  19.131  0.00  0.00    +0.000 C 
ATOM      4  C   UNL     1       0.554   9.057  18.752  0.00  0.00    +0.000 C 
ATOM      5  N   UNL     1      -0.113   9.613  19.935  0.00  0.00    +0.000 N 
ATOM      6  C   UNL     1      -1.031  10.611  19.800  0.00  0.00    +0.000 A 
ATOM      7  N   UNL     1      -1.751  10.801  18.694  0.00  0.00    +0.000 NA
ATOM      8  S   UNL     1      -2.704  12.132  18.872  0.00  0.00    +0.000 S 
ATOM      9  C   UNL     1      -2.152  12.564  20.437  0.00  0.00    +0.000 A 
ATOM     10  C   UNL     1      -2.513  13.656  21.245  0.00  0.00    +0.000 A 
ATOM     11  C   UNL     1      -1.899  13.793  22.494  0.00  0.00    +0.000 A 
ATOM     12  C   UNL     1      -0.941  12.888  22.917  0.00  0.00    +0.000 A 
ATOM     13  C   UNL     1      -0.576  11.821  22.094  0.00  0.00    +0.000 A 
ATOM     14  C   UNL     1      -1.205  11.620  20.838  0.00  0.00    +0.000 A 
ATOM     15  C   UNL     1      -0.095   8.724  21.099  0.00  0.00    +0.000 C 
ATOM     16  C   UNL     1       1.378   8.397  21.445  0.00  0.00    +0.000 C 
ENDBRANCH   1   2
BRANCH   1  17
ATOM     17  C   UNL     1       2.846   5.371  20.117  0.00  0.00    +0.000 C 
BRANCH  17  18
ATOM     18  C   UNL     1       3.334   4.913  18.740  0.00  0.00    +0.000 C 
BRANCH  18  19
ATOM     19  C   UNL     1       4.078   3.583  18.810  0.00  0.00    +0.000 C 
BRANCH  19  20
ATOM     20  O   UNL     1       5.466   3.823  19.063  0.00  0.00    +0.000 OA
BRANCH  20  23
ATOM     21  C   UNL     1       6.922   5.158  15.955  0.00  0.00    +0.000 A 
ATOM     22  C   UNL     1       6.212   4.284  16.768  0.00  0.00    +0.000 A 
ATOM     23  C   UNL     1       6.120   4.577  18.123  0.00  0.00    +0.000 A 
ATOM     24  C   UNL     1       6.733   5.730  18.607  0.00  0.00    +0.000 A 
ATOM     25  C   UNL     1       7.421   6.546  17.721  0.00  0.00    +0.000 A 
ATOM     26  N   UNL     1       7.534   6.291  16.401  0.00  0.00    +0.000 NA
BRANCH  21  29
ATOM     27  C   UNL     1       6.203   3.431  12.668  0.00  0.00    +0.000 C 
ATOM     28  N   UNL     1       6.212   3.856  14.040  0.00  0.00    +0.000 N 
ATOM     29  C   UNL     1       7.036   4.864  14.488  0.00  0.00    +0.000 C 
ATOM     30  O   UNL     1       7.811   5.484  13.767  0.00  0.00    +0.000 OA
ATOM     31  H   UNL     1       5.612   3.415  14.733  0.00  0.00    +0.000 HD
ENDBRANCH  21  29
ENDBRANCH  20  23
ENDBRANCH  19  20
ENDBRANCH  18  19
ENDBRANCH  17  18
ENDBRANCH   1  17
TORSDOF 7
ENDMDL
MODEL 7
REMARK VINA RESULT:      -7.5      8.224     10.192
REMARK  Name = 
REMARK  8 active torsions:
REMARK  status: ('A' for Active; 'I' for Inactive)
REMARK    1  A    between atoms: C_1  and  N_2
REMARK    2  A    between atoms: C_3  and  C_5
REMARK    3  A    between atoms: C_7  and  O_8
REMARK    4  A    between atoms: O_8  and  C_9
REMARK    5  A    between atoms: C_9  and  C_10
REMARK    6  A    between atoms: C_10  and  C_11
REMARK    7  A    between atoms: C_11  and  C_12
REMARK    8  A    between atoms: C_12  and  N_13
REMARK                            x       y       z     vdW  Elec       q    Type
REMARK                         _______ _______ _______ _____ _____    ______ ____
ROOT
ATOM      1  C   UNL     1       8.900  10.396  18.147  0.00  0.00    +0.000 C 
ENDROOT
BRANCH   1   2
ATOM      2  N   UNL     1      10.071  10.909  18.869  0.00  0.00    +0.000 NA
ATOM      3  C   UNL     1      11.087  11.525  17.971  0.00  0.00    +0.000 C 
ATOM      4  C   UNL     1      10.713  12.900  17.360  0.00  0.00    +0.000 C 
ATOM      5  N   UNL     1      10.294  13.803  18.438  0.00  0.00    +0.000 N 
ATOM      6  C   UNL     1      10.563  15.137  18.360  0.00  0.00    +0.000 A 
ATOM      7  N   UNL     1      10.722  15.787  17.207  0.00  0.00    +0.000 NA
ATOM      8  S   UNL     1      11.096  17.363  17.503  0.00  0.00    +0.000 S 
ATOM      9  C   UNL     1      11.124  17.243  19.213  0.00  0.00    +0.000 A 
ATOM     10  C   UNL     1      11.414  18.225  20.177  0.00  0.00    +0.000 A 
ATOM     11  C   UNL     1      11.380  17.864  21.527  0.00  0.00    +0.000 A 
ATOM     12  C   UNL     1      11.091  16.566  21.908  0.00  0.00    +0.000 A 
ATOM     13  C   UNL     1      10.828  15.595  20.940  0.00  0.00    +0.000 A 
ATOM     14  C   UNL     1      10.808  15.928  19.560  0.00  0.00    +0.000 A 
ATOM     15  C   UNL     1       9.206  13.276  19.265  0.00  0.00    +0.000 C 
ATOM     16  C   UNL     1       9.661  11.927  19.872  0.00  0.00    +0.000 C 
ENDBRANCH   1   2
BRANCH   1  17
ATOM     17  C   UNL     1       8.543   8.940  18.484  0.00  0.00    +0.000 C 
BRANCH  17  18
ATOM     18  C   UNL     1       7.546   8.277  17.529  0.00  0.00    +0.000 C 
BRANCH  18  19
ATOM     19  C   UNL     1       7.652   6.756  17.556  0.00  0.00    +0.000 C 
BRANCH  19  20
ATOM     20  O   UNL     1       6.910   6.243  18.667  0.00  0.00    +0.000 OA
BRANCH  20  23
ATOM     21  C   UNL     1       3.803   4.265  18.685  0.00  0.00    +0.000 A 
ATOM     22  C   UNL     1       4.770   5.142  19.162  0.00  0.00    +0.000 A 
ATOM     23  C   UNL     1       5.866   5.412  18.352  0.00  0.00    +0.000 A 
ATOM     24  C   UNL     1       5.948   4.804  17.101  0.00  0.00    +0.000 A 
ATOM     25  C   UNL     1       4.934   3.942  16.707  0.00  0.00    +0.000 A 
ATOM     26  N   UNL     1       3.858   3.654  17.469  0.00  0.00    +0.000 NA
BRANCH  21  29
ATOM     27  C   UNL     1       1.865   2.822  21.594  0.00  0.00    +0.000 C 
ATOM     28  N   UNL     1       2.890   3.221  20.671  0.00  0.00    +0.000 N 
ATOM     29  C   UNL     1       2.610   3.957  19.541  0.00  0.00    +0.000 C 
ATOM     30  O   UNL     1       1.485   4.339  19.236  0.00  0.00    +0.000 OA
ATOM     31  H   UNL     1       3.862   2.962  20.817  0.00  0.00    +0.000 HD
ENDBRANCH  21  29
ENDBRANCH  20  23
ENDBRANCH  19  20
ENDBRANCH  18  19
ENDBRANCH  17  18
ENDBRANCH   1  17
TORSDOF 7
ENDMDL
MODEL 8
REMARK VINA RESULT:      -7.4      4.739     10.211
REMARK  Name = 
REMARK  8 active torsions:
REMARK  status: ('A' for Active; 'I' for Inactive)
REMARK    1  A    between atoms: C_1  and  N_2
REMARK    2  A    between atoms: C_3  and  C_5
REMARK    3  A    between atoms: C_7  and  O_8
REMARK    4  A    between atoms: O_8  and  C_9
REMARK    5  A    between atoms: C_9  and  C_10
REMARK    6  A    between atoms: C_10  and  C_11
REMARK    7  A    between atoms: C_11  and  C_12
REMARK    8  A    between atoms: C_12  and  N_13
REMARK                            x       y       z     vdW  Elec       q    Type
REMARK                         _______ _______ _______ _____ _____    ______ ____
ROOT
ATOM      1  C   UNL     1       1.494  10.703  19.871  0.00  0.00    +0.000 C 
ENDROOT
BRANCH   1   2
ATOM      2  N   UNL     1       0.691   9.617  19.295  0.00  0.00    +0.000 NA
ATOM      3  C   UNL     1       1.167   9.189  17.950  0.00  0.00    +0.000 C 
ATOM      4  C   UNL     1       2.494   8.387  17.918  0.00  0.00    +0.000 C 
ATOM      5  N   UNL     1       2.397   7.268  18.862  0.00  0.00    +0.000 N 
ATOM      6  C   UNL     1       3.018   6.085  18.591  0.00  0.00    +0.000 A 
ATOM      7  N   UNL     1       4.100   5.986  17.818  0.00  0.00    +0.000 NA
ATOM      8  S   UNL     1       4.532   4.404  17.666  0.00  0.00    +0.000 S 
ATOM      9  C   UNL     1       3.242   3.756  18.592  0.00  0.00    +0.000 A 
ATOM     10  C   UNL     1       2.931   2.416  18.882  0.00  0.00    +0.000 A 
ATOM     11  C   UNL     1       1.800   2.147  19.660  0.00  0.00    +0.000 A 
ATOM     12  C   UNL     1       0.992   3.174  20.115  0.00  0.00    +0.000 A 
ATOM     13  C   UNL     1       1.299   4.498  19.800  0.00  0.00    +0.000 A 
ATOM     14  C   UNL     1       2.461   4.819  19.051  0.00  0.00    +0.000 A 
ATOM     15  C   UNL     1       2.052   7.671  20.228  0.00  0.00    +0.000 C 
ATOM     16  C   UNL     1       0.703   8.429  20.190  0.00  0.00    +0.000 C 
ENDBRANCH   1   2
BRANCH   1  17
ATOM     17  C   UNL     1       0.853  11.375  21.095  0.00  0.00    +0.000 C 
BRANCH  17  18
ATOM     18  C   UNL     1       0.837  12.907  21.063  0.00  0.00    +0.000 C 
BRANCH  18  19
ATOM     19  C   UNL     1      -0.171  13.448  20.055  0.00  0.00    +0.000 C 
BRANCH  19  20
ATOM     20  O   UNL     1      -1.494  13.326  20.587  0.00  0.00    +0.000 OA
BRANCH  20  23
ATOM     21  C   UNL     1      -3.141  11.351  17.950  0.00  0.00    +0.000 A 
ATOM     22  C   UNL     1      -2.095  11.940  18.649  0.00  0.00    +0.000 A 
ATOM     23  C   UNL     1      -2.399  12.677  19.787  0.00  0.00    +0.000 A 
ATOM     24  C   UNL     1      -3.729  12.789  20.183  0.00  0.00    +0.000 A 
ATOM     25  C   UNL     1      -4.710  12.166  19.424  0.00  0.00    +0.000 A 
ATOM     26  N   UNL     1      -4.451  11.447  18.312  0.00  0.00    +0.000 NA
BRANCH  21  29
ATOM     27  C   UNL     1      -3.461  10.201  14.362  0.00  0.00    +0.000 C 
ATOM     28  N   UNL     1      -3.604  10.878  15.620  0.00  0.00    +0.000 N 
ATOM     29  C   UNL     1      -2.839  10.551  16.718  0.00  0.00    +0.000 C 
ATOM     30  O   UNL     1      -1.976   9.679  16.714  0.00  0.00    +0.000 OA
ATOM     31  H   UNL     1      -4.289  11.619  15.746  0.00  0.00    +0.000 HD
ENDBRANCH  21  29
ENDBRANCH  20  23
ENDBRANCH  19  20
ENDBRANCH  18  19
ENDBRANCH  17  18
ENDBRANCH   1  17
TORSDOF 7
ENDMDL
MODEL 9
REMARK VINA RESULT:      -7.4      1.876      2.835
REMARK  Name = 
REMARK  8 active torsions:
REMARK  status: ('A' for Active; 'I' for Inactive)
REMARK    1  A    between atoms: C_1  and  N_2
REMARK    2  A    between atoms: C_3  and  C_5
REMARK    3  A    between atoms: C_7  and  O_8
REMARK    4  A    between atoms: O_8  and  C_9
REMARK    5  A    between atoms: C_9  and  C_10
REMARK    6  A    between atoms: C_10  and  C_11
REMARK    7  A    between atoms: C_11  and  C_12
REMARK    8  A    between atoms: C_12  and  N_13
REMARK                            x       y       z     vdW  Elec       q    Type
REMARK                         _______ _______ _______ _____ _____    ______ ____
ROOT
ATOM      1  C   UNL     1       2.216   6.443  19.418  0.00  0.00    +0.000 C 
ENDROOT
BRANCH   1   2
ATOM      2  N   UNL     1       2.564   7.866  19.513  0.00  0.00    +0.000 NA
ATOM      3  C   UNL     1       2.202   8.638  18.292  0.00  0.00    +0.000 C 
ATOM      4  C   UNL     1       0.689   8.900  18.073  0.00  0.00    +0.000 C 
ATOM      5  N   UNL     1       0.124   9.483  19.295  0.00  0.00    +0.000 N 
ATOM      6  C   UNL     1      -0.884  10.397  19.218  0.00  0.00    +0.000 A 
ATOM      7  N   UNL     1      -1.745  10.454  18.200  0.00  0.00    +0.000 NA
ATOM      8  S   UNL     1      -2.778  11.718  18.417  0.00  0.00    +0.000 S 
ATOM      9  C   UNL     1      -2.082  12.297  19.873  0.00  0.00    +0.000 A 
ATOM     10  C   UNL     1      -2.434  13.412  20.654  0.00  0.00    +0.000 A 
ATOM     11  C   UNL     1      -1.689  13.681  21.806  0.00  0.00    +0.000 A 
ATOM     12  C   UNL     1      -0.616  12.882  22.159  0.00  0.00    +0.000 A 
ATOM     13  C   UNL     1      -0.262  11.793  21.362  0.00  0.00    +0.000 A 
ATOM     14  C   UNL     1      -1.018  11.458  20.208  0.00  0.00    +0.000 A 
ATOM     15  C   UNL     1       0.356   8.681  20.499  0.00  0.00    +0.000 C 
ATOM     16  C   UNL     1       1.882   8.492  20.677  0.00  0.00    +0.000 C 
ENDBRANCH   1   2
BRANCH   1  17
ATOM     17  C   UNL     1       2.081   5.924  17.977  0.00  0.00    +0.000 C 
BRANCH  17  18
ATOM     18  C   UNL     1       1.607   4.474  17.850  0.00  0.00    +0.000 C 
BRANCH  18  19
ATOM     19  C   UNL     1       2.659   3.583  17.198  0.00  0.00    +0.000 C 
BRANCH  19  20
ATOM     20  O   UNL     1       3.803   3.489  18.052  0.00  0.00    +0.000 OA
BRANCH  20  23
ATOM     21  C   UNL     1       6.551   4.524  15.829  0.00  0.00    +0.000 A 
ATOM     22  C   UNL     1       5.312   4.004  16.183  0.00  0.00    +0.000 A 
ATOM     23  C   UNL     1       4.976   3.971  17.531  0.00  0.00    +0.000 A 
ATOM     24  C   UNL     1       5.884   4.464  18.465  0.00  0.00    +0.000 A 
ATOM     25  C   UNL     1       7.098   4.966  18.020  0.00  0.00    +0.000 A 
ATOM     26  N   UNL     1       7.460   5.009  16.720  0.00  0.00    +0.000 NA
BRANCH  21  29
ATOM     27  C   UNL     1       6.567   3.528  12.180  0.00  0.00    +0.000 C 
ATOM     28  N   UNL     1       6.303   3.638  13.588  0.00  0.00    +0.000 N 
ATOM     29  C   UNL     1       6.938   4.570  14.380  0.00  0.00    +0.000 C 
ATOM     30  O   UNL     1       7.757   5.380  13.959  0.00  0.00    +0.000 OA
ATOM     31  H   UNL     1       5.643   3.019  14.051  0.00  0.00    +0.000 HD
ENDBRANCH  21  29
ENDBRANCH  20  23
ENDBRANCH  19  20
ENDBRANCH  18  19
ENDBRANCH  17  18
ENDBRANCH   1  17
TORSDOF 7
ENDMDL
