MODEL 1
REMARK VINA RESULT:      -6.0      0.000      0.000
REMARK  Name = 
REMARK  5 active torsions:
REMARK  status: ('A' for Active; 'I' for Inactive)
REMARK    1  A    between atoms: C_1  and  C_2
REMARK    2  A    between atoms: N_13  and  C_14
REMARK    3  A    between atoms: C_17  and  C_18
REMARK    4  A    between atoms: C_17  and  C_19
REMARK    5  A    between atoms: N_25  and  C_26
REMARK                            x       y       z     vdW  Elec       q    Type
REMARK                         _______ _______ _______ _____ _____    ______ ____
ROOT
ATOM      1  C   UNL     1      -7.406  12.752  23.859  0.00  0.00    +0.000 C 
ATOM      2  C   UNL     1      -6.639  13.643  22.935  0.00  0.00    +0.000 C 
ATOM      3  C   UNL     1      -7.446  14.310  21.824  0.00  0.00    +0.000 C 
ATOM      4  C   UNL     1      -6.361  15.171  21.161  0.00  0.00    +0.000 C 
ATOM      5  N   UNL     1      -5.106  14.624  21.690  0.00  0.00    +0.000 NA
ATOM      6  C   UNL     1      -3.932  14.709  20.851  0.00  0.00    +0.000 C 
ATOM      7  C   UNL     1      -3.188  13.337  20.804  0.00  0.00    +0.000 C 
ATOM      8  C   UNL     1      -1.751  13.633  20.349  0.00  0.00    +0.000 C 
ATOM      9  C   UNL     1      -0.826  12.676  21.120  0.00  0.00    +0.000 C 
ATOM     10  C   UNL     1       0.619  13.187  21.135  0.00  0.00    +0.000 C 
ATOM     11  C   UNL     1       1.187  12.676  19.832  0.00  0.00    +0.000 C 
ATOM     12  O   UNL     1       2.194  13.107  19.303  0.00  0.00    +0.000 OA
ATOM     13  N   UNL     1       0.399  11.640  19.424  0.00  0.00    +0.000 N 
ATOM     14  C   UNL     1       0.657  10.847  18.239  0.00  0.00    +0.000 C 
ATOM     15  C   UNL     1      -0.675  11.442  20.246  0.00  0.00    +0.000 C 
ATOM     16  O   UNL     1      -1.462  10.516  20.159  0.00  0.00    +0.000 OA
ATOM     17  C   UNL     1      -1.514  12.485  22.512  0.00  0.00    +0.000 C 
ATOM     18  C   UNL     1      -1.198  13.588  23.531  0.00  0.00    +0.000 C 
ATOM     19  C   UNL     1      -1.116  11.142  23.169  0.00  0.00    +0.000 C 
ATOM     20  C   UNL     1      -3.007  12.513  22.126  0.00  0.00    +0.000 C 
ATOM     21  C   UNL     1      -4.169  12.819  23.068  0.00  0.00    +0.000 C 
ATOM     22  C   UNL     1      -5.370  13.229  22.174  0.00  0.00    +0.000 C 
ATOM     23  C   UNL     1      -5.371  12.301  20.815  0.00  0.00    +0.000 C 
ATOM     24  O   UNL     1      -6.274  11.548  20.472  0.00  0.00    +0.000 OA
ATOM     25  N   UNL     1      -4.141  12.481  20.081  0.00  0.00    +0.000 N 
ATOM     26  C   UNL     1      -3.877  11.875  18.789  0.00  0.00    +0.000 C 
ENDROOT
TORSDOF 0
ENDMDL
MODEL 2
REMARK VINA RESULT:      -5.9      2.861      4.778
REMARK  Name = 
REMARK  5 active torsions:
REMARK  status: ('A' for Active; 'I' for Inactive)
REMARK    1  A    between atoms: C_1  and  C_2
REMARK    2  A    between atoms: N_13  and  C_14
REMARK    3  A    between atoms: C_17  and  C_18
REMARK    4  A    between atoms: C_17  and  C_19
REMARK    5  A    between atoms: N_25  and  C_26
REMARK                            x       y       z     vdW  Elec       q    Type
REMARK                         _______ _______ _______ _____ _____    ______ ____
ROOT
ATOM      1  C   UNL     1      -6.961  10.038  18.963  0.00  0.00    +0.000 C 
ATOM      2  C   UNL     1      -6.805  11.526  18.975  0.00  0.00    +0.000 C 
ATOM      3  C   UNL     1      -6.491  12.177  17.630  0.00  0.00    +0.000 C 
ATOM      4  C   UNL     1      -6.483  13.660  18.028  0.00  0.00    +0.000 C 
ATOM      5  N   UNL     1      -6.409  13.632  19.493  0.00  0.00    +0.000 NA
ATOM      6  C   UNL     1      -5.746  14.735  20.152  0.00  0.00    +0.000 C 
ATOM      7  C   UNL     1      -4.738  14.211  21.223  0.00  0.00    +0.000 C 
ATOM      8  C   UNL     1      -4.480  15.378  22.189  0.00  0.00    +0.000 C 
ATOM      9  C   UNL     1      -4.340  14.776  23.598  0.00  0.00    +0.000 C 
ATOM     10  C   UNL     1      -4.573  15.834  24.682  0.00  0.00    +0.000 C 
ATOM     11  C   UNL     1      -3.218  16.488  24.834  0.00  0.00    +0.000 C 
ATOM     12  O   UNL     1      -3.031  17.570  25.356  0.00  0.00    +0.000 OA
ATOM     13  N   UNL     1      -2.292  15.621  24.335  0.00  0.00    +0.000 N 
ATOM     14  C   UNL     1      -0.863  15.865  24.357  0.00  0.00    +0.000 C 
ATOM     15  C   UNL     1      -2.858  14.501  23.792  0.00  0.00    +0.000 C 
ATOM     16  O   UNL     1      -2.242  13.533  23.383  0.00  0.00    +0.000 OA
ATOM     17  C   UNL     1      -5.302  13.544  23.607  0.00  0.00    +0.000 C 
ATOM     18  C   UNL     1      -6.766  13.885  23.914  0.00  0.00    +0.000 C 
ATOM     19  C   UNL     1      -4.863  12.481  24.643  0.00  0.00    +0.000 C 
ATOM     20  C   UNL     1      -5.156  13.026  22.161  0.00  0.00    +0.000 C 
ATOM     21  C   UNL     1      -6.154  12.135  21.425  0.00  0.00    +0.000 C 
ATOM     22  C   UNL     1      -5.861  12.298  19.909  0.00  0.00    +0.000 C 
ATOM     23  C   UNL     1      -4.236  12.418  19.684  0.00  0.00    +0.000 C 
ATOM     24  O   UNL     1      -3.554  11.647  19.019  0.00  0.00    +0.000 OA
ATOM     25  N   UNL     1      -3.711  13.555  20.401  0.00  0.00    +0.000 N 
ATOM     26  C   UNL     1      -2.326  13.986  20.326  0.00  0.00    +0.000 C 
ENDROOT
TORSDOF 0
ENDMDL
MODEL 3
REMARK VINA RESULT:      -5.9      2.601      6.751
REMARK  Name = 
REMARK  5 active torsions:
REMARK  status: ('A' for Active; 'I' for Inactive)
REMARK    1  A    between atoms: C_1  and  C_2
REMARK    2  A    between atoms: N_13  and  C_14
REMARK    3  A    between atoms: C_17  and  C_18
REMARK    4  A    between atoms: C_17  and  C_19
REMARK    5  A    between atoms: N_25  and  C_26
REMARK                            x       y       z     vdW  Elec       q    Type
REMARK                         _______ _______ _______ _____ _____    ______ ____
ROOT
ATOM      1  C   UNL     1       4.314  14.489  18.172  0.00  0.00    +0.000 C 
ATOM      2  C   UNL     1       3.023  15.233  18.304  0.00  0.00    +0.000 C 
ATOM      3  C   UNL     1       3.138  16.712  18.666  0.00  0.00    +0.000 C 
ATOM      4  C   UNL     1       1.660  17.128  18.634  0.00  0.00    +0.000 C 
ATOM      5  N   UNL     1       0.935  15.852  18.646  0.00  0.00    +0.000 NA
ATOM      6  C   UNL     1      -0.373  15.830  19.262  0.00  0.00    +0.000 C 
ATOM      7  C   UNL     1      -0.504  14.613  20.232  0.00  0.00    +0.000 C 
ATOM      8  C   UNL     1      -2.008  14.371  20.430  0.00  0.00    +0.000 C 
ATOM      9  C   UNL     1      -2.213  12.850  20.519  0.00  0.00    +0.000 C 
ATOM     10  C   UNL     1      -3.668  12.465  20.224  0.00  0.00    +0.000 C 
ATOM     11  C   UNL     1      -4.354  12.629  21.560  0.00  0.00    +0.000 C 
ATOM     12  O   UNL     1      -5.557  12.728  21.709  0.00  0.00    +0.000 OA
ATOM     13  N   UNL     1      -3.387  12.588  22.521  0.00  0.00    +0.000 N 
ATOM     14  C   UNL     1      -3.659  12.654  23.943  0.00  0.00    +0.000 C 
ATOM     15  C   UNL     1      -2.128  12.499  21.996  0.00  0.00    +0.000 C 
ATOM     16  O   UNL     1      -1.109  12.340  22.644  0.00  0.00    +0.000 OA
ATOM     17  C   UNL     1      -1.125  12.240  19.577  0.00  0.00    +0.000 C 
ATOM     18  C   UNL     1      -1.523  12.192  18.096  0.00  0.00    +0.000 C 
ATOM     19  C   UNL     1      -0.755  10.795  19.988  0.00  0.00    +0.000 C 
ATOM     20  C   UNL     1       0.052  13.214  19.793  0.00  0.00    +0.000 C 
ATOM     21  C   UNL     1       1.228  13.420  18.841  0.00  0.00    +0.000 C 
ATOM     22  C   UNL     1       1.850  14.798  19.195  0.00  0.00    +0.000 C 
ATOM     23  C   UNL     1       1.805  15.006  20.827  0.00  0.00    +0.000 C 
ATOM     24  O   UNL     1       2.782  15.164  21.548  0.00  0.00    +0.000 OA
ATOM     25  N   UNL     1       0.444  14.955  21.303  0.00  0.00    +0.000 N 
ATOM     26  C   UNL     1       0.062  15.200  22.683  0.00  0.00    +0.000 C 
ENDROOT
TORSDOF 0
ENDMDL
MODEL 4
REMARK VINA RESULT:      -5.8      2.976      6.588
REMARK  Name = 
REMARK  5 active torsions:
REMARK  status: ('A' for Active; 'I' for Inactive)
REMARK    1  A    between atoms: C_1  and  C_2
REMARK    2  A    between atoms: N_13  and  C_14
REMARK    3  A    between atoms: C_17  and  C_18
REMARK    4  A    between atoms: C_17  and  C_19
REMARK    5  A    between atoms: N_25  and  C_26
REMARK                            x       y       z     vdW  Elec       q    Type
REMARK                         _______ _______ _______ _____ _____    ______ ____
ROOT
ATOM      1  C   UNL     1       4.555  14.211  22.093  0.00  0.00    +0.000 C 
ATOM      2  C   UNL     1       3.854  14.522  20.809  0.00  0.00    +0.000 C 
ATOM      3  C   UNL     1       3.856  15.988  20.384  0.00  0.00    +0.000 C 
ATOM      4  C   UNL     1       3.134  15.893  19.032  0.00  0.00    +0.000 C 
ATOM      5  N   UNL     1       2.523  14.560  19.052  0.00  0.00    +0.000 NA
ATOM      6  C   UNL     1       1.293  14.375  18.313  0.00  0.00    +0.000 C 
ATOM      7  C   UNL     1       0.234  13.630  19.185  0.00  0.00    +0.000 C 
ATOM      8  C   UNL     1      -0.796  13.037  18.211  0.00  0.00    +0.000 C 
ATOM      9  C   UNL     1      -1.224  11.674  18.780  0.00  0.00    +0.000 C 
ATOM     10  C   UNL     1      -1.844  10.786  17.695  0.00  0.00    +0.000 C 
ATOM     11  C   UNL     1      -3.291  11.222  17.668  0.00  0.00    +0.000 C 
ATOM     12  O   UNL     1      -4.059  10.999  16.751  0.00  0.00    +0.000 OA
ATOM     13  N   UNL     1      -3.552  11.837  18.856  0.00  0.00    +0.000 N 
ATOM     14  C   UNL     1      -4.856  12.343  19.233  0.00  0.00    +0.000 C 
ATOM     15  C   UNL     1      -2.443  11.944  19.647  0.00  0.00    +0.000 C 
ATOM     16  O   UNL     1      -2.438  12.355  20.794  0.00  0.00    +0.000 OA
ATOM     17  C   UNL     1       0.051  11.117  19.494  0.00  0.00    +0.000 C 
ATOM     18  C   UNL     1       1.038  10.401  18.561  0.00  0.00    +0.000 C 
ATOM     19  C   UNL     1      -0.312  10.115  20.616  0.00  0.00    +0.000 C 
ATOM     20  C   UNL     1       0.677  12.408  20.061  0.00  0.00    +0.000 C 
ATOM     21  C   UNL     1       2.137  12.589  20.468  0.00  0.00    +0.000 C 
ATOM     22  C   UNL     1       2.409  14.118  20.482  0.00  0.00    +0.000 C 
ATOM     23  C   UNL     1       1.079  14.896  21.061  0.00  0.00    +0.000 C 
ATOM     24  O   UNL     1       1.052  15.600  22.063  0.00  0.00    +0.000 OA
ATOM     25  N   UNL     1      -0.069  14.617  20.232  0.00  0.00    +0.000 N 
ATOM     26  C   UNL     1      -1.370  15.232  20.424  0.00  0.00    +0.000 C 
ENDROOT
TORSDOF 0
ENDMDL
MODEL 5
REMARK VINA RESULT:      -5.8      1.895      6.211
REMARK  Name = 
REMARK  5 active torsions:
REMARK  status: ('A' for Active; 'I' for Inactive)
REMARK    1  A    between atoms: C_1  and  C_2
REMARK    2  A    between atoms: N_13  and  C_14
REMARK    3  A    between atoms: C_17  and  C_18
REMARK    4  A    between atoms: C_17  and  C_19
REMARK    5  A    between atoms: N_25  and  C_26
REMARK                            x       y       z     vdW  Elec       q    Type
REMARK                         _______ _______ _______ _____ _____    ______ ____
ROOT
ATOM      1  C   UNL     1       2.404  14.785  18.449  0.00  0.00    +0.000 C 
ATOM      2  C   UNL     1       1.921  13.591  19.209  0.00  0.00    +0.000 C 
ATOM      3  C   UNL     1       2.150  12.236  18.543  0.00  0.00    +0.000 C 
ATOM      4  C   UNL     1       1.608  11.292  19.626  0.00  0.00    +0.000 C 
ATOM      5  N   UNL     1       0.848  12.177  20.516  0.00  0.00    +0.000 NA
ATOM      6  C   UNL     1      -0.286  11.612  21.214  0.00  0.00    +0.000 C 
ATOM      7  C   UNL     1      -1.532  12.545  21.086  0.00  0.00    +0.000 C 
ATOM      8  C   UNL     1      -2.485  12.160  22.228  0.00  0.00    +0.000 C 
ATOM      9  C   UNL     1      -3.141  13.459  22.726  0.00  0.00    +0.000 C 
ATOM     10  C   UNL     1      -3.711  13.290  24.139  0.00  0.00    +0.000 C 
ATOM     11  C   UNL     1      -5.081  12.699  23.897  0.00  0.00    +0.000 C 
ATOM     12  O   UNL     1      -5.742  12.125  24.743  0.00  0.00    +0.000 OA
ATOM     13  N   UNL     1      -5.423  12.981  22.608  0.00  0.00    +0.000 N 
ATOM     14  C   UNL     1      -6.698  12.628  22.016  0.00  0.00    +0.000 C 
ATOM     15  C   UNL     1      -4.424  13.616  21.926  0.00  0.00    +0.000 C 
ATOM     16  O   UNL     1      -4.523  14.068  20.799  0.00  0.00    +0.000 OA
ATOM     17  C   UNL     1      -2.046  14.560  22.542  0.00  0.00    +0.000 C 
ATOM     18  C   UNL     1      -1.035  14.646  23.694  0.00  0.00    +0.000 C 
ATOM     19  C   UNL     1      -2.668  15.968  22.386  0.00  0.00    +0.000 C 
ATOM     20  C   UNL     1      -1.354  14.095  21.244  0.00  0.00    +0.000 C 
ATOM     21  C   UNL     1       0.051  14.485  20.790  0.00  0.00    +0.000 C 
ATOM     22  C   UNL     1       0.495  13.419  19.752  0.00  0.00    +0.000 C 
ATOM     23  C   UNL     1      -0.800  12.995  18.828  0.00  0.00    +0.000 C 
ATOM     24  O   UNL     1      -0.877  13.131  17.613  0.00  0.00    +0.000 OA
ATOM     25  N   UNL     1      -1.852  12.454  19.654  0.00  0.00    +0.000 N 
ATOM     26  C   UNL     1      -3.087  11.901  19.127  0.00  0.00    +0.000 C 
ENDROOT
TORSDOF 0
ENDMDL
MODEL 6
REMARK VINA RESULT:      -5.8      2.056      3.302
REMARK  Name = 
REMARK  5 active torsions:
REMARK  status: ('A' for Active; 'I' for Inactive)
REMARK    1  A    between atoms: C_1  and  C_2
REMARK    2  A    between atoms: N_13  and  C_14
REMARK    3  A    between atoms: C_17  and  C_18
REMARK    4  A    between atoms: C_17  and  C_19
REMARK    5  A    between atoms: N_25  and  C_26
REMARK                            x       y       z     vdW  Elec       q    Type
REMARK                         _______ _______ _______ _____ _____    ______ ____
ROOT
ATOM      1  C   UNL     1      -7.193  12.364  19.796  0.00  0.00    +0.000 C 
ATOM      2  C   UNL     1      -6.252  12.408  20.958  0.00  0.00    +0.000 C 
ATOM      3  C   UNL     1      -6.799  13.034  22.239  0.00  0.00    +0.000 C 
ATOM      4  C   UNL     1      -5.608  12.830  23.186  0.00  0.00    +0.000 C 
ATOM      5  N   UNL     1      -4.496  12.501  22.287  0.00  0.00    +0.000 NA
ATOM      6  C   UNL     1      -3.163  12.880  22.703  0.00  0.00    +0.000 C 
ATOM      7  C   UNL     1      -2.404  13.589  21.538  0.00  0.00    +0.000 C 
ATOM      8  C   UNL     1      -0.907  13.491  21.868  0.00  0.00    +0.000 C 
ATOM      9  C   UNL     1      -0.164  13.281  20.538  0.00  0.00    +0.000 C 
ATOM     10  C   UNL     1       1.231  12.687  20.766  0.00  0.00    +0.000 C 
ATOM     11  C   UNL     1       2.089  13.899  21.046  0.00  0.00    +0.000 C 
ATOM     12  O   UNL     1       3.182  13.862  21.579  0.00  0.00    +0.000 OA
ATOM     13  N   UNL     1       1.433  14.985  20.546  0.00  0.00    +0.000 N 
ATOM     14  C   UNL     1       1.967  16.332  20.568  0.00  0.00    +0.000 C 
ATOM     15  C   UNL     1       0.204  14.668  20.037  0.00  0.00    +0.000 C 
ATOM     16  O   UNL     1      -0.526  15.438  19.439  0.00  0.00    +0.000 OA
ATOM     17  C   UNL     1      -1.145  12.440  19.657  0.00  0.00    +0.000 C 
ATOM     18  C   UNL     1      -1.087  10.928  19.911  0.00  0.00    +0.000 C 
ATOM     19  C   UNL     1      -0.882  12.650  18.146  0.00  0.00    +0.000 C 
ATOM     20  C   UNL     1      -2.512  13.012  20.083  0.00  0.00    +0.000 C 
ATOM     21  C   UNL     1      -3.862  12.319  19.921  0.00  0.00    +0.000 C 
ATOM     22  C   UNL     1      -4.837  13.004  20.915  0.00  0.00    +0.000 C 
ATOM     23  C   UNL     1      -4.513  14.617  20.962  0.00  0.00    +0.000 C 
ATOM     24  O   UNL     1      -5.302  15.506  20.665  0.00  0.00    +0.000 OA
ATOM     25  N   UNL     1      -3.153  14.845  21.386  0.00  0.00    +0.000 N 
ATOM     26  C   UNL     1      -2.592  16.164  21.620  0.00  0.00    +0.000 C 
ENDROOT
TORSDOF 0
ENDMDL
MODEL 7
REMARK VINA RESULT:      -5.7      1.891      6.179
REMARK  Name = 
REMARK  5 active torsions:
REMARK  status: ('A' for Active; 'I' for Inactive)
REMARK    1  A    between atoms: C_1  and  C_2
REMARK    2  A    between atoms: N_13  and  C_14
REMARK    3  A    between atoms: C_17  and  C_18
REMARK    4  A    between atoms: C_17  and  C_19
REMARK    5  A    between atoms: N_25  and  C_26
REMARK                            x       y       z     vdW  Elec       q    Type
REMARK                         _______ _______ _______ _____ _____    ______ ____
ROOT
ATOM      1  C   UNL     1       1.954  15.627  19.450  0.00  0.00    +0.000 C 
ATOM      2  C   UNL     1       1.501  14.419  20.206  0.00  0.00    +0.000 C 
ATOM      3  C   UNL     1       2.080  13.084  19.743  0.00  0.00    +0.000 C 
ATOM      4  C   UNL     1       1.459  12.132  20.776  0.00  0.00    +0.000 C 
ATOM      5  N   UNL     1       0.392  12.928  21.391  0.00  0.00    +0.000 NA
ATOM      6  C   UNL     1      -0.770  12.222  21.887  0.00  0.00    +0.000 C 
ATOM      7  C   UNL     1      -2.083  12.917  21.406  0.00  0.00    +0.000 C 
ATOM      8  C   UNL     1      -3.198  12.448  22.353  0.00  0.00    +0.000 C 
ATOM      9  C   UNL     1      -4.140  13.644  22.569  0.00  0.00    +0.000 C 
ATOM     10  C   UNL     1      -4.981  13.471  23.839  0.00  0.00    +0.000 C 
ATOM     11  C   UNL     1      -6.154  12.638  23.374  0.00  0.00    +0.000 C 
ATOM     12  O   UNL     1      -6.892  12.015  24.113  0.00  0.00    +0.000 OA
ATOM     13  N   UNL     1      -6.237  12.774  22.020  0.00  0.00    +0.000 N 
ATOM     14  C   UNL     1      -7.276  12.171  21.210  0.00  0.00    +0.000 C 
ATOM     15  C   UNL     1      -5.219  13.527  21.504  0.00  0.00    +0.000 C 
ATOM     16  O   UNL     1      -5.130  13.883  20.342  0.00  0.00    +0.000 OA
ATOM     17  C   UNL     1      -3.214  14.903  22.511  0.00  0.00    +0.000 C 
ATOM     18  C   UNL     1      -2.514  15.235  23.836  0.00  0.00    +0.000 C 
ATOM     19  C   UNL     1      -3.995  16.170  22.087  0.00  0.00    +0.000 C 
ATOM     20  C   UNL     1      -2.185  14.482  21.442  0.00  0.00    +0.000 C 
ATOM     21  C   UNL     1      -0.791  15.077  21.259  0.00  0.00    +0.000 C 
ATOM     22  C   UNL     1       0.033  14.040  20.450  0.00  0.00    +0.000 C 
ATOM     23  C   UNL     1      -0.940  13.342  19.321  0.00  0.00    +0.000 C 
ATOM     24  O   UNL     1      -0.762  13.384  18.109  0.00  0.00    +0.000 OA
ATOM     25  N   UNL     1      -2.055  12.682  19.955  0.00  0.00    +0.000 N 
ATOM     26  C   UNL     1      -3.040  11.892  19.237  0.00  0.00    +0.000 C 
ENDROOT
TORSDOF 0
ENDMDL
MODEL 8
REMARK VINA RESULT:      -5.7      2.552      6.033
REMARK  Name = 
REMARK  5 active torsions:
REMARK  status: ('A' for Active; 'I' for Inactive)
REMARK    1  A    between atoms: C_1  and  C_2
REMARK    2  A    between atoms: N_13  and  C_14
REMARK    3  A    between atoms: C_17  and  C_18
REMARK    4  A    between atoms: C_17  and  C_19
REMARK    5  A    between atoms: N_25  and  C_26
REMARK                            x       y       z     vdW  Elec       q    Type
REMARK                         _______ _______ _______ _____ _____    ______ ____
ROOT
ATOM      1  C   UNL     1       1.080   9.257  22.498  0.00  0.00    +0.000 C 
ATOM      2  C   UNL     1       0.203   9.865  21.449  0.00  0.00    +0.000 C 
ATOM      3  C   UNL     1       0.723   9.789  20.016  0.00  0.00    +0.000 C 
ATOM      4  C   UNL     1      -0.448  10.427  19.255  0.00  0.00    +0.000 C 
ATOM      5  N   UNL     1      -1.236  11.081  20.305  0.00  0.00    +0.000 NA
ATOM      6  C   UNL     1      -1.982  12.267  19.944  0.00  0.00    +0.000 C 
ATOM      7  C   UNL     1      -1.749  13.403  20.989  0.00  0.00    +0.000 C 
ATOM      8  C   UNL     1      -2.918  14.387  20.832  0.00  0.00    +0.000 C 
ATOM      9  C   UNL     1      -3.274  14.895  22.240  0.00  0.00    +0.000 C 
ATOM     10  C   UNL     1      -4.693  15.473  22.283  0.00  0.00    +0.000 C 
ATOM     11  C   UNL     1      -4.505  16.901  21.823  0.00  0.00    +0.000 C 
ATOM     12  O   UNL     1      -5.401  17.617  21.417  0.00  0.00    +0.000 OA
ATOM     13  N   UNL     1      -3.191  17.216  22.005  0.00  0.00    +0.000 N 
ATOM     14  C   UNL     1      -2.630  18.525  21.735  0.00  0.00    +0.000 C 
ATOM     15  C   UNL     1      -2.453  16.156  22.453  0.00  0.00    +0.000 C 
ATOM     16  O   UNL     1      -1.285  16.210  22.793  0.00  0.00    +0.000 OA
ATOM     17  C   UNL     1      -2.984  13.686  23.189  0.00  0.00    +0.000 C 
ATOM     18  C   UNL     1      -4.127  12.666  23.283  0.00  0.00    +0.000 C 
ATOM     19  C   UNL     1      -2.679  14.151  24.633  0.00  0.00    +0.000 C 
ATOM     20  C   UNL     1      -1.747  13.055  22.518  0.00  0.00    +0.000 C 
ATOM     21  C   UNL     1      -1.264  11.619  22.702  0.00  0.00    +0.000 C 
ATOM     22  C   UNL     1      -0.345  11.299  21.493  0.00  0.00    +0.000 C 
ATOM     23  C   UNL     1       0.538  12.637  21.119  0.00  0.00    +0.000 C 
ATOM     24  O   UNL     1       1.761  12.704  21.136  0.00  0.00    +0.000 OA
ATOM     25  N   UNL     1      -0.332  13.738  20.786  0.00  0.00    +0.000 N 
ATOM     26  C   UNL     1       0.143  15.029  20.320  0.00  0.00    +0.000 C 
ENDROOT
TORSDOF 0
ENDMDL
MODEL 9
REMARK VINA RESULT:      -5.6     10.164     12.208
REMARK  Name = 
REMARK  5 active torsions:
REMARK  status: ('A' for Active; 'I' for Inactive)
REMARK    1  A    between atoms: C_1  and  C_2
REMARK    2  A    between atoms: N_13  and  C_14
REMARK    3  A    between atoms: C_17  and  C_18
REMARK    4  A    between atoms: C_17  and  C_19
REMARK    5  A    between atoms: N_25  and  C_26
REMARK                            x       y       z     vdW  Elec       q    Type
REMARK                         _______ _______ _______ _____ _____    ______ ____
ROOT
ATOM      1  C   UNL     1       5.935  11.142  24.666  0.00  0.00    +0.000 C 
ATOM      2  C   UNL     1       6.975  12.217  24.696  0.00  0.00    +0.000 C 
ATOM      3  C   UNL     1       6.726  13.362  25.675  0.00  0.00    +0.000 C 
ATOM      4  C   UNL     1       8.003  14.190  25.473  0.00  0.00    +0.000 C 
ATOM      5  N   UNL     1       8.573  13.662  24.230  0.00  0.00    +0.000 NA
ATOM      6  C   UNL     1       9.348  14.567  23.409  0.00  0.00    +0.000 C 
ATOM      7  C   UNL     1       8.906  14.469  21.915  0.00  0.00    +0.000 C 
ATOM      8  C   UNL     1      10.064  15.036  21.079  0.00  0.00    +0.000 C 
ATOM      9  C   UNL     1      10.148  14.195  19.794  0.00  0.00    +0.000 C 
ATOM     10  C   UNL     1      11.524  14.326  19.130  0.00  0.00    +0.000 C 
ATOM     11  C   UNL     1      11.393  15.578  18.294  0.00  0.00    +0.000 C 
ATOM     12  O   UNL     1      12.333  16.213  17.854  0.00  0.00    +0.000 OA
ATOM     13  N   UNL     1      10.062  15.801  18.101  0.00  0.00    +0.000 N 
ATOM     14  C   UNL     1       9.533  16.882  17.294  0.00  0.00    +0.000 C 
ATOM     15  C   UNL     1       9.277  14.904  18.770  0.00  0.00    +0.000 C 
ATOM     16  O   UNL     1       8.066  14.824  18.672  0.00  0.00    +0.000 OA
ATOM     17  C   UNL     1       9.715  12.756  20.226  0.00  0.00    +0.000 C 
ATOM     18  C   UNL     1      10.843  11.911  20.835  0.00  0.00    +0.000 C 
ATOM     19  C   UNL     1       9.143  11.948  19.036  0.00  0.00    +0.000 C 
ATOM     20  C   UNL     1       8.633  13.061  21.281  0.00  0.00    +0.000 C 
ATOM     21  C   UNL     1       8.154  12.107  22.373  0.00  0.00    +0.000 C 
ATOM     22  C   UNL     1       7.477  12.982  23.463  0.00  0.00    +0.000 C 
ATOM     23  C   UNL     1       6.649  14.204  22.734  0.00  0.00    +0.000 C 
ATOM     24  O   UNL     1       5.443  14.394  22.825  0.00  0.00    +0.000 OA
ATOM     25  N   UNL     1       7.543  15.019  21.948  0.00  0.00    +0.000 N 
ATOM     26  C   UNL     1       7.134  16.232  21.261  0.00  0.00    +0.000 C 
ENDROOT
TORSDOF 0
ENDMDL
