MODEL 1
REMARK VINA RESULT:      -7.4      0.000      0.000
REMARK  Name = 
REMARK  7 active torsions:
REMARK  status: ('A' for Active; 'I' for Inactive)
REMARK    1  A    between atoms: C_1  and  O_2
REMARK    2  A    between atoms: O_2  and  C_3
REMARK    3  A    between atoms: C_7  and  N_8
REMARK    4  A    between atoms: C_18  and  C_19
REMARK    5  A    between atoms: C_19  and  C_20
REMARK    6  A    between atoms: C_20  and  C_21
REMARK    7  A    between atoms: N_26  and  C_27
REMARK                            x       y       z     vdW  Elec       q    Type
REMARK                         _______ _______ _______ _____ _____    ______ ____
ROOT
ATOM      1  N   UNL     1       2.654   6.325  18.155  0.00  0.00    +0.000 N 
ATOM      2  C   UNL     1       1.742   5.834  19.200  0.00  0.00    +0.000 C 
ATOM      3  C   UNL     1       1.860   6.701  20.472  0.00  0.00    +0.000 C 
ATOM      4  N   UNL     1       1.662   8.121  20.147  0.00  0.00    +0.000 N 
ATOM      5  C   UNL     1       0.896   8.986  20.904  0.00  0.00    +0.000 A 
ATOM      6  C   UNL     1       0.810   8.775  22.391  0.00  0.00    +0.000 A 
ATOM      7  C   UNL     1       0.062   9.603  23.129  0.00  0.00    +0.000 A 
ATOM      8  C   UNL     1      -0.640  10.632  22.483  0.00  0.00    +0.000 A 
ATOM      9  N   UNL     1      -1.449  11.565  22.932  0.00  0.00    +0.000 NA
ATOM     10  N   UNL     1      -1.891  12.284  21.849  0.00  0.00    +0.000 NA
ATOM     11  C   UNL     1      -1.335  11.782  20.760  0.00  0.00    +0.000 A 
ATOM     12  N   UNL     1      -0.504  10.739  21.115  0.00  0.00    +0.000 N 
ATOM     13  N   UNL     1       0.270   9.965  20.296  0.00  0.00    +0.000 NA
ATOM     14  C   UNL     1       2.561   8.620  19.089  0.00  0.00    +0.000 C 
ATOM     15  C   UNL     1       2.480   7.751  17.815  0.00  0.00    +0.000 C 
ENDROOT
BRANCH   1  20
ATOM     16  C   UNL     1       5.563   5.280  16.085  0.00  0.00    +0.000 A 
ATOM     17  C   UNL     1       5.492   3.895  16.213  0.00  0.00    +0.000 A 
ATOM     18  C   UNL     1       4.499   3.319  16.996  0.00  0.00    +0.000 A 
ATOM     19  C   UNL     1       3.566   4.130  17.647  0.00  0.00    +0.000 A 
ATOM     20  C   UNL     1       3.596   5.528  17.538  0.00  0.00    +0.000 A 
ATOM     21  C   UNL     1       4.623   6.077  16.749  0.00  0.00    +0.000 A 
BRANCH  16  23
ATOM     22  C   UNL     1       6.984   4.878  14.222  0.00  0.00    +0.000 C 
ATOM     23  O   UNL     1       6.572   5.735  15.281  0.00  0.00    +0.000 OA
ENDBRANCH  16  23
ENDBRANCH   1  20
BRANCH  11  24
ATOM     24  C   UNL     1      -1.578  12.241  19.367  0.00  0.00    +0.000 C 
BRANCH  24  25
ATOM     25  C   UNL     1      -0.874  13.573  19.116  0.00  0.00    +0.000 C 
BRANCH  25  26
ATOM     26  C   UNL     1       0.599  13.401  18.801  0.00  0.00    +0.000 C 
ATOM     27  O   UNL     1       1.025  12.372  18.276  0.00  0.00    +0.000 OA
ATOM     28  N   UNL     1       1.426  14.469  19.116  0.00  0.00    +0.000 N 
ATOM     29  C   UNL     1       2.836  14.441  18.717  0.00  0.00    +0.000 C 
ATOM     30  C   UNL     1       3.223  15.736  17.973  0.00  0.00    +0.000 C 
ATOM     31  N   UNL     1       2.872  16.990  18.681  0.00  0.00    +0.000 NA
ATOM     32  C   UNL     1       3.750  17.226  19.826  0.00  0.00    +0.000 C 
ATOM     33  C   UNL     1       1.450  16.953  19.080  0.00  0.00    +0.000 C 
ATOM     34  C   UNL     1       1.027  15.681  19.842  0.00  0.00    +0.000 C 
ENDBRANCH  25  26
ENDBRANCH  24  25
ENDBRANCH  11  24
TORSDOF 5
ENDMDL
MODEL 2
REMARK VINA RESULT:      -7.3      0.887      1.244
REMARK  Name = 
REMARK  7 active torsions:
REMARK  status: ('A' for Active; 'I' for Inactive)
REMARK    1  A    between atoms: C_1  and  O_2
REMARK    2  A    between atoms: O_2  and  C_3
REMARK    3  A    between atoms: C_7  and  N_8
REMARK    4  A    between atoms: C_18  and  C_19
REMARK    5  A    between atoms: C_19  and  C_20
REMARK    6  A    between atoms: C_20  and  C_21
REMARK    7  A    between atoms: N_26  and  C_27
REMARK                            x       y       z     vdW  Elec       q    Type
REMARK                         _______ _______ _______ _____ _____    ______ ____
ROOT
ATOM      1  N   UNL     1       2.675   6.380  18.087  0.00  0.00    +0.000 N 
ATOM      2  C   UNL     1       1.795   5.888  19.159  0.00  0.00    +0.000 C 
ATOM      3  C   UNL     1       1.918   6.779  20.413  0.00  0.00    +0.000 C 
ATOM      4  N   UNL     1       1.682   8.189  20.067  0.00  0.00    +0.000 N 
ATOM      5  C   UNL     1       0.911   9.050  20.824  0.00  0.00    +0.000 A 
ATOM      6  C   UNL     1       0.860   8.864  22.316  0.00  0.00    +0.000 A 
ATOM      7  C   UNL     1       0.108   9.688  23.053  0.00  0.00    +0.000 A 
ATOM      8  C   UNL     1      -0.631  10.690  22.404  0.00  0.00    +0.000 A 
ATOM      9  N   UNL     1      -1.452  11.612  22.853  0.00  0.00    +0.000 NA
ATOM     10  N   UNL     1      -1.931  12.302  21.766  0.00  0.00    +0.000 NA
ATOM     11  C   UNL     1      -1.386  11.792  20.675  0.00  0.00    +0.000 A 
ATOM     12  N   UNL     1      -0.524  10.775  21.031  0.00  0.00    +0.000 N 
ATOM     13  N   UNL     1       0.251  10.004  20.211  0.00  0.00    +0.000 NA
ATOM     14  C   UNL     1       2.548   8.688  18.982  0.00  0.00    +0.000 C 
ATOM     15  C   UNL     1       2.462   7.795  17.726  0.00  0.00    +0.000 C 
ENDROOT
BRANCH   1  20
ATOM     16  C   UNL     1       5.629   5.371  16.064  0.00  0.00    +0.000 A 
ATOM     17  C   UNL     1       5.533   3.984  16.131  0.00  0.00    +0.000 A 
ATOM     18  C   UNL     1       4.507   3.393  16.858  0.00  0.00    +0.000 A 
ATOM     19  C   UNL     1       3.567   4.192  17.515  0.00  0.00    +0.000 A 
ATOM     20  C   UNL     1       3.623   5.593  17.466  0.00  0.00    +0.000 A 
ATOM     21  C   UNL     1       4.682   6.157  16.731  0.00  0.00    +0.000 A 
BRANCH  16  23
ATOM     22  C   UNL     1       7.131   5.002  14.258  0.00  0.00    +0.000 C 
ATOM     23  O   UNL     1       6.670   5.842  15.309  0.00  0.00    +0.000 OA
ENDBRANCH  16  23
ENDBRANCH   1  20
BRANCH  11  24
ATOM     24  C   UNL     1      -1.666  12.220  19.279  0.00  0.00    +0.000 C 
BRANCH  24  25
ATOM     25  C   UNL     1      -0.453  12.937  18.690  0.00  0.00    +0.000 C 
BRANCH  25  26
ATOM     26  C   UNL     1      -0.310  14.356  19.205  0.00  0.00    +0.000 C 
ATOM     27  O   UNL     1      -1.261  14.951  19.713  0.00  0.00    +0.000 OA
ATOM     28  N   UNL     1       0.947  14.930  19.090  0.00  0.00    +0.000 N 
ATOM     29  C   UNL     1       1.206  16.243  19.687  0.00  0.00    +0.000 C 
ATOM     30  C   UNL     1       2.472  16.206  20.569  0.00  0.00    +0.000 C 
ATOM     31  N   UNL     1       3.676  15.651  19.907  0.00  0.00    +0.000 NA
ATOM     32  C   UNL     1       4.226  16.581  18.922  0.00  0.00    +0.000 C 
ATOM     33  C   UNL     1       3.351  14.342  19.303  0.00  0.00    +0.000 C 
ATOM     34  C   UNL     1       2.101  14.342  18.400  0.00  0.00    +0.000 C 
ENDBRANCH  25  26
ENDBRANCH  24  25
ENDBRANCH  11  24
TORSDOF 5
ENDMDL
MODEL 3
REMARK VINA RESULT:      -7.3      4.381      8.461
REMARK  Name = 
REMARK  7 active torsions:
REMARK  status: ('A' for Active; 'I' for Inactive)
REMARK    1  A    between atoms: C_1  and  O_2
REMARK    2  A    between atoms: O_2  and  C_3
REMARK    3  A    between atoms: C_7  and  N_8
REMARK    4  A    between atoms: C_18  and  C_19
REMARK    5  A    between atoms: C_19  and  C_20
REMARK    6  A    between atoms: C_20  and  C_21
REMARK    7  A    between atoms: N_26  and  C_27
REMARK                            x       y       z     vdW  Elec       q    Type
REMARK                         _______ _______ _______ _____ _____    ______ ____
ROOT
ATOM      1  N   UNL     1       0.872   9.761  19.090  0.00  0.00    +0.000 N 
ATOM      2  C   UNL     1       1.295   8.989  20.269  0.00  0.00    +0.000 C 
ATOM      3  C   UNL     1       1.649   7.541  19.869  0.00  0.00    +0.000 C 
ATOM      4  N   UNL     1       2.639   7.534  18.783  0.00  0.00    +0.000 N 
ATOM      5  C   UNL     1       3.734   6.693  18.742  0.00  0.00    +0.000 A 
ATOM      6  C   UNL     1       3.626   5.324  19.357  0.00  0.00    +0.000 A 
ATOM      7  C   UNL     1       4.685   4.508  19.329  0.00  0.00    +0.000 A 
ATOM      8  C   UNL     1       5.876   4.968  18.745  0.00  0.00    +0.000 A 
ATOM      9  N   UNL     1       7.057   4.411  18.593  0.00  0.00    +0.000 NA
ATOM     10  N   UNL     1       7.872   5.334  17.987  0.00  0.00    +0.000 NA
ATOM     11  C   UNL     1       7.170   6.434  17.773  0.00  0.00    +0.000 A 
ATOM     12  N   UNL     1       5.878   6.241  18.216  0.00  0.00    +0.000 N 
ATOM     13  N   UNL     1       4.832   7.119  18.164  0.00  0.00    +0.000 NA
ATOM     14  C   UNL     1       2.231   8.318  17.602  0.00  0.00    +0.000 C 
ATOM     15  C   UNL     1       1.847   9.764  17.982  0.00  0.00    +0.000 C 
ENDROOT
BRANCH   1  20
ATOM     16  C   UNL     1      -2.360  11.048  17.773  0.00  0.00    +0.000 A 
ATOM     17  C   UNL     1      -2.775  11.851  18.832  0.00  0.00    +0.000 A 
ATOM     18  C   UNL     1      -1.995  11.947  19.979  0.00  0.00    +0.000 A 
ATOM     19  C   UNL     1      -0.791  11.242  20.065  0.00  0.00    +0.000 A 
ATOM     20  C   UNL     1      -0.333  10.430  19.017  0.00  0.00    +0.000 A 
ATOM     21  C   UNL     1      -1.153  10.346  17.878  0.00  0.00    +0.000 A 
BRANCH  16  23
ATOM     22  C   UNL     1      -4.585  11.222  16.955  0.00  0.00    +0.000 C 
ATOM     23  O   UNL     1      -3.199  11.040  16.692  0.00  0.00    +0.000 OA
ENDBRANCH  16  23
ENDBRANCH   1  20
BRANCH  11  24
ATOM     24  C   UNL     1       7.686   7.694  17.174  0.00  0.00    +0.000 C 
BRANCH  24  25
ATOM     25  C   UNL     1       8.204   8.628  18.265  0.00  0.00    +0.000 C 
BRANCH  25  26
ATOM     26  C   UNL     1       8.164  10.085  17.850  0.00  0.00    +0.000 C 
ATOM     27  O   UNL     1       7.384  10.483  16.984  0.00  0.00    +0.000 OA
ATOM     28  N   UNL     1       9.033  10.939  18.512  0.00  0.00    +0.000 N 
ATOM     29  C   UNL     1       8.961  12.382  18.271  0.00  0.00    +0.000 C 
ATOM     30  C   UNL     1       8.875  13.159  19.602  0.00  0.00    +0.000 C 
ATOM     31  N   UNL     1       9.922  12.814  20.593  0.00  0.00    +0.000 NA
ATOM     32  C   UNL     1      11.225  13.352  20.209  0.00  0.00    +0.000 C 
ATOM     33  C   UNL     1       9.967  11.349  20.778  0.00  0.00    +0.000 C 
ATOM     34  C   UNL     1      10.070  10.537  19.470  0.00  0.00    +0.000 C 
ENDBRANCH  25  26
ENDBRANCH  24  25
ENDBRANCH  11  24
TORSDOF 5
ENDMDL
MODEL 4
REMARK VINA RESULT:      -7.2      1.498      1.903
REMARK  Name = 
REMARK  7 active torsions:
REMARK  status: ('A' for Active; 'I' for Inactive)
REMARK    1  A    between atoms: C_1  and  O_2
REMARK    2  A    between atoms: O_2  and  C_3
REMARK    3  A    between atoms: C_7  and  N_8
REMARK    4  A    between atoms: C_18  and  C_19
REMARK    5  A    between atoms: C_19  and  C_20
REMARK    6  A    between atoms: C_20  and  C_21
REMARK    7  A    between atoms: N_26  and  C_27
REMARK                            x       y       z     vdW  Elec       q    Type
REMARK                         _______ _______ _______ _____ _____    ______ ____
ROOT
ATOM      1  N   UNL     1       2.510   6.698  18.400  0.00  0.00    +0.000 N 
ATOM      2  C   UNL     1       1.670   6.178  19.490  0.00  0.00    +0.000 C 
ATOM      3  C   UNL     1       1.742   7.110  20.719  0.00  0.00    +0.000 C 
ATOM      4  N   UNL     1       1.412   8.491  20.338  0.00  0.00    +0.000 N 
ATOM      5  C   UNL     1       0.591   9.320  21.078  0.00  0.00    +0.000 A 
ATOM      6  C   UNL     1       0.561   9.171  22.575  0.00  0.00    +0.000 A 
ATOM      7  C   UNL     1      -0.239   9.964  23.296  0.00  0.00    +0.000 A 
ATOM      8  C   UNL     1      -1.045  10.898  22.626  0.00  0.00    +0.000 A 
ATOM      9  N   UNL     1      -1.922  11.777  23.056  0.00  0.00    +0.000 NA
ATOM     10  N   UNL     1      -2.452  12.404  21.956  0.00  0.00    +0.000 NA
ATOM     11  C   UNL     1      -1.880  11.902  20.875  0.00  0.00    +0.000 A 
ATOM     12  N   UNL     1      -0.952  10.953  21.251  0.00  0.00    +0.000 N 
ATOM     13  N   UNL     1      -0.133  10.212  20.445  0.00  0.00    +0.000 NA
ATOM     14  C   UNL     1       2.238   9.017  19.234  0.00  0.00    +0.000 C 
ATOM     15  C   UNL     1       2.203   8.086  18.003  0.00  0.00    +0.000 C 
ENDROOT
BRANCH   1  20
ATOM     16  C   UNL     1       5.746   5.801  16.799  0.00  0.00    +0.000 A 
ATOM     17  C   UNL     1       5.522   4.464  16.484  0.00  0.00    +0.000 A 
ATOM     18  C   UNL     1       4.314   3.864  16.818  0.00  0.00    +0.000 A 
ATOM     19  C   UNL     1       3.321   4.607  17.465  0.00  0.00    +0.000 A 
ATOM     20  C   UNL     1       3.503   5.958  17.792  0.00  0.00    +0.000 A 
ATOM     21  C   UNL     1       4.742   6.529  17.450  0.00  0.00    +0.000 A 
BRANCH  16  23
ATOM     22  C   UNL     1       7.621   7.168  17.317  0.00  0.00    +0.000 C 
ATOM     23  O   UNL     1       6.964   6.290  16.411  0.00  0.00    +0.000 OA
ENDBRANCH  16  23
ENDBRANCH   1  20
BRANCH  11  24
ATOM     24  C   UNL     1      -2.196  12.274  19.470  0.00  0.00    +0.000 C 
BRANCH  24  25
ATOM     25  C   UNL     1      -1.007  12.987  18.829  0.00  0.00    +0.000 C 
BRANCH  25  26
ATOM     26  C   UNL     1      -0.666  14.288  19.528  0.00  0.00    +0.000 C 
ATOM     27  O   UNL     1      -1.514  15.162  19.706  0.00  0.00    +0.000 OA
ATOM     28  N   UNL     1       0.642  14.425  19.971  0.00  0.00    +0.000 N 
ATOM     29  C   UNL     1       1.020  15.588  20.777  0.00  0.00    +0.000 C 
ATOM     30  C   UNL     1       1.755  15.152  22.062  0.00  0.00    +0.000 C 
ATOM     31  N   UNL     1       2.898  14.234  21.844  0.00  0.00    +0.000 NA
ATOM     32  C   UNL     1       4.045  14.929  21.264  0.00  0.00    +0.000 C 
ATOM     33  C   UNL     1       2.466  13.095  21.007  0.00  0.00    +0.000 C 
ATOM     34  C   UNL     1       1.742  13.490  19.705  0.00  0.00    +0.000 C 
ENDBRANCH  25  26
ENDBRANCH  24  25
ENDBRANCH  11  24
TORSDOF 5
ENDMDL
MODEL 5
REMARK VINA RESULT:      -7.2      3.051      4.723
REMARK  Name = 
REMARK  7 active torsions:
REMARK  status: ('A' for Active; 'I' for Inactive)
REMARK    1  A    between atoms: C_1  and  O_2
REMARK    2  A    between atoms: O_2  and  C_3
REMARK    3  A    between atoms: C_7  and  N_8
REMARK    4  A    between atoms: C_18  and  C_19
REMARK    5  A    between atoms: C_19  and  C_20
REMARK    6  A    between atoms: C_20  and  C_21
REMARK    7  A    between atoms: N_26  and  C_27
REMARK                            x       y       z     vdW  Elec       q    Type
REMARK                         _______ _______ _______ _____ _____    ______ ____
ROOT
ATOM      1  N   UNL     1       2.464   6.163  18.463  0.00  0.00    +0.000 N 
ATOM      2  C   UNL     1       1.599   5.783  19.591  0.00  0.00    +0.000 C 
ATOM      3  C   UNL     1       1.738   6.799  20.745  0.00  0.00    +0.000 C 
ATOM      4  N   UNL     1       1.496   8.166  20.260  0.00  0.00    +0.000 N 
ATOM      5  C   UNL     1       0.734   9.100  20.935  0.00  0.00    +0.000 A 
ATOM      6  C   UNL     1       0.703   9.067  22.439  0.00  0.00    +0.000 A 
ATOM      7  C   UNL     1      -0.039   9.963  23.098  0.00  0.00    +0.000 A 
ATOM      8  C   UNL     1      -0.788  10.893  22.360  0.00  0.00    +0.000 A 
ATOM      9  N   UNL     1      -1.604  11.857  22.723  0.00  0.00    +0.000 NA
ATOM     10  N   UNL     1      -2.099  12.432  21.578  0.00  0.00    +0.000 NA
ATOM     11  C   UNL     1      -1.568  11.813  20.538  0.00  0.00    +0.000 A 
ATOM     12  N   UNL     1      -0.700  10.837  20.985  0.00  0.00    +0.000 N 
ATOM     13  N   UNL     1       0.065   9.986  20.237  0.00  0.00    +0.000 NA
ATOM     14  C   UNL     1       2.346   8.551  19.118  0.00  0.00    +0.000 C 
ATOM     15  C   UNL     1       2.244   7.534  17.961  0.00  0.00    +0.000 C 
ENDROOT
BRANCH   1  20
ATOM     16  C   UNL     1       5.720   4.844  17.240  0.00  0.00    +0.000 A 
ATOM     17  C   UNL     1       5.328   3.613  16.723  0.00  0.00    +0.000 A 
ATOM     18  C   UNL     1       3.997   3.219  16.799  0.00  0.00    +0.000 A 
ATOM     19  C   UNL     1       3.052   4.064  17.388  0.00  0.00    +0.000 A 
ATOM     20  C   UNL     1       3.404   5.316  17.912  0.00  0.00    +0.000 A 
ATOM     21  C   UNL     1       4.761   5.677  17.830  0.00  0.00    +0.000 A 
BRANCH  16  23
ATOM     22  C   UNL     1       7.823   5.201  18.291  0.00  0.00    +0.000 C 
ATOM     23  O   UNL     1       7.051   5.133  17.098  0.00  0.00    +0.000 OA
ENDBRANCH  16  23
ENDBRANCH   1  20
BRANCH  11  24
ATOM     24  C   UNL     1      -1.867  12.096  19.109  0.00  0.00    +0.000 C 
BRANCH  24  25
ATOM     25  C   UNL     1      -2.767  11.007  18.529  0.00  0.00    +0.000 C 
BRANCH  25  26
ATOM     26  C   UNL     1      -3.840  11.566  17.615  0.00  0.00    +0.000 C 
ATOM     27  O   UNL     1      -3.759  11.456  16.392  0.00  0.00    +0.000 OA
ATOM     28  N   UNL     1      -4.917  12.182  18.234  0.00  0.00    +0.000 N 
ATOM     29  C   UNL     1      -6.062  12.624  17.433  0.00  0.00    +0.000 C 
ATOM     30  C   UNL     1      -7.386  12.098  18.028  0.00  0.00    +0.000 C 
ATOM     31  N   UNL     1      -7.576  12.381  19.470  0.00  0.00    +0.000 NA
ATOM     32  C   UNL     1      -7.874  13.791  19.708  0.00  0.00    +0.000 C 
ATOM     33  C   UNL     1      -6.385  11.937  20.224  0.00  0.00    +0.000 C 
ATOM     34  C   UNL     1      -5.042  12.457  19.671  0.00  0.00    +0.000 C 
ENDBRANCH  25  26
ENDBRANCH  24  25
ENDBRANCH  11  24
TORSDOF 5
ENDMDL
MODEL 6
REMARK VINA RESULT:      -6.9      1.046      1.670
REMARK  Name = 
REMARK  7 active torsions:
REMARK  status: ('A' for Active; 'I' for Inactive)
REMARK    1  A    between atoms: C_1  and  O_2
REMARK    2  A    between atoms: O_2  and  C_3
REMARK    3  A    between atoms: C_7  and  N_8
REMARK    4  A    between atoms: C_18  and  C_19
REMARK    5  A    between atoms: C_19  and  C_20
REMARK    6  A    between atoms: C_20  and  C_21
REMARK    7  A    between atoms: N_26  and  C_27
REMARK                            x       y       z     vdW  Elec       q    Type
REMARK                         _______ _______ _______ _____ _____    ______ ____
ROOT
ATOM      1  N   UNL     1       2.366   6.474  18.363  0.00  0.00    +0.000 N 
ATOM      2  C   UNL     1       1.418   6.029  19.397  0.00  0.00    +0.000 C 
ATOM      3  C   UNL     1       1.554   6.899  20.665  0.00  0.00    +0.000 C 
ATOM      4  N   UNL     1       1.423   8.324  20.328  0.00  0.00    +0.000 N 
ATOM      5  C   UNL     1       0.683   9.226  21.069  0.00  0.00    +0.000 A 
ATOM      6  C   UNL     1       0.567   9.029  22.556  0.00  0.00    +0.000 A 
ATOM      7  C   UNL     1      -0.156   9.894  23.277  0.00  0.00    +0.000 A 
ATOM      8  C   UNL     1      -0.804  10.948  22.614  0.00  0.00    +0.000 A 
ATOM      9  N   UNL     1      -1.579  11.918  23.045  0.00  0.00    +0.000 NA
ATOM     10  N   UNL     1      -1.973  12.647  21.952  0.00  0.00    +0.000 NA
ATOM     11  C   UNL     1      -1.424  12.114  20.874  0.00  0.00    +0.000 A 
ATOM     12  N   UNL     1      -0.643  11.039  21.247  0.00  0.00    +0.000 N 
ATOM     13  N   UNL     1       0.109  10.227  20.445  0.00  0.00    +0.000 NA
ATOM     14  C   UNL     1       2.357   8.776  19.281  0.00  0.00    +0.000 C 
ATOM     15  C   UNL     1       2.258   7.903  18.011  0.00  0.00    +0.000 C 
ENDROOT
BRANCH   1  20
ATOM     16  C   UNL     1       4.119   3.368  17.307  0.00  0.00    +0.000 A 
ATOM     17  C   UNL     1       5.192   3.900  16.598  0.00  0.00    +0.000 A 
ATOM     18  C   UNL     1       5.319   5.277  16.458  0.00  0.00    +0.000 A 
ATOM     19  C   UNL     1       4.372   6.127  17.036  0.00  0.00    +0.000 A 
ATOM     20  C   UNL     1       3.281   5.632  17.765  0.00  0.00    +0.000 A 
ATOM     21  C   UNL     1       3.177   4.234  17.875  0.00  0.00    +0.000 A 
BRANCH  16  23
ATOM     22  C   UNL     1       3.533   1.439  18.567  0.00  0.00    +0.000 C 
ATOM     23  O   UNL     1       4.103   2.002  17.392  0.00  0.00    +0.000 OA
ENDBRANCH  16  23
ENDBRANCH   1  20
BRANCH  11  24
ATOM     24  C   UNL     1      -1.626  12.574  19.474  0.00  0.00    +0.000 C 
BRANCH  24  25
ATOM     25  C   UNL     1      -0.794  13.825  19.201  0.00  0.00    +0.000 C 
BRANCH  25  26
ATOM     26  C   UNL     1       0.625  13.498  18.778  0.00  0.00    +0.000 C 
ATOM     27  O   UNL     1       0.903  12.422  18.249  0.00  0.00    +0.000 OA
ATOM     28  N   UNL     1       1.577  14.481  19.001  0.00  0.00    +0.000 N 
ATOM     29  C   UNL     1       2.941  14.302  18.498  0.00  0.00    +0.000 C 
ATOM     30  C   UNL     1       3.397  15.538  17.693  0.00  0.00    +0.000 C 
ATOM     31  N   UNL     1       3.230  16.834  18.393  0.00  0.00    +0.000 NA
ATOM     32  C   UNL     1       4.214  16.999  19.461  0.00  0.00    +0.000 C 
ATOM     33  C   UNL     1       1.847  16.949  18.900  0.00  0.00    +0.000 C 
ATOM     34  C   UNL     1       1.360  15.740  19.725  0.00  0.00    +0.000 C 
ENDBRANCH  25  26
ENDBRANCH  24  25
ENDBRANCH  11  24
TORSDOF 5
ENDMDL
MODEL 7
REMARK VINA RESULT:      -6.9      1.666      2.329
REMARK  Name = 
REMARK  7 active torsions:
REMARK  status: ('A' for Active; 'I' for Inactive)
REMARK    1  A    between atoms: C_1  and  O_2
REMARK    2  A    between atoms: O_2  and  C_3
REMARK    3  A    between atoms: C_7  and  N_8
REMARK    4  A    between atoms: C_18  and  C_19
REMARK    5  A    between atoms: C_19  and  C_20
REMARK    6  A    between atoms: C_20  and  C_21
REMARK    7  A    between atoms: N_26  and  C_27
REMARK                            x       y       z     vdW  Elec       q    Type
REMARK                         _______ _______ _______ _____ _____    ______ ____
ROOT
ATOM      1  N   UNL     1       2.345   6.713  18.404  0.00  0.00    +0.000 N 
ATOM      2  C   UNL     1       1.513   6.221  19.514  0.00  0.00    +0.000 C 
ATOM      3  C   UNL     1       1.624   7.163  20.732  0.00  0.00    +0.000 C 
ATOM      4  N   UNL     1       1.316   8.547  20.342  0.00  0.00    +0.000 N 
ATOM      5  C   UNL     1       0.524   9.399  21.087  0.00  0.00    +0.000 A 
ATOM      6  C   UNL     1       0.516   9.266  22.586  0.00  0.00    +0.000 A 
ATOM      7  C   UNL     1      -0.256  10.082  23.312  0.00  0.00    +0.000 A 
ATOM      8  C   UNL     1      -1.054  11.025  22.645  0.00  0.00    +0.000 A 
ATOM      9  N   UNL     1      -1.906  11.926  23.081  0.00  0.00    +0.000 NA
ATOM     10  N   UNL     1      -2.441  12.553  21.983  0.00  0.00    +0.000 NA
ATOM     11  C   UNL     1      -1.898  12.029  20.898  0.00  0.00    +0.000 A 
ATOM     12  N   UNL     1      -0.983  11.065  21.269  0.00  0.00    +0.000 N 
ATOM     13  N   UNL     1      -0.192  10.300  20.457  0.00  0.00    +0.000 NA
ATOM     14  C   UNL     1       2.134   9.045  19.220  0.00  0.00    +0.000 C 
ATOM     15  C   UNL     1       2.059   8.103  17.998  0.00  0.00    +0.000 C 
ENDROOT
BRANCH   1  20
ATOM     16  C   UNL     1       4.240   3.749  17.196  0.00  0.00    +0.000 A 
ATOM     17  C   UNL     1       5.329   4.365  16.584  0.00  0.00    +0.000 A 
ATOM     18  C   UNL     1       5.420   5.751  16.558  0.00  0.00    +0.000 A 
ATOM     19  C   UNL     1       4.421   6.527  17.153  0.00  0.00    +0.000 A 
ATOM     20  C   UNL     1       3.313   5.947  17.787  0.00  0.00    +0.000 A 
ATOM     21  C   UNL     1       3.247   4.542  17.784  0.00  0.00    +0.000 A 
BRANCH  16  23
ATOM     22  C   UNL     1       3.543   1.711  18.202  0.00  0.00    +0.000 C 
ATOM     23  O   UNL     1       4.263   2.381  17.173  0.00  0.00    +0.000 OA
ENDBRANCH  16  23
ENDBRANCH   1  20
BRANCH  11  24
ATOM     24  C   UNL     1      -2.229  12.393  19.495  0.00  0.00    +0.000 C 
BRANCH  24  25
ATOM     25  C   UNL     1      -1.034  13.067  18.825  0.00  0.00    +0.000 C 
BRANCH  25  26
ATOM     26  C   UNL     1      -0.617  14.344  19.528  0.00  0.00    +0.000 C 
ATOM     27  O   UNL     1      -1.430  15.236  19.769  0.00  0.00    +0.000 OA
ATOM     28  N   UNL     1       0.716  14.437  19.898  0.00  0.00    +0.000 N 
ATOM     29  C   UNL     1       1.171  15.574  20.703  0.00  0.00    +0.000 C 
ATOM     30  C   UNL     1       1.964  15.092  21.936  0.00  0.00    +0.000 C 
ATOM     31  N   UNL     1       3.067  14.148  21.637  0.00  0.00    +0.000 NA
ATOM     32  C   UNL     1       4.199  14.824  21.006  0.00  0.00    +0.000 C 
ATOM     33  C   UNL     1       2.558  13.038  20.805  0.00  0.00    +0.000 C 
ATOM     34  C   UNL     1       1.774  13.479  19.553  0.00  0.00    +0.000 C 
ENDBRANCH  25  26
ENDBRANCH  24  25
ENDBRANCH  11  24
TORSDOF 5
ENDMDL
MODEL 8
REMARK VINA RESULT:      -6.9      5.112      9.049
REMARK  Name = 
REMARK  7 active torsions:
REMARK  status: ('A' for Active; 'I' for Inactive)
REMARK    1  A    between atoms: C_1  and  O_2
REMARK    2  A    between atoms: O_2  and  C_3
REMARK    3  A    between atoms: C_7  and  N_8
REMARK    4  A    between atoms: C_18  and  C_19
REMARK    5  A    between atoms: C_19  and  C_20
REMARK    6  A    between atoms: C_20  and  C_21
REMARK    7  A    between atoms: N_26  and  C_27
REMARK                            x       y       z     vdW  Elec       q    Type
REMARK                         _______ _______ _______ _____ _____    ______ ____
ROOT
ATOM      1  N   UNL     1       1.390  12.635  19.299  0.00  0.00    +0.000 N 
ATOM      2  C   UNL     1       2.346  12.810  18.194  0.00  0.00    +0.000 C 
ATOM      3  C   UNL     1       2.917  14.244  18.195  0.00  0.00    +0.000 C 
ATOM      4  N   UNL     1       3.482  14.572  19.512  0.00  0.00    +0.000 N 
ATOM      5  C   UNL     1       4.687  15.223  19.694  0.00  0.00    +0.000 A 
ATOM      6  C   UNL     1       5.134  16.230  18.669  0.00  0.00    +0.000 A 
ATOM      7  C   UNL     1       6.304  16.857  18.834  0.00  0.00    +0.000 A 
ATOM      8  C   UNL     1       7.090  16.535  19.952  0.00  0.00    +0.000 A 
ATOM      9  N   UNL     1       8.264  16.964  20.358  0.00  0.00    +0.000 NA
ATOM     10  N   UNL     1       8.581  16.275  21.502  0.00  0.00    +0.000 NA
ATOM     11  C   UNL     1       7.589  15.445  21.778  0.00  0.00    +0.000 A 
ATOM     12  N   UNL     1       6.597  15.593  20.830  0.00  0.00    +0.000 N 
ATOM     13  N   UNL     1       5.399  14.940  20.759  0.00  0.00    +0.000 NA
ATOM     14  C   UNL     1       2.537  14.385  20.629  0.00  0.00    +0.000 C 
ATOM     15  C   UNL     1       1.932  12.965  20.632  0.00  0.00    +0.000 C 
ENDROOT
BRANCH   1  20
ATOM     16  C   UNL     1      -1.520  10.694  18.033  0.00  0.00    +0.000 A 
ATOM     17  C   UNL     1      -2.569  11.342  18.678  0.00  0.00    +0.000 A 
ATOM     18  C   UNL     1      -2.308  12.401  19.540  0.00  0.00    +0.000 A 
ATOM     19  C   UNL     1      -0.991  12.819  19.752  0.00  0.00    +0.000 A 
ATOM     20  C   UNL     1       0.093  12.199  19.115  0.00  0.00    +0.000 A 
ATOM     21  C   UNL     1      -0.207  11.123  18.260  0.00  0.00    +0.000 A 
BRANCH  16  23
ATOM     22  C   UNL     1      -2.827   9.998  16.173  0.00  0.00    +0.000 C 
ATOM     23  O   UNL     1      -1.896   9.676  17.199  0.00  0.00    +0.000 OA
ENDBRANCH  16  23
ENDBRANCH   1  20
BRANCH  11  24
ATOM     24  C   UNL     1       7.547  14.483  22.911  0.00  0.00    +0.000 C 
BRANCH  24  25
ATOM     25  C   UNL     1       8.878  13.743  23.030  0.00  0.00    +0.000 C 
BRANCH  25  26
ATOM     26  C   UNL     1       8.862  12.403  22.322  0.00  0.00    +0.000 C 
ATOM     27  O   UNL     1       8.187  11.464  22.744  0.00  0.00    +0.000 OA
ATOM     28  N   UNL     1       9.627  12.305  21.170  0.00  0.00    +0.000 N 
ATOM     29  C   UNL     1       9.559  11.093  20.350  0.00  0.00    +0.000 C 
ATOM     30  C   UNL     1       9.295  11.443  18.870  0.00  0.00    +0.000 C 
ATOM     31  N   UNL     1      10.219  12.449  18.294  0.00  0.00    +0.000 NA
ATOM     32  C   UNL     1      11.549  11.890  18.065  0.00  0.00    +0.000 C 
ATOM     33  C   UNL     1      10.267  13.637  19.172  0.00  0.00    +0.000 C 
ATOM     34  C   UNL     1      10.546  13.330  20.657  0.00  0.00    +0.000 C 
ENDBRANCH  25  26
ENDBRANCH  24  25
ENDBRANCH  11  24
TORSDOF 5
ENDMDL
MODEL 9
REMARK VINA RESULT:      -6.8      2.132      3.380
REMARK  Name = 
REMARK  7 active torsions:
REMARK  status: ('A' for Active; 'I' for Inactive)
REMARK    1  A    between atoms: C_1  and  O_2
REMARK    2  A    between atoms: O_2  and  C_3
REMARK    3  A    between atoms: C_7  and  N_8
REMARK    4  A    between atoms: C_18  and  C_19
REMARK    5  A    between atoms: C_19  and  C_20
REMARK    6  A    between atoms: C_20  and  C_21
REMARK    7  A    between atoms: N_26  and  C_27
REMARK                            x       y       z     vdW  Elec       q    Type
REMARK                         _______ _______ _______ _____ _____    ______ ____
ROOT
ATOM      1  N   UNL     1       1.934   8.529  18.822  0.00  0.00    +0.000 N 
ATOM      2  C   UNL     1       1.475   9.526  17.842  0.00  0.00    +0.000 C 
ATOM      3  C   UNL     1      -0.047   9.748  17.968  0.00  0.00    +0.000 C 
ATOM      4  N   UNL     1      -0.405  10.087  19.354  0.00  0.00    +0.000 N 
ATOM      5  C   UNL     1      -1.296  11.085  19.698  0.00  0.00    +0.000 A 
ATOM      6  C   UNL     1      -2.444  11.389  18.774  0.00  0.00    +0.000 A 
ATOM      7  C   UNL     1      -3.305  12.360  19.097  0.00  0.00    +0.000 A 
ATOM      8  C   UNL     1      -3.094  13.082  20.282  0.00  0.00    +0.000 A 
ATOM      9  N   UNL     1      -3.746  14.079  20.837  0.00  0.00    +0.000 NA
ATOM     10  N   UNL     1      -3.071  14.429  21.980  0.00  0.00    +0.000 NA
ATOM     11  C   UNL     1      -2.024  13.632  22.106  0.00  0.00    +0.000 A 
ATOM     12  N   UNL     1      -2.008  12.734  21.058  0.00  0.00    +0.000 N 
ATOM     13  N   UNL     1      -1.109  11.731  20.824  0.00  0.00    +0.000 NA
ATOM     14  C   UNL     1       0.064   9.102  20.346  0.00  0.00    +0.000 C 
ATOM     15  C   UNL     1       1.581   8.843  20.221  0.00  0.00    +0.000 C 
ENDROOT
BRANCH   1  20
ATOM     16  C   UNL     1       4.455   6.305  17.231  0.00  0.00    +0.000 A 
ATOM     17  C   UNL     1       4.041   5.061  17.699  0.00  0.00    +0.000 A 
ATOM     18  C   UNL     1       2.947   4.967  18.551  0.00  0.00    +0.000 A 
ATOM     19  C   UNL     1       2.257   6.123  18.930  0.00  0.00    +0.000 A 
ATOM     20  C   UNL     1       2.636   7.393  18.474  0.00  0.00    +0.000 A 
ATOM     21  C   UNL     1       3.755   7.452  17.624  0.00  0.00    +0.000 A 
BRANCH  16  23
ATOM     22  C   UNL     1       6.793   6.632  16.948  0.00  0.00    +0.000 C 
ATOM     23  O   UNL     1       5.534   6.276  16.389  0.00  0.00    +0.000 OA
ENDBRANCH  16  23
ENDBRANCH   1  20
BRANCH  11  24
ATOM     24  C   UNL     1      -1.003  13.698  23.185  0.00  0.00    +0.000 C 
BRANCH  24  25
ATOM     25  C   UNL     1      -0.387  15.094  23.248  0.00  0.00    +0.000 C 
BRANCH  25  26
ATOM     26  C   UNL     1       0.695  15.299  22.205  0.00  0.00    +0.000 C 
ATOM     27  O   UNL     1       1.773  14.710  22.277  0.00  0.00    +0.000 OA
ATOM     28  N   UNL     1       0.392  16.165  21.165  0.00  0.00    +0.000 N 
ATOM     29  C   UNL     1       1.324  16.312  20.045  0.00  0.00    +0.000 C 
ATOM     30  C   UNL     1       0.596  16.133  18.695  0.00  0.00    +0.000 C 
ATOM     31  N   UNL     1      -0.613  16.973  18.524  0.00  0.00    +0.000 NA
ATOM     32  C   UNL     1      -0.267  18.376  18.304  0.00  0.00    +0.000 C 
ATOM     33  C   UNL     1      -1.504  16.804  19.692  0.00  0.00    +0.000 C 
ATOM     34  C   UNL     1      -0.816  16.993  21.059  0.00  0.00    +0.000 C 
ENDBRANCH  25  26
ENDBRANCH  24  25
ENDBRANCH  11  24
TORSDOF 5
ENDMDL
