MODEL 1
REMARK VINA RESULT:      -6.4      0.000      0.000
REMARK  Name = 
REMARK  17 active torsions:
REMARK  status: ('A' for Active; 'I' for Inactive)
REMARK    1  A    between atoms: C_1  and  C_2
REMARK    2  A    between atoms: C_2  and  C_3
REMARK    3  A    between atoms: C_3  and  C_4
REMARK    4  A    between atoms: C_4  and  C_5
REMARK    5  A    between atoms: C_5  and  C_6
REMARK    6  A    between atoms: C_5  and  N_10
REMARK    7  A    between atoms: C_6  and  C_7
REMARK    8  A    between atoms: C_7  and  C_8
REMARK    9  A    between atoms: C_8  and  C_9
REMARK   10  A    between atoms: N_10  and  N_11
REMARK   11  A    between atoms: C_12  and  C_14
REMARK   12  A    between atoms: C_16  and  O_17
REMARK   13  A    between atoms: O_17  and  C_18
REMARK   14  A    between atoms: C_19  and  O_20
REMARK   15  A    between atoms: O_20  and  C_21
REMARK   16  A    between atoms: C_22  and  O_23
REMARK   17  A    between atoms: O_23  and  C_24
REMARK                            x       y       z     vdW  Elec       q    Type
REMARK                         _______ _______ _______ _____ _____    ______ ____
ROOT
ATOM      1  N   UNL     1       1.476   8.924  19.485  0.00  0.00    +0.000 N 
ATOM      2  C   UNL     1       2.151   8.290  18.451  0.00  0.00    +0.000 C 
ATOM      3  O   UNL     1       2.276   8.772  17.328  0.00  0.00    +0.000 OA
ATOM      4  H   UNL     1       1.187   8.412  20.314  0.00  0.00    +0.000 HD
ENDROOT
BRANCH   2   5
ATOM      5  C   UNL     1       2.725   6.958  18.765  0.00  0.00    +0.000 A 
ATOM      6  C   UNL     1       3.749   6.477  17.953  0.00  0.00    +0.000 A 
ATOM      7  C   UNL     1       4.334   5.239  18.224  0.00  0.00    +0.000 A 
ATOM      8  C   UNL     1       3.868   4.457  19.308  0.00  0.00    +0.000 A 
ATOM      9  C   UNL     1       2.829   4.946  20.128  0.00  0.00    +0.000 A 
ATOM     10  C   UNL     1       2.287   6.209  19.862  0.00  0.00    +0.000 A 
BRANCH   7  11
ATOM     11  O   UNL     1       5.353   4.715  17.463  0.00  0.00    +0.000 OA
ATOM     12  C   UNL     1       5.034   4.417  16.106  0.00  0.00    +0.000 C 
ENDBRANCH   7  11
BRANCH   8  13
ATOM     13  O   UNL     1       4.450   3.214  19.423  0.00  0.00    +0.000 OA
ATOM     14  C   UNL     1       3.777   2.125  18.806  0.00  0.00    +0.000 C 
ENDBRANCH   8  13
BRANCH   9  15
ATOM     15  O   UNL     1       2.380   4.149  21.148  0.00  0.00    +0.000 OA
ATOM     16  C   UNL     1       1.197   3.389  20.947  0.00  0.00    +0.000 C 
ENDBRANCH   9  15
ENDBRANCH   2   5
BRANCH   1  17
ATOM     17  N   UNL     1       0.890  10.178  19.238  0.00  0.00    +0.000 NA
ATOM     18  H   UNL     1       1.298  10.844  19.910  0.00  0.00    +0.000 HD
BRANCH  17  19
ATOM     19  C   UNL     1      -0.578  10.152  19.414  0.00  0.00    +0.000 C 
BRANCH  19  20
ATOM     20  C   UNL     1      -1.033  11.311  20.337  0.00  0.00    +0.000 C 
BRANCH  20  21
ATOM     21  C   UNL     1      -0.276  11.488  21.658  0.00  0.00    +0.000 C 
BRANCH  21  23
ATOM     22  C   UNL     1      -0.081   9.510  23.188  0.00  0.00    +0.000 C 
ATOM     23  C   UNL     1      -0.893  10.753  22.847  0.00  0.00    +0.000 C 
ENDBRANCH  21  23
ENDBRANCH  20  21
ENDBRANCH  19  20
BRANCH  19  24
ATOM     24  C   UNL     1      -1.224  10.231  18.013  0.00  0.00    +0.000 C 
BRANCH  24  25
ATOM     25  C   UNL     1      -2.529  11.043  17.931  0.00  0.00    +0.000 C 
BRANCH  25  26
ATOM     26  C   UNL     1      -3.536  10.501  16.916  0.00  0.00    +0.000 C 
ATOM     27  C   UNL     1      -2.829   9.942  15.690  0.00  0.00    +0.000 C 
ENDBRANCH  25  26
ENDBRANCH  24  25
ENDBRANCH  19  24
ENDBRANCH  17  19
ENDBRANCH   1  17
TORSDOF 12
ENDMDL
MODEL 2
REMARK VINA RESULT:      -6.4      2.529      8.173
REMARK  Name = 
REMARK  17 active torsions:
REMARK  status: ('A' for Active; 'I' for Inactive)
REMARK    1  A    between atoms: C_1  and  C_2
REMARK    2  A    between atoms: C_2  and  C_3
REMARK    3  A    between atoms: C_3  and  C_4
REMARK    4  A    between atoms: C_4  and  C_5
REMARK    5  A    between atoms: C_5  and  C_6
REMARK    6  A    between atoms: C_5  and  N_10
REMARK    7  A    between atoms: C_6  and  C_7
REMARK    8  A    between atoms: C_7  and  C_8
REMARK    9  A    between atoms: C_8  and  C_9
REMARK   10  A    between atoms: N_10  and  N_11
REMARK   11  A    between atoms: C_12  and  C_14
REMARK   12  A    between atoms: C_16  and  O_17
REMARK   13  A    between atoms: O_17  and  C_18
REMARK   14  A    between atoms: C_19  and  O_20
REMARK   15  A    between atoms: O_20  and  C_21
REMARK   16  A    between atoms: C_22  and  O_23
REMARK   17  A    between atoms: O_23  and  C_24
REMARK                            x       y       z     vdW  Elec       q    Type
REMARK                         _______ _______ _______ _____ _____    ______ ____
ROOT
ATOM      1  N   UNL     1       2.110   7.798  19.164  0.00  0.00    +0.000 N 
ATOM      2  C   UNL     1       1.708   8.952  18.506  0.00  0.00    +0.000 C 
ATOM      3  O   UNL     1       2.102   9.265  17.386  0.00  0.00    +0.000 OA
ATOM      4  H   UNL     1       1.960   7.685  20.164  0.00  0.00    +0.000 HD
ENDROOT
BRANCH   2   5
ATOM      5  C   UNL     1       0.759   9.825  19.240  0.00  0.00    +0.000 A 
ATOM      6  C   UNL     1       0.853   9.876  20.629  0.00  0.00    +0.000 A 
ATOM      7  C   UNL     1      -0.005  10.700  21.358  0.00  0.00    +0.000 A 
ATOM      8  C   UNL     1      -0.991  11.466  20.691  0.00  0.00    +0.000 A 
ATOM      9  C   UNL     1      -1.085  11.411  19.284  0.00  0.00    +0.000 A 
ATOM     10  C   UNL     1      -0.186  10.609  18.570  0.00  0.00    +0.000 A 
BRANCH   7  11
ATOM     11  O   UNL     1       0.045  10.799  22.730  0.00  0.00    +0.000 OA
ATOM     12  C   UNL     1      -0.187   9.593  23.454  0.00  0.00    +0.000 C 
ENDBRANCH   7  11
BRANCH   8  13
ATOM     13  O   UNL     1      -1.842  12.167  21.515  0.00  0.00    +0.000 OA
ATOM     14  C   UNL     1      -1.588  13.556  21.677  0.00  0.00    +0.000 C 
ENDBRANCH   8  13
BRANCH   9  15
ATOM     15  O   UNL     1      -2.072  12.138  18.673  0.00  0.00    +0.000 OA
ATOM     16  C   UNL     1      -3.231  11.459  18.212  0.00  0.00    +0.000 C 
ENDBRANCH   9  15
ENDBRANCH   2   5
BRANCH   1  17
ATOM     17  N   UNL     1       3.028   6.944  18.528  0.00  0.00    +0.000 NA
ATOM     18  H   UNL     1       3.092   7.243  17.544  0.00  0.00    +0.000 HD
BRANCH  17  19
ATOM     19  C   UNL     1       2.603   5.530  18.577  0.00  0.00    +0.000 C 
BRANCH  19  20
ATOM     20  C   UNL     1       3.618   4.632  17.825  0.00  0.00    +0.000 C 
BRANCH  20  21
ATOM     21  C   UNL     1       4.298   3.522  18.633  0.00  0.00    +0.000 C 
BRANCH  21  23
ATOM     22  C   UNL     1       2.453   2.181  17.589  0.00  0.00    +0.000 C 
ATOM     23  C   UNL     1       3.772   2.116  18.348  0.00  0.00    +0.000 C 
ENDBRANCH  21  23
ENDBRANCH  20  21
ENDBRANCH  19  20
BRANCH  19  24
ATOM     24  C   UNL     1       2.458   5.131  20.063  0.00  0.00    +0.000 C 
BRANCH  24  25
ATOM     25  C   UNL     1       1.093   4.542  20.460  0.00  0.00    +0.000 C 
BRANCH  25  26
ATOM     26  C   UNL     1       1.146   3.070  20.874  0.00  0.00    +0.000 C 
ATOM     27  C   UNL     1       2.395   2.778  21.693  0.00  0.00    +0.000 C 
ENDBRANCH  25  26
ENDBRANCH  24  25
ENDBRANCH  19  24
ENDBRANCH  17  19
ENDBRANCH   1  17
TORSDOF 12
ENDMDL
MODEL 3
REMARK VINA RESULT:      -6.3      2.422      7.912
REMARK  Name = 
REMARK  17 active torsions:
REMARK  status: ('A' for Active; 'I' for Inactive)
REMARK    1  A    between atoms: C_1  and  C_2
REMARK    2  A    between atoms: C_2  and  C_3
REMARK    3  A    between atoms: C_3  and  C_4
REMARK    4  A    between atoms: C_4  and  C_5
REMARK    5  A    between atoms: C_5  and  C_6
REMARK    6  A    between atoms: C_5  and  N_10
REMARK    7  A    between atoms: C_6  and  C_7
REMARK    8  A    between atoms: C_7  and  C_8
REMARK    9  A    between atoms: C_8  and  C_9
REMARK   10  A    between atoms: N_10  and  N_11
REMARK   11  A    between atoms: C_12  and  C_14
REMARK   12  A    between atoms: C_16  and  O_17
REMARK   13  A    between atoms: O_17  and  C_18
REMARK   14  A    between atoms: C_19  and  O_20
REMARK   15  A    between atoms: O_20  and  C_21
REMARK   16  A    between atoms: C_22  and  O_23
REMARK   17  A    between atoms: O_23  and  C_24
REMARK                            x       y       z     vdW  Elec       q    Type
REMARK                         _______ _______ _______ _____ _____    ______ ____
ROOT
ATOM      1  N   UNL     1       2.110   7.543  19.224  0.00  0.00    +0.000 N 
ATOM      2  C   UNL     1       1.804   8.675  18.481  0.00  0.00    +0.000 C 
ATOM      3  O   UNL     1       2.277   8.905  17.371  0.00  0.00    +0.000 OA
ATOM      4  H   UNL     1       1.896   7.495  20.217  0.00  0.00    +0.000 HD
ENDROOT
BRANCH   2   5
ATOM      5  C   UNL     1       0.858   9.632  19.107  0.00  0.00    +0.000 A 
ATOM      6  C   UNL     1       0.887   9.772  20.492  0.00  0.00    +0.000 A 
ATOM      7  C   UNL     1       0.031  10.676  21.122  0.00  0.00    +0.000 A 
ATOM      8  C   UNL     1      -0.890  11.432  20.358  0.00  0.00    +0.000 A 
ATOM      9  C   UNL     1      -0.919  11.286  18.954  0.00  0.00    +0.000 A 
ATOM     10  C   UNL     1      -0.021  10.404  18.341  0.00  0.00    +0.000 A 
BRANCH   7  11
ATOM     11  O   UNL     1       0.019  10.865  22.485  0.00  0.00    +0.000 OA
ATOM     12  C   UNL     1      -0.383   9.746  23.270  0.00  0.00    +0.000 C 
ENDBRANCH   7  11
BRANCH   8  13
ATOM     13  O   UNL     1      -1.750  12.219  21.090  0.00  0.00    +0.000 OA
ATOM     14  C   UNL     1      -1.447  13.606  21.172  0.00  0.00    +0.000 C 
ENDBRANCH   8  13
BRANCH   9  15
ATOM     15  O   UNL     1      -1.845  12.007  18.248  0.00  0.00    +0.000 OA
ATOM     16  C   UNL     1      -2.882  11.309  17.574  0.00  0.00    +0.000 C 
ENDBRANCH   9  15
ENDBRANCH   2   5
BRANCH   1  17
ATOM     17  N   UNL     1       3.020   6.614  18.692  0.00  0.00    +0.000 NA
ATOM     18  H   UNL     1       2.530   6.097  17.948  0.00  0.00    +0.000 HD
BRANCH  17  19
ATOM     19  C   UNL     1       3.499   5.655  19.711  0.00  0.00    +0.000 C 
BRANCH  19  20
ATOM     20  C   UNL     1       2.312   5.126  20.556  0.00  0.00    +0.000 C 
BRANCH  20  21
ATOM     21  C   UNL     1       2.505   3.777  21.258  0.00  0.00    +0.000 C 
BRANCH  21  23
ATOM     22  C   UNL     1       0.537   3.063  19.877  0.00  0.00    +0.000 C 
ATOM     23  C   UNL     1       1.302   2.840  21.176  0.00  0.00    +0.000 C 
ENDBRANCH  21  23
ENDBRANCH  20  21
ENDBRANCH  19  20
BRANCH  19  24
ATOM     24  C   UNL     1       4.247   4.520  18.977  0.00  0.00    +0.000 C 
BRANCH  24  25
ATOM     25  C   UNL     1       3.863   4.320  17.500  0.00  0.00    +0.000 C 
BRANCH  25  26
ATOM     26  C   UNL     1       2.946   3.122  17.252  0.00  0.00    +0.000 C 
ATOM     27  C   UNL     1       3.430   1.896  18.013  0.00  0.00    +0.000 C 
ENDBRANCH  25  26
ENDBRANCH  24  25
ENDBRANCH  19  24
ENDBRANCH  17  19
ENDBRANCH   1  17
TORSDOF 12
ENDMDL
MODEL 4
REMARK VINA RESULT:      -6.2      0.610      3.188
REMARK  Name = 
REMARK  17 active torsions:
REMARK  status: ('A' for Active; 'I' for Inactive)
REMARK    1  A    between atoms: C_1  and  C_2
REMARK    2  A    between atoms: C_2  and  C_3
REMARK    3  A    between atoms: C_3  and  C_4
REMARK    4  A    between atoms: C_4  and  C_5
REMARK    5  A    between atoms: C_5  and  C_6
REMARK    6  A    between atoms: C_5  and  N_10
REMARK    7  A    between atoms: C_6  and  C_7
REMARK    8  A    between atoms: C_7  and  C_8
REMARK    9  A    between atoms: C_8  and  C_9
REMARK   10  A    between atoms: N_10  and  N_11
REMARK   11  A    between atoms: C_12  and  C_14
REMARK   12  A    between atoms: C_16  and  O_17
REMARK   13  A    between atoms: O_17  and  C_18
REMARK   14  A    between atoms: C_19  and  O_20
REMARK   15  A    between atoms: O_20  and  C_21
REMARK   16  A    between atoms: C_22  and  O_23
REMARK   17  A    between atoms: O_23  and  C_24
REMARK                            x       y       z     vdW  Elec       q    Type
REMARK                         _______ _______ _______ _____ _____    ______ ____
ROOT
ATOM      1  N   UNL     1       1.616   8.838  19.124  0.00  0.00    +0.000 N 
ATOM      2  C   UNL     1       2.408   8.180  18.194  0.00  0.00    +0.000 C 
ATOM      3  O   UNL     1       2.682   8.642  17.089  0.00  0.00    +0.000 OA
ATOM      4  H   UNL     1       1.216   8.342  19.916  0.00  0.00    +0.000 HD
ENDROOT
BRANCH   2   5
ATOM      5  C   UNL     1       2.920   6.848  18.598  0.00  0.00    +0.000 A 
ATOM      6  C   UNL     1       3.943   6.280  17.842  0.00  0.00    +0.000 A 
ATOM      7  C   UNL     1       4.471   5.039  18.198  0.00  0.00    +0.000 A 
ATOM      8  C   UNL     1       3.949   4.339  19.312  0.00  0.00    +0.000 A 
ATOM      9  C   UNL     1       2.911   4.915  20.076  0.00  0.00    +0.000 A 
ATOM     10  C   UNL     1       2.427   6.181  19.724  0.00  0.00    +0.000 A 
BRANCH   7  11
ATOM     11  O   UNL     1       5.486   4.431  17.495  0.00  0.00    +0.000 OA
ATOM     12  C   UNL     1       5.203   4.109  16.136  0.00  0.00    +0.000 C 
ENDBRANCH   7  11
BRANCH   8  13
ATOM     13  O   UNL     1       4.477   3.084  19.514  0.00  0.00    +0.000 OA
ATOM     14  C   UNL     1       3.788   1.990  18.922  0.00  0.00    +0.000 C 
ENDBRANCH   8  13
BRANCH   9  15
ATOM     15  O   UNL     1       2.406   4.197  21.127  0.00  0.00    +0.000 OA
ATOM     16  C   UNL     1       1.219   3.443  20.929  0.00  0.00    +0.000 C 
ENDBRANCH   9  15
ENDBRANCH   2   5
BRANCH   1  17
ATOM     17  N   UNL     1       1.081  10.094  18.786  0.00  0.00    +0.000 NA
ATOM     18  H   UNL     1       1.782  10.804  19.044  0.00  0.00    +0.000 HD
BRANCH  17  19
ATOM     19  C   UNL     1      -0.179  10.377  19.504  0.00  0.00    +0.000 C 
BRANCH  19  20
ATOM     20  C   UNL     1      -1.399  10.098  18.589  0.00  0.00    +0.000 C 
BRANCH  20  21
ATOM     21  C   UNL     1      -2.408  11.237  18.410  0.00  0.00    +0.000 C 
BRANCH  21  23
ATOM     22  C   UNL     1      -2.729  10.027  16.236  0.00  0.00    +0.000 C 
ATOM     23  C   UNL     1      -3.114  11.254  17.055  0.00  0.00    +0.000 C 
ENDBRANCH  21  23
ENDBRANCH  20  21
ENDBRANCH  19  20
BRANCH  19  24
ATOM     24  C   UNL     1      -0.198   9.511  20.784  0.00  0.00    +0.000 C 
BRANCH  24  25
ATOM     25  C   UNL     1       0.181  10.243  22.083  0.00  0.00    +0.000 C 
BRANCH  25  26
ATOM     26  C   UNL     1      -0.950  10.314  23.111  0.00  0.00    +0.000 C 
ATOM     27  C   UNL     1      -1.649  11.664  23.060  0.00  0.00    +0.000 C 
ENDBRANCH  25  26
ENDBRANCH  24  25
ENDBRANCH  19  24
ENDBRANCH  17  19
ENDBRANCH   1  17
TORSDOF 12
ENDMDL
MODEL 5
REMARK VINA RESULT:      -6.2      1.326      3.084
REMARK  Name = 
REMARK  17 active torsions:
REMARK  status: ('A' for Active; 'I' for Inactive)
REMARK    1  A    between atoms: C_1  and  C_2
REMARK    2  A    between atoms: C_2  and  C_3
REMARK    3  A    between atoms: C_3  and  C_4
REMARK    4  A    between atoms: C_4  and  C_5
REMARK    5  A    between atoms: C_5  and  C_6
REMARK    6  A    between atoms: C_5  and  N_10
REMARK    7  A    between atoms: C_6  and  C_7
REMARK    8  A    between atoms: C_7  and  C_8
REMARK    9  A    between atoms: C_8  and  C_9
REMARK   10  A    between atoms: N_10  and  N_11
REMARK   11  A    between atoms: C_12  and  C_14
REMARK   12  A    between atoms: C_16  and  O_17
REMARK   13  A    between atoms: O_17  and  C_18
REMARK   14  A    between atoms: C_19  and  O_20
REMARK   15  A    between atoms: O_20  and  C_21
REMARK   16  A    between atoms: C_22  and  O_23
REMARK   17  A    between atoms: O_23  and  C_24
REMARK                            x       y       z     vdW  Elec       q    Type
REMARK                         _______ _______ _______ _____ _____    ______ ____
ROOT
ATOM      1  N   UNL     1       1.443   8.966  19.299  0.00  0.00    +0.000 N 
ATOM      2  C   UNL     1       2.206   8.402  18.286  0.00  0.00    +0.000 C 
ATOM      3  O   UNL     1       2.394   8.942  17.199  0.00  0.00    +0.000 OA
ATOM      4  H   UNL     1       1.113   8.405  20.080  0.00  0.00    +0.000 HD
ENDROOT
BRANCH   2   5
ATOM      5  C   UNL     1       2.798   7.073  18.576  0.00  0.00    +0.000 A 
ATOM      6  C   UNL     1       2.319   6.368  19.678  0.00  0.00    +0.000 A 
ATOM      7  C   UNL     1       2.831   5.105  19.977  0.00  0.00    +0.000 A 
ATOM      8  C   UNL     1       3.858   4.548  19.178  0.00  0.00    +0.000 A 
ATOM      9  C   UNL     1       4.343   5.265  18.063  0.00  0.00    +0.000 A 
ATOM     10  C   UNL     1       3.785   6.513  17.758  0.00  0.00    +0.000 A 
BRANCH   7  11
ATOM     11  O   UNL     1       2.393   4.357  21.045  0.00  0.00    +0.000 OA
ATOM     12  C   UNL     1       1.177   3.638  20.852  0.00  0.00    +0.000 C 
ENDBRANCH   7  11
BRANCH   8  13
ATOM     13  O   UNL     1       4.354   3.342  19.620  0.00  0.00    +0.000 OA
ATOM     14  C   UNL     1       3.880   2.170  18.969  0.00  0.00    +0.000 C 
ENDBRANCH   8  13
BRANCH   9  15
ATOM     15  O   UNL     1       5.361   4.713  17.331  0.00  0.00    +0.000 OA
ATOM     16  C   UNL     1       6.698   5.078  17.640  0.00  0.00    +0.000 C 
ENDBRANCH   9  15
ENDBRANCH   2   5
BRANCH   1  17
ATOM     17  N   UNL     1       0.836  10.213  19.071  0.00  0.00    +0.000 NA
ATOM     18  H   UNL     1       1.115  10.835  19.844  0.00  0.00    +0.000 HD
BRANCH  17  19
ATOM     19  C   UNL     1      -0.638  10.119  19.035  0.00  0.00    +0.000 C 
BRANCH  19  20
ATOM     20  C   UNL     1      -1.278  11.402  19.626  0.00  0.00    +0.000 C 
BRANCH  20  21
ATOM     21  C   UNL     1      -0.388  12.647  19.711  0.00  0.00    +0.000 C 
BRANCH  21  23
ATOM     22  C   UNL     1      -0.113  14.978  18.827  0.00  0.00    +0.000 C 
ATOM     23  C   UNL     1      -0.405  13.527  18.463  0.00  0.00    +0.000 C 
ENDBRANCH  21  23
ENDBRANCH  20  21
ENDBRANCH  19  20
BRANCH  19  24
ATOM     24  C   UNL     1      -1.062   9.876  17.570  0.00  0.00    +0.000 C 
BRANCH  24  25
ATOM     25  C   UNL     1      -2.549  10.121  17.260  0.00  0.00    +0.000 C 
BRANCH  25  26
ATOM     26  C   UNL     1      -2.793  10.973  16.014  0.00  0.00    +0.000 C 
ATOM     27  C   UNL     1      -2.987  10.099  14.783  0.00  0.00    +0.000 C 
ENDBRANCH  25  26
ENDBRANCH  24  25
ENDBRANCH  19  24
ENDBRANCH  17  19
ENDBRANCH   1  17
TORSDOF 12
ENDMDL
MODEL 6
REMARK VINA RESULT:      -6.2      1.242      2.824
REMARK  Name = 
REMARK  17 active torsions:
REMARK  status: ('A' for Active; 'I' for Inactive)
REMARK    1  A    between atoms: C_1  and  C_2
REMARK    2  A    between atoms: C_2  and  C_3
REMARK    3  A    between atoms: C_3  and  C_4
REMARK    4  A    between atoms: C_4  and  C_5
REMARK    5  A    between atoms: C_5  and  C_6
REMARK    6  A    between atoms: C_5  and  N_10
REMARK    7  A    between atoms: C_6  and  C_7
REMARK    8  A    between atoms: C_7  and  C_8
REMARK    9  A    between atoms: C_8  and  C_9
REMARK   10  A    between atoms: N_10  and  N_11
REMARK   11  A    between atoms: C_12  and  C_14
REMARK   12  A    between atoms: C_16  and  O_17
REMARK   13  A    between atoms: O_17  and  C_18
REMARK   14  A    between atoms: C_19  and  O_20
REMARK   15  A    between atoms: O_20  and  C_21
REMARK   16  A    between atoms: C_22  and  O_23
REMARK   17  A    between atoms: O_23  and  C_24
REMARK                            x       y       z     vdW  Elec       q    Type
REMARK                         _______ _______ _______ _____ _____    ______ ____
ROOT
ATOM      1  N   UNL     1       0.439   9.063  17.942  0.00  0.00    +0.000 N 
ATOM      2  C   UNL     1       1.819   9.192  18.019  0.00  0.00    +0.000 C 
ATOM      3  O   UNL     1       2.408  10.260  17.875  0.00  0.00    +0.000 OA
ATOM      4  H   UNL     1       0.003   8.151  17.829  0.00  0.00    +0.000 HD
ENDROOT
BRANCH   2   5
ATOM      5  C   UNL     1       2.578   7.944  18.282  0.00  0.00    +0.000 A 
ATOM      6  C   UNL     1       2.178   7.146  19.352  0.00  0.00    +0.000 A 
ATOM      7  C   UNL     1       2.849   5.953  19.623  0.00  0.00    +0.000 A 
ATOM      8  C   UNL     1       3.955   5.564  18.830  0.00  0.00    +0.000 A 
ATOM      9  C   UNL     1       4.359   6.376  17.748  0.00  0.00    +0.000 A 
ATOM     10  C   UNL     1       3.644   7.547  17.469  0.00  0.00    +0.000 A 
BRANCH   7  11
ATOM     11  O   UNL     1       2.496   5.119  20.660  0.00  0.00    +0.000 OA
ATOM     12  C   UNL     1       1.238   4.460  20.535  0.00  0.00    +0.000 C 
ENDBRANCH   7  11
BRANCH   8  13
ATOM     13  O   UNL     1       4.599   4.421  19.247  0.00  0.00    +0.000 OA
ATOM     14  C   UNL     1       4.232   3.204  18.611  0.00  0.00    +0.000 C 
ENDBRANCH   8  13
BRANCH   9  15
ATOM     15  O   UNL     1       5.454   5.988  17.022  0.00  0.00    +0.000 OA
ATOM     16  C   UNL     1       6.671   6.699  17.194  0.00  0.00    +0.000 C 
ENDBRANCH   9  15
ENDBRANCH   2   5
BRANCH   1  17
ATOM     17  N   UNL     1      -0.331  10.207  17.670  0.00  0.00    +0.000 NA
ATOM     18  H   UNL     1       0.318  11.007  17.621  0.00  0.00    +0.000 HD
BRANCH  17  19
ATOM     19  C   UNL     1      -1.339  10.466  18.719  0.00  0.00    +0.000 C 
BRANCH  19  20
ATOM     20  C   UNL     1      -0.823  11.536  19.715  0.00  0.00    +0.000 C 
BRANCH  20  21
ATOM     21  C   UNL     1      -0.663  11.107  21.177  0.00  0.00    +0.000 C 
BRANCH  21  23
ATOM     22  C   UNL     1       0.277   9.412  22.769  0.00  0.00    +0.000 C 
ATOM     23  C   UNL     1       0.465  10.107  21.426  0.00  0.00    +0.000 C 
ENDBRANCH  21  23
ENDBRANCH  20  21
ENDBRANCH  19  20
BRANCH  19  24
ATOM     24  C   UNL     1      -2.648  10.898  18.022  0.00  0.00    +0.000 C 
BRANCH  24  25
ATOM     25  C   UNL     1      -3.029  10.090  16.769  0.00  0.00    +0.000 C 
BRANCH  25  26
ATOM     26  C   UNL     1      -3.043  10.912  15.479  0.00  0.00    +0.000 C 
ATOM     27  C   UNL     1      -3.120  10.010  14.257  0.00  0.00    +0.000 C 
ENDBRANCH  25  26
ENDBRANCH  24  25
ENDBRANCH  19  24
ENDBRANCH  17  19
ENDBRANCH   1  17
TORSDOF 12
ENDMDL
MODEL 7
REMARK VINA RESULT:      -6.2      1.773      4.305
REMARK  Name = 
REMARK  17 active torsions:
REMARK  status: ('A' for Active; 'I' for Inactive)
REMARK    1  A    between atoms: C_1  and  C_2
REMARK    2  A    between atoms: C_2  and  C_3
REMARK    3  A    between atoms: C_3  and  C_4
REMARK    4  A    between atoms: C_4  and  C_5
REMARK    5  A    between atoms: C_5  and  C_6
REMARK    6  A    between atoms: C_5  and  N_10
REMARK    7  A    between atoms: C_6  and  C_7
REMARK    8  A    between atoms: C_7  and  C_8
REMARK    9  A    between atoms: C_8  and  C_9
REMARK   10  A    between atoms: N_10  and  N_11
REMARK   11  A    between atoms: C_12  and  C_14
REMARK   12  A    between atoms: C_16  and  O_17
REMARK   13  A    between atoms: O_17  and  C_18
REMARK   14  A    between atoms: C_19  and  O_20
REMARK   15  A    between atoms: O_20  and  C_21
REMARK   16  A    between atoms: C_22  and  O_23
REMARK   17  A    between atoms: O_23  and  C_24
REMARK                            x       y       z     vdW  Elec       q    Type
REMARK                         _______ _______ _______ _____ _____    ______ ____
ROOT
ATOM      1  N   UNL     1       2.228   7.405  20.288  0.00  0.00    +0.000 N 
ATOM      2  C   UNL     1       2.341   6.032  20.115  0.00  0.00    +0.000 C 
ATOM      3  O   UNL     1       1.741   5.211  20.803  0.00  0.00    +0.000 OA
ATOM      4  H   UNL     1       2.903   8.042  19.873  0.00  0.00    +0.000 HD
ENDROOT
BRANCH   2   5
ATOM      5  C   UNL     1       3.255   5.582  19.036  0.00  0.00    +0.000 A 
ATOM      6  C   UNL     1       3.258   4.231  18.700  0.00  0.00    +0.000 A 
ATOM      7  C   UNL     1       4.085   3.766  17.676  0.00  0.00    +0.000 A 
ATOM      8  C   UNL     1       4.943   4.662  16.995  0.00  0.00    +0.000 A 
ATOM      9  C   UNL     1       4.938   6.031  17.339  0.00  0.00    +0.000 A 
ATOM     10  C   UNL     1       4.070   6.481  18.341  0.00  0.00    +0.000 A 
BRANCH   7  11
ATOM     11  O   UNL     1       4.126   2.445  17.293  0.00  0.00    +0.000 OA
ATOM     12  C   UNL     1       3.599   1.505  18.227  0.00  0.00    +0.000 C 
ENDBRANCH   7  11
BRANCH   8  13
ATOM     13  O   UNL     1       5.782   4.080  16.072  0.00  0.00    +0.000 OA
ATOM     14  C   UNL     1       5.495   4.314  14.699  0.00  0.00    +0.000 C 
ENDBRANCH   8  13
BRANCH   9  15
ATOM     15  O   UNL     1       5.805   6.866  16.683  0.00  0.00    +0.000 OA
ATOM     16  C   UNL     1       7.031   7.206  17.315  0.00  0.00    +0.000 C 
ENDBRANCH   9  15
ENDBRANCH   2   5
BRANCH   1  17
ATOM     17  N   UNL     1       1.396   7.889  21.312  0.00  0.00    +0.000 NA
ATOM     18  H   UNL     1       0.572   7.272  21.353  0.00  0.00    +0.000 HD
BRANCH  17  19
ATOM     19  C   UNL     1       0.950   9.275  21.061  0.00  0.00    +0.000 C 
BRANCH  19  20
ATOM     20  C   UNL     1       0.984   9.589  19.543  0.00  0.00    +0.000 C 
BRANCH  20  21
ATOM     21  C   UNL     1       0.020  10.666  19.033  0.00  0.00    +0.000 C 
BRANCH  21  23
ATOM     22  C   UNL     1      -2.344  10.869  18.220  0.00  0.00    +0.000 C 
ATOM     23  C   UNL     1      -1.006  10.170  18.016  0.00  0.00    +0.000 C 
ENDBRANCH  21  23
ENDBRANCH  20  21
ENDBRANCH  19  20
BRANCH  19  24
ATOM     24  C   UNL     1      -0.466   9.432  21.658  0.00  0.00    +0.000 C 
BRANCH  24  25
ATOM     25  C   UNL     1      -0.536  10.149  23.018  0.00  0.00    +0.000 C 
BRANCH  25  26
ATOM     26  C   UNL     1      -1.457  11.370  23.031  0.00  0.00    +0.000 C 
ATOM     27  C   UNL     1      -0.781  12.572  22.386  0.00  0.00    +0.000 C 
ENDBRANCH  25  26
ENDBRANCH  24  25
ENDBRANCH  19  24
ENDBRANCH  17  19
ENDBRANCH   1  17
TORSDOF 12
ENDMDL
MODEL 8
REMARK VINA RESULT:      -6.1      2.372      7.709
REMARK  Name = 
REMARK  17 active torsions:
REMARK  status: ('A' for Active; 'I' for Inactive)
REMARK    1  A    between atoms: C_1  and  C_2
REMARK    2  A    between atoms: C_2  and  C_3
REMARK    3  A    between atoms: C_3  and  C_4
REMARK    4  A    between atoms: C_4  and  C_5
REMARK    5  A    between atoms: C_5  and  C_6
REMARK    6  A    between atoms: C_5  and  N_10
REMARK    7  A    between atoms: C_6  and  C_7
REMARK    8  A    between atoms: C_7  and  C_8
REMARK    9  A    between atoms: C_8  and  C_9
REMARK   10  A    between atoms: N_10  and  N_11
REMARK   11  A    between atoms: C_12  and  C_14
REMARK   12  A    between atoms: C_16  and  O_17
REMARK   13  A    between atoms: O_17  and  C_18
REMARK   14  A    between atoms: C_19  and  O_20
REMARK   15  A    between atoms: O_20  and  C_21
REMARK   16  A    between atoms: C_22  and  O_23
REMARK   17  A    between atoms: O_23  and  C_24
REMARK                            x       y       z     vdW  Elec       q    Type
REMARK                         _______ _______ _______ _____ _____    ______ ____
ROOT
ATOM      1  N   UNL     1       2.298   7.492  19.142  0.00  0.00    +0.000 N 
ATOM      2  C   UNL     1       1.918   8.586  18.378  0.00  0.00    +0.000 C 
ATOM      3  O   UNL     1       2.360   8.816  17.256  0.00  0.00    +0.000 OA
ATOM      4  H   UNL     1       2.103   7.455  20.139  0.00  0.00    +0.000 HD
ENDROOT
BRANCH   2   5
ATOM      5  C   UNL     1       0.929   9.503  18.997  0.00  0.00    +0.000 A 
ATOM      6  C   UNL     1      -0.031  10.086  18.173  0.00  0.00    +0.000 A 
ATOM      7  C   UNL     1      -0.995  10.937  18.716  0.00  0.00    +0.000 A 
ATOM      8  C   UNL     1      -0.982  11.233  20.100  0.00  0.00    +0.000 A 
ATOM      9  C   UNL     1      -0.007  10.642  20.932  0.00  0.00    +0.000 A 
ATOM     10  C   UNL     1       0.923   9.758  20.372  0.00  0.00    +0.000 A 
BRANCH   7  11
ATOM     11  O   UNL     1      -1.972  11.537  17.955  0.00  0.00    +0.000 OA
ATOM     12  C   UNL     1      -2.897  10.659  17.316  0.00  0.00    +0.000 C 
ENDBRANCH   7  11
BRANCH   8  13
ATOM     13  O   UNL     1      -1.917  12.158  20.508  0.00  0.00    +0.000 OA
ATOM     14  C   UNL     1      -1.487  13.509  20.612  0.00  0.00    +0.000 C 
ENDBRANCH   8  13
BRANCH   9  15
ATOM     15  O   UNL     1      -0.003  10.976  22.261  0.00  0.00    +0.000 OA
ATOM     16  C   UNL     1      -0.700  10.141  23.175  0.00  0.00    +0.000 C 
ENDBRANCH   9  15
ENDBRANCH   2   5
BRANCH   1  17
ATOM     17  N   UNL     1       3.252   6.602  18.616  0.00  0.00    +0.000 NA
ATOM     18  H   UNL     1       2.879   6.248  17.723  0.00  0.00    +0.000 HD
BRANCH  17  19
ATOM     19  C   UNL     1       3.508   5.461  19.520  0.00  0.00    +0.000 C 
BRANCH  19  20
ATOM     20  C   UNL     1       2.264   5.176  20.400  0.00  0.00    +0.000 C 
BRANCH  20  21
ATOM     21  C   UNL     1       2.319   3.939  21.303  0.00  0.00    +0.000 C 
BRANCH  21  23
ATOM     22  C   UNL     1       0.755   2.938  19.617  0.00  0.00    +0.000 C 
ATOM     23  C   UNL     1       1.188   2.937  21.078  0.00  0.00    +0.000 C 
ENDBRANCH  21  23
ENDBRANCH  20  21
ENDBRANCH  19  20
BRANCH  19  24
ATOM     24  C   UNL     1       3.899   4.246  18.649  0.00  0.00    +0.000 C 
BRANCH  24  25
ATOM     25  C   UNL     1       4.052   4.532  17.144  0.00  0.00    +0.000 C 
BRANCH  25  26
ATOM     26  C   UNL     1       5.493   4.452  16.638  0.00  0.00    +0.000 C 
ATOM     27  C   UNL     1       5.533   4.242  15.132  0.00  0.00    +0.000 C 
ENDBRANCH  25  26
ENDBRANCH  24  25
ENDBRANCH  19  24
ENDBRANCH  17  19
ENDBRANCH   1  17
TORSDOF 12
ENDMDL
MODEL 9
REMARK VINA RESULT:      -6.1      2.824      7.484
REMARK  Name = 
REMARK  17 active torsions:
REMARK  status: ('A' for Active; 'I' for Inactive)
REMARK    1  A    between atoms: C_1  and  C_2
REMARK    2  A    between atoms: C_2  and  C_3
REMARK    3  A    between atoms: C_3  and  C_4
REMARK    4  A    between atoms: C_4  and  C_5
REMARK    5  A    between atoms: C_5  and  C_6
REMARK    6  A    between atoms: C_5  and  N_10
REMARK    7  A    between atoms: C_6  and  C_7
REMARK    8  A    between atoms: C_7  and  C_8
REMARK    9  A    between atoms: C_8  and  C_9
REMARK   10  A    between atoms: N_10  and  N_11
REMARK   11  A    between atoms: C_12  and  C_14
REMARK   12  A    between atoms: C_16  and  O_17
REMARK   13  A    between atoms: O_17  and  C_18
REMARK   14  A    between atoms: C_19  and  O_20
REMARK   15  A    between atoms: O_20  and  C_21
REMARK   16  A    between atoms: C_22  and  O_23
REMARK   17  A    between atoms: O_23  and  C_24
REMARK                            x       y       z     vdW  Elec       q    Type
REMARK                         _______ _______ _______ _____ _____    ______ ____
ROOT
ATOM      1  N   UNL     1       3.383   6.470  19.771  0.00  0.00    +0.000 N 
ATOM      2  C   UNL     1       2.118   6.614  20.323  0.00  0.00    +0.000 C 
ATOM      3  O   UNL     1       1.426   5.668  20.688  0.00  0.00    +0.000 OA
ATOM      4  H   UNL     1       3.826   7.234  19.268  0.00  0.00    +0.000 HD
ENDROOT
BRANCH   2   5
ATOM      5  C   UNL     1       1.616   8.005  20.451  0.00  0.00    +0.000 A 
ATOM      6  C   UNL     1       1.598   8.803  19.310  0.00  0.00    +0.000 A 
ATOM      7  C   UNL     1       1.113  10.110  19.378  0.00  0.00    +0.000 A 
ATOM      8  C   UNL     1       0.666  10.638  20.613  0.00  0.00    +0.000 A 
ATOM      9  C   UNL     1       0.687   9.827  21.768  0.00  0.00    +0.000 A 
ATOM     10  C   UNL     1       1.138   8.505  21.666  0.00  0.00    +0.000 A 
BRANCH   7  11
ATOM     11  O   UNL     1       1.063  10.944  18.284  0.00  0.00    +0.000 OA
ATOM     12  C   UNL     1       2.309  11.479  17.845  0.00  0.00    +0.000 C 
ENDBRANCH   7  11
BRANCH   8  13
ATOM     13  O   UNL     1       0.301  11.965  20.583  0.00  0.00    +0.000 OA
ATOM     14  C   UNL     1       1.280  12.914  20.986  0.00  0.00    +0.000 C 
ENDBRANCH   8  13
BRANCH   9  15
ATOM     15  O   UNL     1       0.279  10.379  22.953  0.00  0.00    +0.000 OA
ATOM     16  C   UNL     1      -1.114  10.499  23.205  0.00  0.00    +0.000 C 
ENDBRANCH   9  15
ENDBRANCH   2   5
BRANCH   1  17
ATOM     17  N   UNL     1       3.900   5.173  19.602  0.00  0.00    +0.000 NA
ATOM     18  H   UNL     1       4.769   5.117  20.154  0.00  0.00    +0.000 HD
BRANCH  17  19
ATOM     19  C   UNL     1       4.206   4.874  18.187  0.00  0.00    +0.000 C 
BRANCH  19  20
ATOM     20  C   UNL     1       3.319   3.712  17.674  0.00  0.00    +0.000 C 
BRANCH  20  21
ATOM     21  C   UNL     1       1.805   3.950  17.651  0.00  0.00    +0.000 C 
BRANCH  21  23
ATOM     22  C   UNL     1       1.901   2.197  19.442  0.00  0.00    +0.000 C 
ATOM     23  C   UNL     1       0.993   2.963  18.488  0.00  0.00    +0.000 C 
ENDBRANCH  21  23
ENDBRANCH  20  21
ENDBRANCH  19  20
BRANCH  19  24
ATOM     24  C   UNL     1       3.999   6.171  17.374  0.00  0.00    +0.000 C 
BRANCH  24  25
ATOM     25  C   UNL     1       5.261   6.741  16.703  0.00  0.00    +0.000 C 
BRANCH  25  26
ATOM     26  C   UNL     1       6.535   5.946  16.995  0.00  0.00    +0.000 C 
ATOM     27  C   UNL     1       7.519   6.770  17.811  0.00  0.00    +0.000 C 
ENDBRANCH  25  26
ENDBRANCH  24  25
ENDBRANCH  19  24
ENDBRANCH  17  19
ENDBRANCH   1  17
TORSDOF 12
ENDMDL
