MODEL 1
REMARK VINA RESULT:      -7.4      0.000      0.000
REMARK  Name = 
REMARK  11 active torsions:
REMARK  status: ('A' for Active; 'I' for Inactive)
REMARK    1  A    between atoms: C_1  and  S_2
REMARK    2  A    between atoms: S_2  and  C_3
REMARK    3  A    between atoms: C_6  and  C_7
REMARK    4  A    between atoms: C_7  and  C_8
REMARK    5  A    between atoms: C_7  and  C_20
REMARK    6  A    between atoms: C_11  and  O_12
REMARK    7  A    between atoms: O_12  and  C_13
REMARK    8  A    between atoms: C_13  and  C_14
REMARK    9  A    between atoms: C_14  and  N_15
REMARK   10  A    between atoms: N_15  and  C_16
REMARK   11  A    between atoms: N_15  and  C_17
REMARK                            x       y       z     vdW  Elec       q    Type
REMARK                         _______ _______ _______ _____ _____    ______ ____
ROOT
ATOM      1  C   UNL     1       3.483   5.591  19.216  0.00  0.00    +0.000 C 
ENDROOT
BRANCH   1   5
ATOM      2  C   UNL     1       6.050   5.086  15.725  0.00  0.00    +0.000 A 
ATOM      3  C   UNL     1       4.957   4.245  15.935  0.00  0.00    +0.000 A 
ATOM      4  C   UNL     1       4.128   4.421  17.050  0.00  0.00    +0.000 A 
ATOM      5  C   UNL     1       4.388   5.435  17.982  0.00  0.00    +0.000 A 
ATOM      6  C   UNL     1       5.506   6.266  17.766  0.00  0.00    +0.000 A 
ATOM      7  C   UNL     1       6.328   6.094  16.648  0.00  0.00    +0.000 A 
BRANCH   2   9
ATOM      8  C   UNL     1       6.017   3.757  13.352  0.00  0.00    +0.000 C 
ATOM      9  S   UNL     1       7.087   4.873  14.294  0.00  0.00    +0.000 S 
ENDBRANCH   2   9
ENDBRANCH   1   5
BRANCH   1  10
ATOM     10  C   UNL     1       2.740   6.928  19.140  0.00  0.00    +0.000 A 
ATOM     11  C   UNL     1       2.063   7.418  20.259  0.00  0.00    +0.000 A 
ATOM     12  C   UNL     1       1.320   8.581  20.178  0.00  0.00    +0.000 A 
ATOM     13  C   UNL     1       1.205   9.293  18.976  0.00  0.00    +0.000 A 
ATOM     14  C   UNL     1       1.881   8.818  17.855  0.00  0.00    +0.000 A 
ATOM     15  C   UNL     1       2.645   7.642  17.933  0.00  0.00    +0.000 A 
BRANCH  13  16
ATOM     16  O   UNL     1       0.445  10.436  18.853  0.00  0.00    +0.000 OA
BRANCH  16  17
ATOM     17  C   UNL     1      -0.952  10.151  18.660  0.00  0.00    +0.000 C 
BRANCH  17  18
ATOM     18  C   UNL     1      -1.523  10.770  17.386  0.00  0.00    +0.000 C 
BRANCH  18  19
ATOM     19  N   UNL     1      -2.725  10.051  16.900  0.00  0.00    +0.000 NA
ATOM     20  C   UNL     1      -3.926  10.345  17.688  0.00  0.00    +0.000 C 
ATOM     21  C   UNL     1      -2.962  10.390  15.497  0.00  0.00    +0.000 C 
ENDBRANCH  18  19
ENDBRANCH  17  18
ENDBRANCH  16  17
ENDBRANCH  13  16
ENDBRANCH   1  10
BRANCH   1  22
ATOM     22  C   UNL     1       2.556   4.389  19.454  0.00  0.00    +0.000 A 
ATOM     23  C   UNL     1       1.362   4.057  18.835  0.00  0.00    +0.000 A 
ATOM     24  C   UNL     1       0.706   2.954  19.452  0.00  0.00    +0.000 A 
ATOM     25  C   UNL     1       1.449   2.420  20.479  0.00  0.00    +0.000 A 
ATOM     26  S   UNL     1       2.960   3.200  20.644  0.00  0.00    +0.000 S 
ENDBRANCH   1  22
TORSDOF 8
ENDMDL
MODEL 2
REMARK VINA RESULT:      -7.4      0.769      1.461
REMARK  Name = 
REMARK  11 active torsions:
REMARK  status: ('A' for Active; 'I' for Inactive)
REMARK    1  A    between atoms: C_1  and  S_2
REMARK    2  A    between atoms: S_2  and  C_3
REMARK    3  A    between atoms: C_6  and  C_7
REMARK    4  A    between atoms: C_7  and  C_8
REMARK    5  A    between atoms: C_7  and  C_20
REMARK    6  A    between atoms: C_11  and  O_12
REMARK    7  A    between atoms: O_12  and  C_13
REMARK    8  A    between atoms: C_13  and  C_14
REMARK    9  A    between atoms: C_14  and  N_15
REMARK   10  A    between atoms: N_15  and  C_16
REMARK   11  A    between atoms: N_15  and  C_17
REMARK                            x       y       z     vdW  Elec       q    Type
REMARK                         _______ _______ _______ _____ _____    ______ ____
ROOT
ATOM      1  C   UNL     1       3.316   5.839  19.387  0.00  0.00    +0.000 C 
ENDROOT
BRANCH   1   5
ATOM      2  C   UNL     1       5.945   5.117  15.980  0.00  0.00    +0.000 A 
ATOM      3  C   UNL     1       6.151   6.210  16.823  0.00  0.00    +0.000 A 
ATOM      4  C   UNL     1       5.313   6.428  17.922  0.00  0.00    +0.000 A 
ATOM      5  C   UNL     1       4.244   5.563  18.190  0.00  0.00    +0.000 A 
ATOM      6  C   UNL     1       4.036   4.473  17.320  0.00  0.00    +0.000 A 
ATOM      7  C   UNL     1       4.878   4.252  16.227  0.00  0.00    +0.000 A 
BRANCH   2   9
ATOM      8  C   UNL     1       5.911   3.821  13.589  0.00  0.00    +0.000 C 
ATOM      9  S   UNL     1       7.026   4.830  14.596  0.00  0.00    +0.000 S 
ENDBRANCH   2   9
ENDBRANCH   1   5
BRANCH   1  10
ATOM     10  C   UNL     1       2.585   7.168  19.171  0.00  0.00    +0.000 A 
ATOM     11  C   UNL     1       1.899   7.769  20.228  0.00  0.00    +0.000 A 
ATOM     12  C   UNL     1       1.167   8.924  20.025  0.00  0.00    +0.000 A 
ATOM     13  C   UNL     1       1.072   9.517  18.758  0.00  0.00    +0.000 A 
ATOM     14  C   UNL     1       1.758   8.931  17.698  0.00  0.00    +0.000 A 
ATOM     15  C   UNL     1       2.512   7.763  17.900  0.00  0.00    +0.000 A 
BRANCH  13  16
ATOM     16  O   UNL     1       0.323  10.647  18.514  0.00  0.00    +0.000 OA
BRANCH  16  17
ATOM     17  C   UNL     1      -1.090  10.410  18.635  0.00  0.00    +0.000 C 
BRANCH  17  18
ATOM     18  C   UNL     1      -1.745   9.990  17.321  0.00  0.00    +0.000 C 
BRANCH  18  19
ATOM     19  N   UNL     1      -2.570  11.072  16.731  0.00  0.00    +0.000 NA
ATOM     20  C   UNL     1      -2.978  10.794  15.351  0.00  0.00    +0.000 C 
ATOM     21  C   UNL     1      -3.755  11.287  17.561  0.00  0.00    +0.000 C 
ENDBRANCH  18  19
ENDBRANCH  17  18
ENDBRANCH  16  17
ENDBRANCH  13  16
ENDBRANCH   1  10
BRANCH   1  22
ATOM     22  C   UNL     1       2.376   4.671  19.718  0.00  0.00    +0.000 A 
ATOM     23  C   UNL     1       2.187   4.000  20.914  0.00  0.00    +0.000 A 
ATOM     24  C   UNL     1       1.351   2.854  20.782  0.00  0.00    +0.000 A 
ATOM     25  C   UNL     1       0.859   2.720  19.504  0.00  0.00    +0.000 A 
ATOM     26  S   UNL     1       1.345   4.010  18.495  0.00  0.00    +0.000 S 
ENDBRANCH   1  22
TORSDOF 8
ENDMDL
MODEL 3
REMARK VINA RESULT:      -7.4      2.054      2.633
REMARK  Name = 
REMARK  11 active torsions:
REMARK  status: ('A' for Active; 'I' for Inactive)
REMARK    1  A    between atoms: C_1  and  S_2
REMARK    2  A    between atoms: S_2  and  C_3
REMARK    3  A    between atoms: C_6  and  C_7
REMARK    4  A    between atoms: C_7  and  C_8
REMARK    5  A    between atoms: C_7  and  C_20
REMARK    6  A    between atoms: C_11  and  O_12
REMARK    7  A    between atoms: O_12  and  C_13
REMARK    8  A    between atoms: C_13  and  C_14
REMARK    9  A    between atoms: C_14  and  N_15
REMARK   10  A    between atoms: N_15  and  C_16
REMARK   11  A    between atoms: N_15  and  C_17
REMARK                            x       y       z     vdW  Elec       q    Type
REMARK                         _______ _______ _______ _____ _____    ______ ____
ROOT
ATOM      1  C   UNL     1       3.543   5.523  19.290  0.00  0.00    +0.000 C 
ENDROOT
BRANCH   1   5
ATOM      2  C   UNL     1       6.062   5.125  15.751  0.00  0.00    +0.000 A 
ATOM      3  C   UNL     1       6.401   6.013  16.773  0.00  0.00    +0.000 A 
ATOM      4  C   UNL     1       5.596   6.126  17.912  0.00  0.00    +0.000 A 
ATOM      5  C   UNL     1       4.429   5.361  18.043  0.00  0.00    +0.000 A 
ATOM      6  C   UNL     1       4.090   4.481  16.995  0.00  0.00    +0.000 A 
ATOM      7  C   UNL     1       4.899   4.364  15.861  0.00  0.00    +0.000 A 
BRANCH   2   9
ATOM      8  C   UNL     1       6.133   3.728  13.418  0.00  0.00    +0.000 C 
ATOM      9  S   UNL     1       7.101   4.968  14.314  0.00  0.00    +0.000 S 
ENDBRANCH   2   9
ENDBRANCH   1   5
BRANCH   1  10
ATOM     10  C   UNL     1       2.795   6.858  19.216  0.00  0.00    +0.000 A 
ATOM     11  C   UNL     1       2.109   7.339  20.333  0.00  0.00    +0.000 A 
ATOM     12  C   UNL     1       1.362   8.500  20.253  0.00  0.00    +0.000 A 
ATOM     13  C   UNL     1       1.251   9.218  19.054  0.00  0.00    +0.000 A 
ATOM     14  C   UNL     1       1.936   8.751  17.935  0.00  0.00    +0.000 A 
ATOM     15  C   UNL     1       2.705   7.578  18.012  0.00  0.00    +0.000 A 
BRANCH  13  16
ATOM     16  O   UNL     1       0.487  10.358  18.932  0.00  0.00    +0.000 OA
BRANCH  16  17
ATOM     17  C   UNL     1       0.679  11.270  20.026  0.00  0.00    +0.000 C 
BRANCH  17  18
ATOM     18  C   UNL     1      -0.601  11.548  20.812  0.00  0.00    +0.000 C 
BRANCH  18  19
ATOM     19  N   UNL     1      -0.359  11.625  22.273  0.00  0.00    +0.000 NA
ATOM     20  C   UNL     1      -1.161  12.660  22.932  0.00  0.00    +0.000 C 
ATOM     21  C   UNL     1      -0.637  10.325  22.882  0.00  0.00    +0.000 C 
ENDBRANCH  18  19
ENDBRANCH  17  18
ENDBRANCH  16  17
ENDBRANCH  13  16
ENDBRANCH   1  10
BRANCH   1  22
ATOM     22  C   UNL     1       2.624   4.321  19.551  0.00  0.00    +0.000 A 
ATOM     23  C   UNL     1       1.289   4.141  19.228  0.00  0.00    +0.000 A 
ATOM     24  C   UNL     1       0.736   2.957  19.793  0.00  0.00    +0.000 A 
ATOM     25  C   UNL     1       1.679   2.219  20.471  0.00  0.00    +0.000 A 
ATOM     26  S   UNL     1       3.234   2.918  20.360  0.00  0.00    +0.000 S 
ENDBRANCH   1  22
TORSDOF 8
ENDMDL
MODEL 4
REMARK VINA RESULT:      -7.3      0.628      1.579
REMARK  Name = 
REMARK  11 active torsions:
REMARK  status: ('A' for Active; 'I' for Inactive)
REMARK    1  A    between atoms: C_1  and  S_2
REMARK    2  A    between atoms: S_2  and  C_3
REMARK    3  A    between atoms: C_6  and  C_7
REMARK    4  A    between atoms: C_7  and  C_8
REMARK    5  A    between atoms: C_7  and  C_20
REMARK    6  A    between atoms: C_11  and  O_12
REMARK    7  A    between atoms: O_12  and  C_13
REMARK    8  A    between atoms: C_13  and  C_14
REMARK    9  A    between atoms: C_14  and  N_15
REMARK   10  A    between atoms: N_15  and  C_16
REMARK   11  A    between atoms: N_15  and  C_17
REMARK                            x       y       z     vdW  Elec       q    Type
REMARK                         _______ _______ _______ _____ _____    ______ ____
ROOT
ATOM      1  C   UNL     1       3.339   5.730  19.374  0.00  0.00    +0.000 C 
ENDROOT
BRANCH   1   5
ATOM      2  C   UNL     1       5.903   5.167  15.889  0.00  0.00    +0.000 A 
ATOM      3  C   UNL     1       6.129   6.216  16.781  0.00  0.00    +0.000 A 
ATOM      4  C   UNL     1       5.313   6.383  17.905  0.00  0.00    +0.000 A 
ATOM      5  C   UNL     1       4.244   5.509  18.149  0.00  0.00    +0.000 A 
ATOM      6  C   UNL     1       4.016   4.465  17.230  0.00  0.00    +0.000 A 
ATOM      7  C   UNL     1       4.837   4.295  16.113  0.00  0.00    +0.000 A 
BRANCH   2   9
ATOM      8  C   UNL     1       5.932   3.768  13.556  0.00  0.00    +0.000 C 
ATOM      9  S   UNL     1       6.958   4.945  14.473  0.00  0.00    +0.000 S 
ENDBRANCH   2   9
ENDBRANCH   1   5
BRANCH   1  10
ATOM     10  C   UNL     1       2.519   7.009  19.181  0.00  0.00    +0.000 A 
ATOM     11  C   UNL     1       2.446   7.610  17.923  0.00  0.00    +0.000 A 
ATOM     12  C   UNL     1       1.778   8.810  17.755  0.00  0.00    +0.000 A 
ATOM     13  C   UNL     1       1.173   9.468  18.835  0.00  0.00    +0.000 A 
ATOM     14  C   UNL     1       1.234   8.874  20.093  0.00  0.00    +0.000 A 
ATOM     15  C   UNL     1       1.902   7.651  20.269  0.00  0.00    +0.000 A 
BRANCH  13  16
ATOM     16  O   UNL     1       0.531  10.680  18.708  0.00  0.00    +0.000 OA
BRANCH  16  17
ATOM     17  C   UNL     1      -0.901  10.551  18.742  0.00  0.00    +0.000 C 
BRANCH  17  18
ATOM     18  C   UNL     1      -1.624  11.648  17.962  0.00  0.00    +0.000 C 
BRANCH  18  19
ATOM     19  N   UNL     1      -3.011  11.264  17.604  0.00  0.00    +0.000 NA
ATOM     20  C   UNL     1      -3.183   9.817  17.451  0.00  0.00    +0.000 C 
ATOM     21  C   UNL     1      -3.932  11.766  18.622  0.00  0.00    +0.000 C 
ENDBRANCH  18  19
ENDBRANCH  17  18
ENDBRANCH  16  17
ENDBRANCH  13  16
ENDBRANCH   1  10
BRANCH   1  22
ATOM     22  C   UNL     1       2.486   4.505  19.736  0.00  0.00    +0.000 A 
ATOM     23  C   UNL     1       1.235   4.131  19.273  0.00  0.00    +0.000 A 
ATOM     24  C   UNL     1       0.694   3.017  19.976  0.00  0.00    +0.000 A 
ATOM     25  C   UNL     1       1.574   2.518  20.908  0.00  0.00    +0.000 A 
ATOM     26  S   UNL     1       3.070   3.344  20.878  0.00  0.00    +0.000 S 
ENDBRANCH   1  22
TORSDOF 8
ENDMDL
MODEL 5
REMARK VINA RESULT:      -7.3      2.024      2.660
REMARK  Name = 
REMARK  11 active torsions:
REMARK  status: ('A' for Active; 'I' for Inactive)
REMARK    1  A    between atoms: C_1  and  S_2
REMARK    2  A    between atoms: S_2  and  C_3
REMARK    3  A    between atoms: C_6  and  C_7
REMARK    4  A    between atoms: C_7  and  C_8
REMARK    5  A    between atoms: C_7  and  C_20
REMARK    6  A    between atoms: C_11  and  O_12
REMARK    7  A    between atoms: O_12  and  C_13
REMARK    8  A    between atoms: C_13  and  C_14
REMARK    9  A    between atoms: C_14  and  N_15
REMARK   10  A    between atoms: N_15  and  C_16
REMARK   11  A    between atoms: N_15  and  C_17
REMARK                            x       y       z     vdW  Elec       q    Type
REMARK                         _______ _______ _______ _____ _____    ______ ____
ROOT
ATOM      1  C   UNL     1       3.429   5.504  19.325  0.00  0.00    +0.000 C 
ENDROOT
BRANCH   1   5
ATOM      2  C   UNL     1       6.035   5.169  15.843  0.00  0.00    +0.000 A 
ATOM      3  C   UNL     1       4.875   4.401  15.943  0.00  0.00    +0.000 A 
ATOM      4  C   UNL     1       4.035   4.524  17.056  0.00  0.00    +0.000 A 
ATOM      5  C   UNL     1       4.350   5.408  18.096  0.00  0.00    +0.000 A 
ATOM      6  C   UNL     1       5.535   6.164  17.990  0.00  0.00    +0.000 A 
ATOM      7  C   UNL     1       6.368   6.046  16.874  0.00  0.00    +0.000 A 
BRANCH   2   9
ATOM      8  C   UNL     1       6.146   3.772  13.511  0.00  0.00    +0.000 C 
ATOM      9  S   UNL     1       7.089   5.027  14.415  0.00  0.00    +0.000 S 
ENDBRANCH   2   9
ENDBRANCH   1   5
BRANCH   1  10
ATOM     10  C   UNL     1       2.624   6.806  19.260  0.00  0.00    +0.000 A 
ATOM     11  C   UNL     1       2.573   7.539  18.073  0.00  0.00    +0.000 A 
ATOM     12  C   UNL     1       1.920   8.757  18.027  0.00  0.00    +0.000 A 
ATOM     13  C   UNL     1       1.307   9.303  19.164  0.00  0.00    +0.000 A 
ATOM     14  C   UNL     1       1.345   8.577  20.351  0.00  0.00    +0.000 A 
ATOM     15  C   UNL     1       1.999   7.334  20.403  0.00  0.00    +0.000 A 
BRANCH  13  16
ATOM     16  O   UNL     1       0.679  10.529  19.160  0.00  0.00    +0.000 OA
BRANCH  16  17
ATOM     17  C   UNL     1      -0.214  10.694  20.275  0.00  0.00    +0.000 C 
BRANCH  17  18
ATOM     18  C   UNL     1       0.089  11.935  21.112  0.00  0.00    +0.000 C 
BRANCH  18  19
ATOM     19  N   UNL     1      -0.285  11.760  22.536  0.00  0.00    +0.000 NA
ATOM     20  C   UNL     1      -1.463  12.545  22.919  0.00  0.00    +0.000 C 
ATOM     21  C   UNL     1      -0.528  10.344  22.805  0.00  0.00    +0.000 C 
ENDBRANCH  18  19
ENDBRANCH  17  18
ENDBRANCH  16  17
ENDBRANCH  13  16
ENDBRANCH   1  10
BRANCH   1  22
ATOM     22  C   UNL     1       2.558   4.257  19.539  0.00  0.00    +0.000 A 
ATOM     23  C   UNL     1       1.251   4.014  19.150  0.00  0.00    +0.000 A 
ATOM     24  C   UNL     1       0.730   2.801  19.685  0.00  0.00    +0.000 A 
ATOM     25  C   UNL     1       1.673   2.108  20.407  0.00  0.00    +0.000 A 
ATOM     26  S   UNL     1       3.196   2.882  20.373  0.00  0.00    +0.000 S 
ENDBRANCH   1  22
TORSDOF 8
ENDMDL
MODEL 6
REMARK VINA RESULT:      -7.3      0.620      1.299
REMARK  Name = 
REMARK  11 active torsions:
REMARK  status: ('A' for Active; 'I' for Inactive)
REMARK    1  A    between atoms: C_1  and  S_2
REMARK    2  A    between atoms: S_2  and  C_3
REMARK    3  A    between atoms: C_6  and  C_7
REMARK    4  A    between atoms: C_7  and  C_8
REMARK    5  A    between atoms: C_7  and  C_20
REMARK    6  A    between atoms: C_11  and  O_12
REMARK    7  A    between atoms: O_12  and  C_13
REMARK    8  A    between atoms: C_13  and  C_14
REMARK    9  A    between atoms: C_14  and  N_15
REMARK   10  A    between atoms: N_15  and  C_16
REMARK   11  A    between atoms: N_15  and  C_17
REMARK                            x       y       z     vdW  Elec       q    Type
REMARK                         _______ _______ _______ _____ _____    ______ ____
ROOT
ATOM      1  C   UNL     1       3.392   5.700  19.396  0.00  0.00    +0.000 C 
ENDROOT
BRANCH   1   5
ATOM      2  C   UNL     1       5.965   5.134  15.919  0.00  0.00    +0.000 A 
ATOM      3  C   UNL     1       4.847   4.324  16.119  0.00  0.00    +0.000 A 
ATOM      4  C   UNL     1       4.017   4.520  17.229  0.00  0.00    +0.000 A 
ATOM      5  C   UNL     1       4.301   5.522  18.167  0.00  0.00    +0.000 A 
ATOM      6  C   UNL     1       5.444   6.321  17.961  0.00  0.00    +0.000 A 
ATOM      7  C   UNL     1       6.267   6.129  16.848  0.00  0.00    +0.000 A 
BRANCH   2   9
ATOM      8  C   UNL     1       5.923   3.789  13.555  0.00  0.00    +0.000 C 
ATOM      9  S   UNL     1       7.005   4.896  14.494  0.00  0.00    +0.000 S 
ENDBRANCH   2   9
ENDBRANCH   1   5
BRANCH   1  10
ATOM     10  C   UNL     1       2.550   6.969  19.231  0.00  0.00    +0.000 A 
ATOM     11  C   UNL     1       2.467   7.596  17.986  0.00  0.00    +0.000 A 
ATOM     12  C   UNL     1       1.778   8.788  17.844  0.00  0.00    +0.000 A 
ATOM     13  C   UNL     1       1.161   9.411  18.938  0.00  0.00    +0.000 A 
ATOM     14  C   UNL     1       1.232   8.791  20.182  0.00  0.00    +0.000 A 
ATOM     15  C   UNL     1       1.921   7.576  20.332  0.00  0.00    +0.000 A 
BRANCH  13  16
ATOM     16  O   UNL     1       0.498  10.614  18.837  0.00  0.00    +0.000 OA
BRANCH  16  17
ATOM     17  C   UNL     1      -0.667  10.533  17.999  0.00  0.00    +0.000 C 
BRANCH  17  18
ATOM     18  C   UNL     1      -1.924  11.102  18.655  0.00  0.00    +0.000 C 
BRANCH  18  19
ATOM     19  N   UNL     1      -2.899  11.610  17.660  0.00  0.00    +0.000 NA
ATOM     20  C   UNL     1      -2.765  10.969  16.348  0.00  0.00    +0.000 C 
ATOM     21  C   UNL     1      -4.257  11.415  18.167  0.00  0.00    +0.000 C 
ENDBRANCH  18  19
ENDBRANCH  17  18
ENDBRANCH  16  17
ENDBRANCH  13  16
ENDBRANCH   1  10
BRANCH   1  22
ATOM     22  C   UNL     1       2.560   4.453  19.730  0.00  0.00    +0.000 A 
ATOM     23  C   UNL     1       1.235   4.171  19.443  0.00  0.00    +0.000 A 
ATOM     24  C   UNL     1       0.772   2.981  20.072  0.00  0.00    +0.000 A 
ATOM     25  C   UNL     1       1.774   2.339  20.763  0.00  0.00    +0.000 A 
ATOM     26  S   UNL     1       3.277   3.133  20.589  0.00  0.00    +0.000 S 
ENDBRANCH   1  22
TORSDOF 8
ENDMDL
MODEL 7
REMARK VINA RESULT:      -7.2      1.340      2.077
REMARK  Name = 
REMARK  11 active torsions:
REMARK  status: ('A' for Active; 'I' for Inactive)
REMARK    1  A    between atoms: C_1  and  S_2
REMARK    2  A    between atoms: S_2  and  C_3
REMARK    3  A    between atoms: C_6  and  C_7
REMARK    4  A    between atoms: C_7  and  C_8
REMARK    5  A    between atoms: C_7  and  C_20
REMARK    6  A    between atoms: C_11  and  O_12
REMARK    7  A    between atoms: O_12  and  C_13
REMARK    8  A    between atoms: C_13  and  C_14
REMARK    9  A    between atoms: C_14  and  N_15
REMARK   10  A    between atoms: N_15  and  C_16
REMARK   11  A    between atoms: N_15  and  C_17
REMARK                            x       y       z     vdW  Elec       q    Type
REMARK                         _______ _______ _______ _____ _____    ______ ____
ROOT
ATOM      1  C   UNL     1       3.446   5.610  19.170  0.00  0.00    +0.000 C 
ENDROOT
BRANCH   1   5
ATOM      2  C   UNL     1       6.071   5.099  15.723  0.00  0.00    +0.000 A 
ATOM      3  C   UNL     1       4.983   4.249  15.925  0.00  0.00    +0.000 A 
ATOM      4  C   UNL     1       4.136   4.427  17.024  0.00  0.00    +0.000 A 
ATOM      5  C   UNL     1       4.372   5.452  17.951  0.00  0.00    +0.000 A 
ATOM      6  C   UNL     1       5.485   6.292  17.745  0.00  0.00    +0.000 A 
ATOM      7  C   UNL     1       6.325   6.118  16.642  0.00  0.00    +0.000 A 
BRANCH   2   9
ATOM      8  C   UNL     1       6.109   3.713  13.383  0.00  0.00    +0.000 C 
ATOM      9  S   UNL     1       7.132   4.884  14.311  0.00  0.00    +0.000 S 
ENDBRANCH   2   9
ENDBRANCH   1   5
BRANCH   1  10
ATOM     10  C   UNL     1       2.653   6.914  19.044  0.00  0.00    +0.000 A 
ATOM     11  C   UNL     1       2.644   7.615  17.836  0.00  0.00    +0.000 A 
ATOM     12  C   UNL     1       2.002   8.835  17.736  0.00  0.00    +0.000 A 
ATOM     13  C   UNL     1       1.359   9.417  18.838  0.00  0.00    +0.000 A 
ATOM     14  C   UNL     1       1.355   8.724  20.046  0.00  0.00    +0.000 A 
ATOM     15  C   UNL     1       1.997   7.479  20.152  0.00  0.00    +0.000 A 
BRANCH  13  16
ATOM     16  O   UNL     1       0.740  10.646  18.781  0.00  0.00    +0.000 OA
BRANCH  16  17
ATOM     17  C   UNL     1      -0.635  10.553  18.370  0.00  0.00    +0.000 C 
BRANCH  17  18
ATOM     18  C   UNL     1      -1.608  11.169  19.374  0.00  0.00    +0.000 C 
BRANCH  18  19
ATOM     19  N   UNL     1      -0.943  12.131  20.286  0.00  0.00    +0.000 NA
ATOM     20  C   UNL     1      -1.510  13.480  20.207  0.00  0.00    +0.000 C 
ATOM     21  C   UNL     1      -1.031  11.639  21.660  0.00  0.00    +0.000 C 
ENDBRANCH  18  19
ENDBRANCH  17  18
ENDBRANCH  16  17
ENDBRANCH  13  16
ENDBRANCH   1  10
BRANCH   1  22
ATOM     22  C   UNL     1       2.563   4.381  19.434  0.00  0.00    +0.000 A 
ATOM     23  C   UNL     1       1.333   4.044  18.894  0.00  0.00    +0.000 A 
ATOM     24  C   UNL     1       0.746   2.907  19.520  0.00  0.00    +0.000 A 
ATOM     25  C   UNL     1       1.573   2.356  20.470  0.00  0.00    +0.000 A 
ATOM     26  S   UNL     1       3.077   3.164  20.550  0.00  0.00    +0.000 S 
ENDBRANCH   1  22
TORSDOF 8
ENDMDL
MODEL 8
REMARK VINA RESULT:      -7.2      0.547      1.186
REMARK  Name = 
REMARK  11 active torsions:
REMARK  status: ('A' for Active; 'I' for Inactive)
REMARK    1  A    between atoms: C_1  and  S_2
REMARK    2  A    between atoms: S_2  and  C_3
REMARK    3  A    between atoms: C_6  and  C_7
REMARK    4  A    between atoms: C_7  and  C_8
REMARK    5  A    between atoms: C_7  and  C_20
REMARK    6  A    between atoms: C_11  and  O_12
REMARK    7  A    between atoms: O_12  and  C_13
REMARK    8  A    between atoms: C_13  and  C_14
REMARK    9  A    between atoms: C_14  and  N_15
REMARK   10  A    between atoms: N_15  and  C_16
REMARK   11  A    between atoms: N_15  and  C_17
REMARK                            x       y       z     vdW  Elec       q    Type
REMARK                         _______ _______ _______ _____ _____    ______ ____
ROOT
ATOM      1  C   UNL     1       3.537   5.558  19.201  0.00  0.00    +0.000 C 
ENDROOT
BRANCH   1   5
ATOM      2  C   UNL     1       6.098   5.075  15.702  0.00  0.00    +0.000 A 
ATOM      3  C   UNL     1       6.405   6.014  16.688  0.00  0.00    +0.000 A 
ATOM      4  C   UNL     1       5.588   6.154  17.816  0.00  0.00    +0.000 A 
ATOM      5  C   UNL     1       4.439   5.366  17.969  0.00  0.00    +0.000 A 
ATOM      6  C   UNL     1       4.131   4.434  16.956  0.00  0.00    +0.000 A 
ATOM      7  C   UNL     1       4.953   4.291  15.835  0.00  0.00    +0.000 A 
BRANCH   2   9
ATOM      8  C   UNL     1       6.131   3.721  13.343  0.00  0.00    +0.000 C 
ATOM      9  S   UNL     1       7.153   4.885  14.281  0.00  0.00    +0.000 S 
ENDBRANCH   2   9
ENDBRANCH   1   5
BRANCH   1  10
ATOM     10  C   UNL     1       2.821   6.908  19.105  0.00  0.00    +0.000 A 
ATOM     11  C   UNL     1       2.100   7.397  20.197  0.00  0.00    +0.000 A 
ATOM     12  C   UNL     1       1.380   8.574  20.093  0.00  0.00    +0.000 A 
ATOM     13  C   UNL     1       1.334   9.301  18.896  0.00  0.00    +0.000 A 
ATOM     14  C   UNL     1       2.055   8.827  17.803  0.00  0.00    +0.000 A 
ATOM     15  C   UNL     1       2.796   7.638  17.904  0.00  0.00    +0.000 A 
BRANCH  13  16
ATOM     16  O   UNL     1       0.599  10.457  18.750  0.00  0.00    +0.000 OA
BRANCH  16  17
ATOM     17  C   UNL     1      -0.818  10.217  18.771  0.00  0.00    +0.000 C 
BRANCH  17  18
ATOM     18  C   UNL     1      -1.481  10.399  17.407  0.00  0.00    +0.000 C 
BRANCH  18  19
ATOM     19  N   UNL     1      -2.919  10.743  17.521  0.00  0.00    +0.000 NA
ATOM     20  C   UNL     1      -3.774   9.569  17.725  0.00  0.00    +0.000 C 
ATOM     21  C   UNL     1      -3.109  11.688  18.620  0.00  0.00    +0.000 C 
ENDBRANCH  18  19
ENDBRANCH  17  18
ENDBRANCH  16  17
ENDBRANCH  13  16
ENDBRANCH   1  10
BRANCH   1  22
ATOM     22  C   UNL     1       2.588   4.379  19.457  0.00  0.00    +0.000 A 
ATOM     23  C   UNL     1       1.379   4.070  18.855  0.00  0.00    +0.000 A 
ATOM     24  C   UNL     1       0.706   2.985  19.487  0.00  0.00    +0.000 A 
ATOM     25  C   UNL     1       1.450   2.440  20.507  0.00  0.00    +0.000 A 
ATOM     26  S   UNL     1       2.980   3.188  20.650  0.00  0.00    +0.000 S 
ENDBRANCH   1  22
TORSDOF 8
ENDMDL
MODEL 9
REMARK VINA RESULT:      -7.2      1.754      2.693
REMARK  Name = 
REMARK  11 active torsions:
REMARK  status: ('A' for Active; 'I' for Inactive)
REMARK    1  A    between atoms: C_1  and  S_2
REMARK    2  A    between atoms: S_2  and  C_3
REMARK    3  A    between atoms: C_6  and  C_7
REMARK    4  A    between atoms: C_7  and  C_8
REMARK    5  A    between atoms: C_7  and  C_20
REMARK    6  A    between atoms: C_11  and  O_12
REMARK    7  A    between atoms: O_12  and  C_13
REMARK    8  A    between atoms: C_13  and  C_14
REMARK    9  A    between atoms: C_14  and  N_15
REMARK   10  A    between atoms: N_15  and  C_16
REMARK   11  A    between atoms: N_15  and  C_17
REMARK                            x       y       z     vdW  Elec       q    Type
REMARK                         _______ _______ _______ _____ _____    ______ ____
ROOT
ATOM      1  C   UNL     1       3.306   5.706  19.408  0.00  0.00    +0.000 C 
ENDROOT
BRANCH   1   5
ATOM      2  C   UNL     1       5.921   5.116  15.966  0.00  0.00    +0.000 A 
ATOM      3  C   UNL     1       6.108   6.197  16.828  0.00  0.00    +0.000 A 
ATOM      4  C   UNL     1       5.275   6.373  17.939  0.00  0.00    +0.000 A 
ATOM      5  C   UNL     1       4.229   5.476  18.199  0.00  0.00    +0.000 A 
ATOM      6  C   UNL     1       4.041   4.399  17.310  0.00  0.00    +0.000 A 
ATOM      7  C   UNL     1       4.878   4.220  16.205  0.00  0.00    +0.000 A 
BRANCH   2   9
ATOM      8  C   UNL     1       5.912   3.833  13.567  0.00  0.00    +0.000 C 
ATOM      9  S   UNL     1       6.997   4.883  14.568  0.00  0.00    +0.000 S 
ENDBRANCH   2   9
ENDBRANCH   1   5
BRANCH   1  10
ATOM     10  C   UNL     1       2.516   7.003  19.210  0.00  0.00    +0.000 A 
ATOM     11  C   UNL     1       2.486   7.620  17.957  0.00  0.00    +0.000 A 
ATOM     12  C   UNL     1       1.846   8.834  17.787  0.00  0.00    +0.000 A 
ATOM     13  C   UNL     1       1.228   9.492  18.859  0.00  0.00    +0.000 A 
ATOM     14  C   UNL     1       1.245   8.883  20.111  0.00  0.00    +0.000 A 
ATOM     15  C   UNL     1       1.885   7.645  20.289  0.00  0.00    +0.000 A 
BRANCH  13  16
ATOM     16  O   UNL     1       0.612  10.718  18.730  0.00  0.00    +0.000 OA
BRANCH  16  17
ATOM     17  C   UNL     1      -0.649  10.777  19.417  0.00  0.00    +0.000 C 
BRANCH  17  18
ATOM     18  C   UNL     1      -0.885  12.104  20.134  0.00  0.00    +0.000 C 
BRANCH  18  19
ATOM     19  N   UNL     1      -0.107  12.212  21.392  0.00  0.00    +0.000 NA
ATOM     20  C   UNL     1       0.029  13.593  21.865  0.00  0.00    +0.000 C 
ATOM     21  C   UNL     1      -0.741  11.397  22.428  0.00  0.00    +0.000 C 
ENDBRANCH  18  19
ENDBRANCH  17  18
ENDBRANCH  16  17
ENDBRANCH  13  16
ENDBRANCH   1  10
BRANCH   1  22
ATOM     22  C   UNL     1       2.421   4.497  19.744  0.00  0.00    +0.000 A 
ATOM     23  C   UNL     1       1.372   3.943  19.029  0.00  0.00    +0.000 A 
ATOM     24  C   UNL     1       0.682   2.929  19.753  0.00  0.00    +0.000 A 
ATOM     25  C   UNL     1       1.266   2.677  20.973  0.00  0.00    +0.000 A 
ATOM     26  S   UNL     1       2.679   3.608  21.206  0.00  0.00    +0.000 S 
ENDBRANCH   1  22
TORSDOF 8
ENDMDL
