MODEL 1
REMARK VINA RESULT:      -8.7      0.000      0.000
REMARK  Name = 
REMARK  8 active torsions:
REMARK  status: ('A' for Active; 'I' for Inactive)
REMARK    1  A    between atoms: C_2  and  C_3
REMARK    2  A    between atoms: C_6  and  C_7
REMARK    3  A    between atoms: C_7  and  C_16
REMARK    4  A    between atoms: C_8  and  C_10
REMARK    5  A    between atoms: C_19  and  O_20
REMARK    6  A    between atoms: O_20  and  C_21
REMARK    7  A    between atoms: C_21  and  C_22
REMARK    8  A    between atoms: C_22  and  N_23
REMARK                            x       y       z     vdW  Elec       q    Type
REMARK                         _______ _______ _______ _____ _____    ______ ____
ROOT
ATOM      1  C   UNL     1       4.118   4.604  17.510  0.00  0.00    +0.000 C 
ATOM      2  C   UNL     1       3.784   3.402  18.044  0.00  0.00    +0.000 C 
ATOM      3  F   UNL     1       4.302   2.259  17.535  0.00  0.00    +0.000 F 
ENDROOT
BRANCH   1   7
ATOM      4  C   UNL     1       6.967   4.926  14.275  0.00  0.00    +0.000 A 
ATOM      5  C   UNL     1       7.319   5.318  15.563  0.00  0.00    +0.000 A 
ATOM      6  C   UNL     1       6.394   5.198  16.612  0.00  0.00    +0.000 A 
ATOM      7  C   UNL     1       5.105   4.689  16.386  0.00  0.00    +0.000 A 
ATOM      8  C   UNL     1       4.799   4.244  15.086  0.00  0.00    +0.000 A 
ATOM      9  C   UNL     1       5.710   4.376  14.031  0.00  0.00    +0.000 A 
BRANCH   4  11
ATOM     10  O   UNL     1       8.773   5.956  13.145  0.00  0.00    +0.000 OA
ATOM     11  C   UNL     1       7.909   5.088  13.149  0.00  0.00    +0.000 C 
ENDBRANCH   4  11
ENDBRANCH   1   7
BRANCH   2  12
ATOM     12  C   UNL     1       2.848   3.172  19.159  0.00  0.00    +0.000 A 
ATOM     13  C   UNL     1       3.356   2.871  20.427  0.00  0.00    +0.000 A 
ATOM     14  C   UNL     1       2.493   2.698  21.509  0.00  0.00    +0.000 A 
ATOM     15  C   UNL     1       1.117   2.831  21.332  0.00  0.00    +0.000 A 
ATOM     16  C   UNL     1       0.601   3.129  20.071  0.00  0.00    +0.000 A 
ATOM     17  C   UNL     1       1.465   3.300  18.984  0.00  0.00    +0.000 A 
ENDBRANCH   2  12
BRANCH   1  18
ATOM     18  C   UNL     1       3.480   5.800  18.115  0.00  0.00    +0.000 A 
ATOM     19  C   UNL     1       3.397   5.871  19.504  0.00  0.00    +0.000 A 
ATOM     20  C   UNL     1       2.687   6.903  20.110  0.00  0.00    +0.000 A 
ATOM     21  C   UNL     1       2.052   7.892  19.344  0.00  0.00    +0.000 A 
ATOM     22  C   UNL     1       2.169   7.846  17.954  0.00  0.00    +0.000 A 
ATOM     23  C   UNL     1       2.880   6.805  17.340  0.00  0.00    +0.000 A 
BRANCH  21  24
ATOM     24  O   UNL     1       1.299   8.924  19.865  0.00  0.00    +0.000 OA
BRANCH  24  25
ATOM     25  C   UNL     1       1.226  10.056  18.990  0.00  0.00    +0.000 C 
BRANCH  25  26
ATOM     26  C   UNL     1       0.206  11.113  19.427  0.00  0.00    +0.000 C 
BRANCH  26  27
ATOM     27  N   UNL     1      -0.956  11.160  18.505  0.00  0.00    +0.000 NA
ATOM     28  C   UNL     1      -1.072   9.900  17.757  0.00  0.00    +0.000 C 
ATOM     29  C   UNL     1      -2.199   9.973  16.723  0.00  0.00    +0.000 C 
ATOM     30  C   UNL     1      -3.531  10.337  17.368  0.00  0.00    +0.000 C 
ATOM     31  C   UNL     1      -3.383  11.596  18.208  0.00  0.00    +0.000 C 
ATOM     32  C   UNL     1      -2.220  11.475  19.193  0.00  0.00    +0.000 C 
ENDBRANCH  26  27
ENDBRANCH  25  26
ENDBRANCH  24  25
ENDBRANCH  21  24
ENDBRANCH   1  18
TORSDOF 8
ENDMDL
MODEL 2
REMARK VINA RESULT:      -8.6      0.255      1.228
REMARK  Name = 
REMARK  8 active torsions:
REMARK  status: ('A' for Active; 'I' for Inactive)
REMARK    1  A    between atoms: C_2  and  C_3
REMARK    2  A    between atoms: C_6  and  C_7
REMARK    3  A    between atoms: C_7  and  C_16
REMARK    4  A    between atoms: C_8  and  C_10
REMARK    5  A    between atoms: C_19  and  O_20
REMARK    6  A    between atoms: O_20  and  C_21
REMARK    7  A    between atoms: C_21  and  C_22
REMARK    8  A    between atoms: C_22  and  N_23
REMARK                            x       y       z     vdW  Elec       q    Type
REMARK                         _______ _______ _______ _____ _____    ______ ____
ROOT
ATOM      1  C   UNL     1       3.962   4.672  17.641  0.00  0.00    +0.000 C 
ATOM      2  C   UNL     1       3.736   3.466  18.218  0.00  0.00    +0.000 C 
ATOM      3  F   UNL     1       4.372   2.360  17.764  0.00  0.00    +0.000 F 
ENDROOT
BRANCH   1   7
ATOM      4  C   UNL     1       6.845   4.992  14.435  0.00  0.00    +0.000 A 
ATOM      5  C   UNL     1       5.614   4.382  14.214  0.00  0.00    +0.000 A 
ATOM      6  C   UNL     1       4.676   4.294  15.256  0.00  0.00    +0.000 A 
ATOM      7  C   UNL     1       4.959   4.810  16.531  0.00  0.00    +0.000 A 
ATOM      8  C   UNL     1       6.187   5.475  16.706  0.00  0.00    +0.000 A 
ATOM      9  C   UNL     1       7.134   5.553  15.678  0.00  0.00    +0.000 A 
BRANCH   4  11
ATOM     10  O   UNL     1       8.671   5.972  13.292  0.00  0.00    +0.000 OA
ATOM     11  C   UNL     1       7.863   5.054  13.366  0.00  0.00    +0.000 C 
ENDBRANCH   4  11
ENDBRANCH   1   7
BRANCH   2  12
ATOM     12  C   UNL     1       2.805   3.189  19.326  0.00  0.00    +0.000 A 
ATOM     13  C   UNL     1       3.319   2.883  20.591  0.00  0.00    +0.000 A 
ATOM     14  C   UNL     1       2.459   2.665  21.667  0.00  0.00    +0.000 A 
ATOM     15  C   UNL     1       1.080   2.759  21.488  0.00  0.00    +0.000 A 
ATOM     16  C   UNL     1       0.558   3.062  20.230  0.00  0.00    +0.000 A 
ATOM     17  C   UNL     1       1.419   3.278  19.149  0.00  0.00    +0.000 A 
ENDBRANCH   2  12
BRANCH   1  18
ATOM     18  C   UNL     1       3.199   5.823  18.187  0.00  0.00    +0.000 A 
ATOM     19  C   UNL     1       2.726   6.783  17.295  0.00  0.00    +0.000 A 
ATOM     20  C   UNL     1       2.129   7.945  17.773  0.00  0.00    +0.000 A 
ATOM     21  C   UNL     1       1.980   8.171  19.149  0.00  0.00    +0.000 A 
ATOM     22  C   UNL     1       2.416   7.191  20.042  0.00  0.00    +0.000 A 
ATOM     23  C   UNL     1       3.023   6.020  19.565  0.00  0.00    +0.000 A 
BRANCH  21  24
ATOM     24  O   UNL     1       1.434   9.311  19.702  0.00  0.00    +0.000 OA
BRANCH  24  25
ATOM     25  C   UNL     1       1.262  10.365  18.748  0.00  0.00    +0.000 C 
BRANCH  25  26
ATOM     26  C   UNL     1       0.221  11.412  19.162  0.00  0.00    +0.000 C 
BRANCH  26  27
ATOM     27  N   UNL     1      -1.004  11.317  18.330  0.00  0.00    +0.000 NA
ATOM     28  C   UNL     1      -1.090   9.998  17.686  0.00  0.00    +0.000 C 
ATOM     29  C   UNL     1      -2.290   9.922  16.738  0.00  0.00    +0.000 C 
ATOM     30  C   UNL     1      -3.594  10.255  17.455  0.00  0.00    +0.000 C 
ATOM     31  C   UNL     1      -3.469  11.582  18.186  0.00  0.00    +0.000 C 
ATOM     32  C   UNL     1      -2.234  11.608  19.086  0.00  0.00    +0.000 C 
ENDBRANCH  26  27
ENDBRANCH  25  26
ENDBRANCH  24  25
ENDBRANCH  21  24
ENDBRANCH   1  18
TORSDOF 8
ENDMDL
MODEL 3
REMARK VINA RESULT:      -8.5      3.111      8.264
REMARK  Name = 
REMARK  8 active torsions:
REMARK  status: ('A' for Active; 'I' for Inactive)
REMARK    1  A    between atoms: C_2  and  C_3
REMARK    2  A    between atoms: C_6  and  C_7
REMARK    3  A    between atoms: C_7  and  C_16
REMARK    4  A    between atoms: C_8  and  C_10
REMARK    5  A    between atoms: C_19  and  O_20
REMARK    6  A    between atoms: O_20  and  C_21
REMARK    7  A    between atoms: C_21  and  C_22
REMARK    8  A    between atoms: C_22  and  N_23
REMARK                            x       y       z     vdW  Elec       q    Type
REMARK                         _______ _______ _______ _____ _____    ______ ____
ROOT
ATOM      1  C   UNL     1       2.785   6.448  18.877  0.00  0.00    +0.000 C 
ATOM      2  C   UNL     1       2.227   5.288  19.305  0.00  0.00    +0.000 C 
ATOM      3  F   UNL     1       1.110   5.307  20.070  0.00  0.00    +0.000 F 
ENDROOT
BRANCH   1   7
ATOM      4  C   UNL     1       0.868  10.208  19.815  0.00  0.00    +0.000 A 
ATOM      5  C   UNL     1       1.073   9.256  20.810  0.00  0.00    +0.000 A 
ATOM      6  C   UNL     1       1.709   8.043  20.502  0.00  0.00    +0.000 A 
ATOM      7  C   UNL     1       2.143   7.764  19.196  0.00  0.00    +0.000 A 
ATOM      8  C   UNL     1       1.977   8.770  18.225  0.00  0.00    +0.000 A 
ATOM      9  C   UNL     1       1.329   9.976  18.521  0.00  0.00    +0.000 A 
BRANCH   4  11
ATOM     10  O   UNL     1      -0.618  11.979  19.310  0.00  0.00    +0.000 OA
ATOM     11  C   UNL     1       0.159  11.470  20.109  0.00  0.00    +0.000 C 
ENDBRANCH   4  11
ENDBRANCH   1   7
BRANCH   2  12
ATOM     12  C   UNL     1       2.736   3.929  19.049  0.00  0.00    +0.000 A 
ATOM     13  C   UNL     1       2.450   3.310  17.827  0.00  0.00    +0.000 A 
ATOM     14  C   UNL     1       2.961   2.044  17.542  0.00  0.00    +0.000 A 
ATOM     15  C   UNL     1       3.766   1.391  18.473  0.00  0.00    +0.000 A 
ATOM     16  C   UNL     1       4.055   1.999  19.695  0.00  0.00    +0.000 A 
ATOM     17  C   UNL     1       3.542   3.267  19.984  0.00  0.00    +0.000 A 
ENDBRANCH   2  12
BRANCH   1  18
ATOM     18  C   UNL     1       4.023   6.331  18.067  0.00  0.00    +0.000 A 
ATOM     19  C   UNL     1       3.952   6.623  16.707  0.00  0.00    +0.000 A 
ATOM     20  C   UNL     1       5.051   6.394  15.885  0.00  0.00    +0.000 A 
ATOM     21  C   UNL     1       6.248   5.878  16.402  0.00  0.00    +0.000 A 
ATOM     22  C   UNL     1       6.335   5.625  17.772  0.00  0.00    +0.000 A 
ATOM     23  C   UNL     1       5.228   5.850  18.603  0.00  0.00    +0.000 A 
BRANCH  21  24
ATOM     24  O   UNL     1       7.367   5.588  15.649  0.00  0.00    +0.000 OA
BRANCH  24  25
ATOM     25  C   UNL     1       7.129   4.576  14.665  0.00  0.00    +0.000 C 
BRANCH  25  26
ATOM     26  C   UNL     1       7.366   5.043  13.224  0.00  0.00    +0.000 C 
BRANCH  26  27
ATOM     27  N   UNL     1       6.784   4.094  12.243  0.00  0.00    +0.000 NA
ATOM     28  C   UNL     1       7.680   2.947  12.040  0.00  0.00    +0.000 C 
ATOM     29  C   UNL     1       7.146   2.014  10.950  0.00  0.00    +0.000 C 
ATOM     30  C   UNL     1       5.730   1.540  11.260  0.00  0.00    +0.000 C 
ATOM     31  C   UNL     1       4.828   2.730  11.550  0.00  0.00    +0.000 C 
ATOM     32  C   UNL     1       5.433   3.640  12.618  0.00  0.00    +0.000 C 
ENDBRANCH  26  27
ENDBRANCH  25  26
ENDBRANCH  24  25
ENDBRANCH  21  24
ENDBRANCH   1  18
TORSDOF 8
ENDMDL
MODEL 4
REMARK VINA RESULT:      -8.5      0.383      1.257
REMARK  Name = 
REMARK  8 active torsions:
REMARK  status: ('A' for Active; 'I' for Inactive)
REMARK    1  A    between atoms: C_2  and  C_3
REMARK    2  A    between atoms: C_6  and  C_7
REMARK    3  A    between atoms: C_7  and  C_16
REMARK    4  A    between atoms: C_8  and  C_10
REMARK    5  A    between atoms: C_19  and  O_20
REMARK    6  A    between atoms: O_20  and  C_21
REMARK    7  A    between atoms: C_21  and  C_22
REMARK    8  A    between atoms: C_22  and  N_23
REMARK                            x       y       z     vdW  Elec       q    Type
REMARK                         _______ _______ _______ _____ _____    ______ ____
ROOT
ATOM      1  C   UNL     1       3.995   4.602  17.569  0.00  0.00    +0.000 C 
ATOM      2  C   UNL     1       3.743   3.410  18.167  0.00  0.00    +0.000 C 
ATOM      3  F   UNL     1       4.365   2.286  17.740  0.00  0.00    +0.000 F 
ENDROOT
BRANCH   1   7
ATOM      4  C   UNL     1       6.906   4.967  14.394  0.00  0.00    +0.000 A 
ATOM      5  C   UNL     1       7.212   5.399  15.681  0.00  0.00    +0.000 A 
ATOM      6  C   UNL     1       6.267   5.265  16.710  0.00  0.00    +0.000 A 
ATOM      7  C   UNL     1       5.005   4.702  16.467  0.00  0.00    +0.000 A 
ATOM      8  C   UNL     1       4.747   4.218  15.170  0.00  0.00    +0.000 A 
ATOM      9  C   UNL     1       5.677   4.363  14.133  0.00  0.00    +0.000 A 
BRANCH   4  11
ATOM     10  O   UNL     1       8.709   6.032  13.292  0.00  0.00    +0.000 OA
ATOM     11  C   UNL     1       7.868   5.141  13.287  0.00  0.00    +0.000 C 
ENDBRANCH   4  11
ENDBRANCH   1   7
BRANCH   2  12
ATOM     12  C   UNL     1       2.797   3.170  19.270  0.00  0.00    +0.000 A 
ATOM     13  C   UNL     1       3.292   2.924  20.555  0.00  0.00    +0.000 A 
ATOM     14  C   UNL     1       2.416   2.742  21.625  0.00  0.00    +0.000 A 
ATOM     15  C   UNL     1       1.040   2.813  21.420  0.00  0.00    +0.000 A 
ATOM     16  C   UNL     1       0.536   3.056  20.142  0.00  0.00    +0.000 A 
ATOM     17  C   UNL     1       1.413   3.235  19.067  0.00  0.00    +0.000 A 
ENDBRANCH   2  12
BRANCH   1  18
ATOM     18  C   UNL     1       3.246   5.775  18.085  0.00  0.00    +0.000 A 
ATOM     19  C   UNL     1       2.943   6.806  17.199  0.00  0.00    +0.000 A 
ATOM     20  C   UNL     1       2.366   7.983  17.667  0.00  0.00    +0.000 A 
ATOM     21  C   UNL     1       2.070   8.153  19.027  0.00  0.00    +0.000 A 
ATOM     22  C   UNL     1       2.334   7.105  19.910  0.00  0.00    +0.000 A 
ATOM     23  C   UNL     1       2.919   5.919  19.443  0.00  0.00    +0.000 A 
BRANCH  21  24
ATOM     24  O   UNL     1       1.534   9.300  19.575  0.00  0.00    +0.000 OA
BRANCH  24  25
ATOM     25  C   UNL     1       1.358  10.347  18.613  0.00  0.00    +0.000 C 
BRANCH  25  26
ATOM     26  C   UNL     1       0.384  11.444  19.060  0.00  0.00    +0.000 C 
BRANCH  26  27
ATOM     27  N   UNL     1      -1.027  11.022  18.881  0.00  0.00    +0.000 NA
ATOM     28  C   UNL     1      -1.915  12.193  18.855  0.00  0.00    +0.000 C 
ATOM     29  C   UNL     1      -3.386  11.771  18.780  0.00  0.00    +0.000 C 
ATOM     30  C   UNL     1      -3.651  10.870  17.579  0.00  0.00    +0.000 C 
ATOM     31  C   UNL     1      -2.673   9.705  17.568  0.00  0.00    +0.000 C 
ATOM     32  C   UNL     1      -1.228  10.190  17.682  0.00  0.00    +0.000 C 
ENDBRANCH  26  27
ENDBRANCH  25  26
ENDBRANCH  24  25
ENDBRANCH  21  24
ENDBRANCH   1  18
TORSDOF 8
ENDMDL
MODEL 5
REMARK VINA RESULT:      -8.4      0.474      1.298
REMARK  Name = 
REMARK  8 active torsions:
REMARK  status: ('A' for Active; 'I' for Inactive)
REMARK    1  A    between atoms: C_2  and  C_3
REMARK    2  A    between atoms: C_6  and  C_7
REMARK    3  A    between atoms: C_7  and  C_16
REMARK    4  A    between atoms: C_8  and  C_10
REMARK    5  A    between atoms: C_19  and  O_20
REMARK    6  A    between atoms: O_20  and  C_21
REMARK    7  A    between atoms: C_21  and  C_22
REMARK    8  A    between atoms: C_22  and  N_23
REMARK                            x       y       z     vdW  Elec       q    Type
REMARK                         _______ _______ _______ _____ _____    ______ ____
ROOT
ATOM      1  C   UNL     1       4.123   4.614  17.560  0.00  0.00    +0.000 C 
ATOM      2  C   UNL     1       3.810   3.424  18.131  0.00  0.00    +0.000 C 
ATOM      3  F   UNL     1       4.335   2.274  17.645  0.00  0.00    +0.000 F 
ENDROOT
BRANCH   1   7
ATOM      4  C   UNL     1       6.922   4.883  14.277  0.00  0.00    +0.000 A 
ATOM      5  C   UNL     1       7.277   5.342  15.542  0.00  0.00    +0.000 A 
ATOM      6  C   UNL     1       6.368   5.238  16.607  0.00  0.00    +0.000 A 
ATOM      7  C   UNL     1       5.094   4.681  16.421  0.00  0.00    +0.000 A 
ATOM      8  C   UNL     1       4.786   4.170  15.145  0.00  0.00    +0.000 A 
ATOM      9  C   UNL     1       5.680   4.284  14.074  0.00  0.00    +0.000 A 
BRANCH   4  11
ATOM     10  O   UNL     1       7.529   4.688  11.998  0.00  0.00    +0.000 OA
ATOM     11  C   UNL     1       7.846   5.024  13.133  0.00  0.00    +0.000 C 
ENDBRANCH   4  11
ENDBRANCH   1   7
BRANCH   2  12
ATOM     12  C   UNL     1       2.893   3.213  19.264  0.00  0.00    +0.000 A 
ATOM     13  C   UNL     1       1.512   3.263  19.045  0.00  0.00    +0.000 A 
ATOM     14  C   UNL     1       0.623   3.018  20.091  0.00  0.00    +0.000 A 
ATOM     15  C   UNL     1       1.108   2.715  21.362  0.00  0.00    +0.000 A 
ATOM     16  C   UNL     1       2.483   2.664  21.591  0.00  0.00    +0.000 A 
ATOM     17  C   UNL     1       3.376   2.912  20.543  0.00  0.00    +0.000 A 
ENDBRANCH   2  12
BRANCH   1  18
ATOM     18  C   UNL     1       3.479   5.818  18.142  0.00  0.00    +0.000 A 
ATOM     19  C   UNL     1       3.322   5.879  19.525  0.00  0.00    +0.000 A 
ATOM     20  C   UNL     1       2.603   6.921  20.102  0.00  0.00    +0.000 A 
ATOM     21  C   UNL     1       2.032   7.931  19.313  0.00  0.00    +0.000 A 
ATOM     22  C   UNL     1       2.224   7.895  17.931  0.00  0.00    +0.000 A 
ATOM     23  C   UNL     1       2.945   6.844  17.345  0.00  0.00    +0.000 A 
BRANCH  21  24
ATOM     24  O   UNL     1       1.275   8.975  19.803  0.00  0.00    +0.000 OA
BRANCH  24  25
ATOM     25  C   UNL     1       1.208  10.085  18.900  0.00  0.00    +0.000 C 
BRANCH  25  26
ATOM     26  C   UNL     1       0.251  11.195  19.351  0.00  0.00    +0.000 C 
BRANCH  26  27
ATOM     27  N   UNL     1      -1.155  10.875  19.002  0.00  0.00    +0.000 NA
ATOM     28  C   UNL     1      -1.968  12.099  18.962  0.00  0.00    +0.000 C 
ATOM     29  C   UNL     1      -3.444  11.775  18.711  0.00  0.00    +0.000 C 
ATOM     30  C   UNL     1      -3.631  10.963  17.433  0.00  0.00    +0.000 C 
ATOM     31  C   UNL     1      -2.726   9.742  17.447  0.00  0.00    +0.000 C 
ATOM     32  C   UNL     1      -1.276  10.128  17.738  0.00  0.00    +0.000 C 
ENDBRANCH  26  27
ENDBRANCH  25  26
ENDBRANCH  24  25
ENDBRANCH  21  24
ENDBRANCH   1  18
TORSDOF 8
ENDMDL
MODEL 6
REMARK VINA RESULT:      -8.2      1.022      1.510
REMARK  Name = 
REMARK  8 active torsions:
REMARK  status: ('A' for Active; 'I' for Inactive)
REMARK    1  A    between atoms: C_2  and  C_3
REMARK    2  A    between atoms: C_6  and  C_7
REMARK    3  A    between atoms: C_7  and  C_16
REMARK    4  A    between atoms: C_8  and  C_10
REMARK    5  A    between atoms: C_19  and  O_20
REMARK    6  A    between atoms: O_20  and  C_21
REMARK    7  A    between atoms: C_21  and  C_22
REMARK    8  A    between atoms: C_22  and  N_23
REMARK                            x       y       z     vdW  Elec       q    Type
REMARK                         _______ _______ _______ _____ _____    ______ ____
ROOT
ATOM      1  C   UNL     1       4.121   4.611  17.506  0.00  0.00    +0.000 C 
ATOM      2  C   UNL     1       3.779   3.404  18.022  0.00  0.00    +0.000 C 
ATOM      3  F   UNL     1       4.294   2.266  17.500  0.00  0.00    +0.000 F 
ENDROOT
BRANCH   1   7
ATOM      4  C   UNL     1       6.979   4.964  14.282  0.00  0.00    +0.000 A 
ATOM      5  C   UNL     1       7.253   5.522  15.528  0.00  0.00    +0.000 A 
ATOM      6  C   UNL     1       6.326   5.391  16.575  0.00  0.00    +0.000 A 
ATOM      7  C   UNL     1       5.115   4.707  16.389  0.00  0.00    +0.000 A 
ATOM      8  C   UNL     1       4.894   4.101  15.137  0.00  0.00    +0.000 A 
ATOM      9  C   UNL     1       5.805   4.241  14.083  0.00  0.00    +0.000 A 
BRANCH   4  11
ATOM     10  O   UNL     1       8.831   5.948  13.184  0.00  0.00    +0.000 OA
ATOM     11  C   UNL     1       7.919   5.130  13.155  0.00  0.00    +0.000 C 
ENDBRANCH   4  11
ENDBRANCH   1   7
BRANCH   2  12
ATOM     12  C   UNL     1       2.836   3.163  19.129  0.00  0.00    +0.000 A 
ATOM     13  C   UNL     1       3.336   2.862  20.400  0.00  0.00    +0.000 A 
ATOM     14  C   UNL     1       2.466   2.678  21.474  0.00  0.00    +0.000 A 
ATOM     15  C   UNL     1       1.090   2.802  21.287  0.00  0.00    +0.000 A 
ATOM     16  C   UNL     1       0.582   3.100  20.022  0.00  0.00    +0.000 A 
ATOM     17  C   UNL     1       1.453   3.282  18.943  0.00  0.00    +0.000 A 
ENDBRANCH   2  12
BRANCH   1  18
ATOM     18  C   UNL     1       3.486   5.802  18.125  0.00  0.00    +0.000 A 
ATOM     19  C   UNL     1       3.315   5.815  19.507  0.00  0.00    +0.000 A 
ATOM     20  C   UNL     1       2.602   6.844  20.113  0.00  0.00    +0.000 A 
ATOM     21  C   UNL     1       2.052   7.889  19.356  0.00  0.00    +0.000 A 
ATOM     22  C   UNL     1       2.258   7.900  17.975  0.00  0.00    +0.000 A 
ATOM     23  C   UNL     1       2.972   6.861  17.360  0.00  0.00    +0.000 A 
BRANCH  21  24
ATOM     24  O   UNL     1       1.302   8.924  19.875  0.00  0.00    +0.000 OA
BRANCH  24  25
ATOM     25  C   UNL     1       0.839   9.833  18.870  0.00  0.00    +0.000 C 
BRANCH  25  26
ATOM     26  C   UNL     1       1.210  11.297  19.139  0.00  0.00    +0.000 C 
BRANCH  26  27
ATOM     27  N   UNL     1       0.044  12.070  19.633  0.00  0.00    +0.000 NA
ATOM     28  C   UNL     1      -1.211  11.383  19.295  0.00  0.00    +0.000 C 
ATOM     29  C   UNL     1      -2.427  12.222  19.700  0.00  0.00    +0.000 C 
ATOM     30  C   UNL     1      -2.393  12.580  21.182  0.00  0.00    +0.000 C 
ATOM     31  C   UNL     1      -1.059  13.215  21.541  0.00  0.00    +0.000 C 
ATOM     32  C   UNL     1       0.112  12.349  21.078  0.00  0.00    +0.000 C 
ENDBRANCH  26  27
ENDBRANCH  25  26
ENDBRANCH  24  25
ENDBRANCH  21  24
ENDBRANCH   1  18
TORSDOF 8
ENDMDL
MODEL 7
REMARK VINA RESULT:      -8.2      0.557      1.373
REMARK  Name = 
REMARK  8 active torsions:
REMARK  status: ('A' for Active; 'I' for Inactive)
REMARK    1  A    between atoms: C_2  and  C_3
REMARK    2  A    between atoms: C_6  and  C_7
REMARK    3  A    between atoms: C_7  and  C_16
REMARK    4  A    between atoms: C_8  and  C_10
REMARK    5  A    between atoms: C_19  and  O_20
REMARK    6  A    between atoms: O_20  and  C_21
REMARK    7  A    between atoms: C_21  and  C_22
REMARK    8  A    between atoms: C_22  and  N_23
REMARK                            x       y       z     vdW  Elec       q    Type
REMARK                         _______ _______ _______ _____ _____    ______ ____
ROOT
ATOM      1  C   UNL     1       4.102   4.744  17.589  0.00  0.00    +0.000 C 
ATOM      2  C   UNL     1       3.803   3.533  18.120  0.00  0.00    +0.000 C 
ATOM      3  F   UNL     1       4.344   2.405  17.602  0.00  0.00    +0.000 F 
ENDROOT
BRANCH   1   7
ATOM      4  C   UNL     1       6.921   4.998  14.321  0.00  0.00    +0.000 A 
ATOM      5  C   UNL     1       5.664   4.435  14.122  0.00  0.00    +0.000 A 
ATOM      6  C   UNL     1       4.748   4.369  15.184  0.00  0.00    +0.000 A 
ATOM      7  C   UNL     1       5.078   4.859  16.458  0.00  0.00    +0.000 A 
ATOM      8  C   UNL     1       6.333   5.477  16.612  0.00  0.00    +0.000 A 
ATOM      9  C   UNL     1       7.259   5.533  15.563  0.00  0.00    +0.000 A 
BRANCH   4  11
ATOM     10  O   UNL     1       8.779   5.903  13.168  0.00  0.00    +0.000 OA
ATOM     11  C   UNL     1       7.917   5.036  13.230  0.00  0.00    +0.000 C 
ENDBRANCH   4  11
ENDBRANCH   1   7
BRANCH   2  12
ATOM     12  C   UNL     1       2.882   3.275  19.242  0.00  0.00    +0.000 A 
ATOM     13  C   UNL     1       1.502   3.319  19.018  0.00  0.00    +0.000 A 
ATOM     14  C   UNL     1       0.611   3.031  20.051  0.00  0.00    +0.000 A 
ATOM     15  C   UNL     1       1.093   2.689  21.313  0.00  0.00    +0.000 A 
ATOM     16  C   UNL     1       2.468   2.643  21.547  0.00  0.00    +0.000 A 
ATOM     17  C   UNL     1       3.363   2.935  20.512  0.00  0.00    +0.000 A 
ENDBRANCH   2  12
BRANCH   1  18
ATOM     18  C   UNL     1       3.440   5.921  18.205  0.00  0.00    +0.000 A 
ATOM     19  C   UNL     1       3.239   5.919  19.583  0.00  0.00    +0.000 A 
ATOM     20  C   UNL     1       2.501   6.934  20.184  0.00  0.00    +0.000 A 
ATOM     21  C   UNL     1       1.957   7.980  19.425  0.00  0.00    +0.000 A 
ATOM     22  C   UNL     1       2.193   8.007  18.049  0.00  0.00    +0.000 A 
ATOM     23  C   UNL     1       2.932   6.983  17.439  0.00  0.00    +0.000 A 
BRANCH  21  24
ATOM     24  O   UNL     1       1.184   9.001  19.938  0.00  0.00    +0.000 OA
BRANCH  24  25
ATOM     25  C   UNL     1       1.086  10.123  19.052  0.00  0.00    +0.000 C 
BRANCH  25  26
ATOM     26  C   UNL     1       0.599  11.409  19.731  0.00  0.00    +0.000 C 
BRANCH  26  27
ATOM     27  N   UNL     1      -0.718  11.838  19.200  0.00  0.00    +0.000 NA
ATOM     28  C   UNL     1      -1.189  10.901  18.170  0.00  0.00    +0.000 C 
ATOM     29  C   UNL     1      -2.494  11.389  17.534  0.00  0.00    +0.000 C 
ATOM     30  C   UNL     1      -3.577  11.621  18.583  0.00  0.00    +0.000 C 
ATOM     31  C   UNL     1      -3.054  12.524  19.688  0.00  0.00    +0.000 C 
ATOM     32  C   UNL     1      -1.733  12.005  20.255  0.00  0.00    +0.000 C 
ENDBRANCH  26  27
ENDBRANCH  25  26
ENDBRANCH  24  25
ENDBRANCH  21  24
ENDBRANCH   1  18
TORSDOF 8
ENDMDL
MODEL 8
REMARK VINA RESULT:      -8.2      3.108      8.184
REMARK  Name = 
REMARK  8 active torsions:
REMARK  status: ('A' for Active; 'I' for Inactive)
REMARK    1  A    between atoms: C_2  and  C_3
REMARK    2  A    between atoms: C_6  and  C_7
REMARK    3  A    between atoms: C_7  and  C_16
REMARK    4  A    between atoms: C_8  and  C_10
REMARK    5  A    between atoms: C_19  and  O_20
REMARK    6  A    between atoms: O_20  and  C_21
REMARK    7  A    between atoms: C_21  and  C_22
REMARK    8  A    between atoms: C_22  and  N_23
REMARK                            x       y       z     vdW  Elec       q    Type
REMARK                         _______ _______ _______ _____ _____    ______ ____
ROOT
ATOM      1  C   UNL     1       2.365   6.442  19.676  0.00  0.00    +0.000 C 
ATOM      2  C   UNL     1       1.780   5.230  19.849  0.00  0.00    +0.000 C 
ATOM      3  F   UNL     1       0.629   5.121  20.553  0.00  0.00    +0.000 F 
ENDROOT
BRANCH   1   7
ATOM      4  C   UNL     1       0.563  10.063  21.202  0.00  0.00    +0.000 A 
ATOM      5  C   UNL     1       0.804   9.918  19.839  0.00  0.00    +0.000 A 
ATOM      6  C   UNL     1       1.377   8.734  19.348  0.00  0.00    +0.000 A 
ATOM      7  C   UNL     1       1.719   7.683  20.212  0.00  0.00    +0.000 A 
ATOM      8  C   UNL     1       1.407   7.833  21.577  0.00  0.00    +0.000 A 
ATOM      9  C   UNL     1       0.852   9.017  22.077  0.00  0.00    +0.000 A 
BRANCH   4  11
ATOM     10  O   UNL     1       0.541  12.403  21.554  0.00  0.00    +0.000 OA
ATOM     11  C   UNL     1       0.004  11.318  21.745  0.00  0.00    +0.000 C 
ENDBRANCH   4  11
ENDBRANCH   1   7
BRANCH   2  12
ATOM     12  C   UNL     1       2.289   3.937  19.360  0.00  0.00    +0.000 A 
ATOM     13  C   UNL     1       2.045   3.562  18.034  0.00  0.00    +0.000 A 
ATOM     14  C   UNL     1       2.558   2.366  17.534  0.00  0.00    +0.000 A 
ATOM     15  C   UNL     1       3.325   1.539  18.353  0.00  0.00    +0.000 A 
ATOM     16  C   UNL     1       3.573   1.904  19.677  0.00  0.00    +0.000 A 
ATOM     17  C   UNL     1       3.057   3.102  20.181  0.00  0.00    +0.000 A 
ENDBRANCH   2  12
BRANCH   1  18
ATOM     18  C   UNL     1       3.639   6.461  18.914  0.00  0.00    +0.000 A 
ATOM     19  C   UNL     1       3.632   7.001  17.630  0.00  0.00    +0.000 A 
ATOM     20  C   UNL     1       4.766   6.915  16.829  0.00  0.00    +0.000 A 
ATOM     21  C   UNL     1       5.936   6.297  17.294  0.00  0.00    +0.000 A 
ATOM     22  C   UNL     1       5.959   5.793  18.595  0.00  0.00    +0.000 A 
ATOM     23  C   UNL     1       4.816   5.874  19.404  0.00  0.00    +0.000 A 
BRANCH  21  24
ATOM     24  O   UNL     1       7.088   6.138  16.551  0.00  0.00    +0.000 OA
BRANCH  24  25
ATOM     25  C   UNL     1       7.417   4.762  16.324  0.00  0.00    +0.000 C 
BRANCH  25  26
ATOM     26  C   UNL     1       6.316   3.971  15.607  0.00  0.00    +0.000 C 
BRANCH  26  27
ATOM     27  N   UNL     1       6.300   4.261  14.151  0.00  0.00    +0.000 NA
ATOM     28  C   UNL     1       7.593   4.811  13.720  0.00  0.00    +0.000 C 
ATOM     29  C   UNL     1       7.556   5.218  12.244  0.00  0.00    +0.000 C 
ATOM     30  C   UNL     1       7.145   4.053  11.351  0.00  0.00    +0.000 C 
ATOM     31  C   UNL     1       5.849   3.436  11.853  0.00  0.00    +0.000 C 
ATOM     32  C   UNL     1       5.937   3.087  13.338  0.00  0.00    +0.000 C 
ENDBRANCH  26  27
ENDBRANCH  25  26
ENDBRANCH  24  25
ENDBRANCH  21  24
ENDBRANCH   1  18
TORSDOF 8
ENDMDL
MODEL 9
REMARK VINA RESULT:      -8.1      3.129      8.094
REMARK  Name = 
REMARK  8 active torsions:
REMARK  status: ('A' for Active; 'I' for Inactive)
REMARK    1  A    between atoms: C_2  and  C_3
REMARK    2  A    between atoms: C_6  and  C_7
REMARK    3  A    between atoms: C_7  and  C_16
REMARK    4  A    between atoms: C_8  and  C_10
REMARK    5  A    between atoms: C_19  and  O_20
REMARK    6  A    between atoms: O_20  and  C_21
REMARK    7  A    between atoms: C_21  and  C_22
REMARK    8  A    between atoms: C_22  and  N_23
REMARK                            x       y       z     vdW  Elec       q    Type
REMARK                         _______ _______ _______ _____ _____    ______ ____
ROOT
ATOM      1  C   UNL     1       2.508   6.479  19.572  0.00  0.00    +0.000 C 
ATOM      2  C   UNL     1       1.935   5.268  19.786  0.00  0.00    +0.000 C 
ATOM      3  F   UNL     1       0.797   5.169  20.513  0.00  0.00    +0.000 F 
ENDROOT
BRANCH   1   7
ATOM      4  C   UNL     1       0.586  10.043  21.084  0.00  0.00    +0.000 A 
ATOM      5  C   UNL     1       0.997   9.041  21.959  0.00  0.00    +0.000 A 
ATOM      6  C   UNL     1       1.633   7.893  21.463  0.00  0.00    +0.000 A 
ATOM      7  C   UNL     1       1.863   7.728  20.087  0.00  0.00    +0.000 A 
ATOM      8  C   UNL     1       1.491   8.785  19.234  0.00  0.00    +0.000 A 
ATOM      9  C   UNL     1       0.841   9.927  19.719  0.00  0.00    +0.000 A 
BRANCH   4  11
ATOM     10  O   UNL     1       0.444  12.308  21.755  0.00  0.00    +0.000 OA
ATOM     11  C   UNL     1      -0.127  11.238  21.581  0.00  0.00    +0.000 C 
ENDBRANCH   4  11
ENDBRANCH   1   7
BRANCH   2  12
ATOM     12  C   UNL     1       2.445   3.966  19.322  0.00  0.00    +0.000 A 
ATOM     13  C   UNL     1       2.162   3.546  18.018  0.00  0.00    +0.000 A 
ATOM     14  C   UNL     1       2.675   2.340  17.539  0.00  0.00    +0.000 A 
ATOM     15  C   UNL     1       3.479   1.550  18.358  0.00  0.00    +0.000 A 
ATOM     16  C   UNL     1       3.765   1.960  19.660  0.00  0.00    +0.000 A 
ATOM     17  C   UNL     1       3.250   3.167  20.143  0.00  0.00    +0.000 A 
ENDBRANCH   2  12
BRANCH   1  18
ATOM     18  C   UNL     1       3.768   6.487  18.787  0.00  0.00    +0.000 A 
ATOM     19  C   UNL     1       3.731   6.978  17.484  0.00  0.00    +0.000 A 
ATOM     20  C   UNL     1       4.853   6.877  16.667  0.00  0.00    +0.000 A 
ATOM     21  C   UNL     1       6.039   6.294  17.134  0.00  0.00    +0.000 A 
ATOM     22  C   UNL     1       6.092   5.839  18.453  0.00  0.00    +0.000 A 
ATOM     23  C   UNL     1       4.962   5.935  19.278  0.00  0.00    +0.000 A 
BRANCH  21  24
ATOM     24  O   UNL     1       7.180   6.122  16.377  0.00  0.00    +0.000 OA
BRANCH  24  25
ATOM     25  C   UNL     1       7.446   4.748  16.075  0.00  0.00    +0.000 C 
BRANCH  25  26
ATOM     26  C   UNL     1       6.224   3.980  15.556  0.00  0.00    +0.000 C 
BRANCH  26  27
ATOM     27  N   UNL     1       6.353   3.668  14.111  0.00  0.00    +0.000 NA
ATOM     28  C   UNL     1       5.028   3.610  13.476  0.00  0.00    +0.000 C 
ATOM     29  C   UNL     1       5.135   3.182  12.010  0.00  0.00    +0.000 C 
ATOM     30  C   UNL     1       6.067   4.098  11.224  0.00  0.00    +0.000 C 
ATOM     31  C   UNL     1       7.408   4.219  11.931  0.00  0.00    +0.000 C 
ATOM     32  C   UNL     1       7.231   4.612  13.398  0.00  0.00    +0.000 C 
ENDBRANCH  26  27
ENDBRANCH  25  26
ENDBRANCH  24  25
ENDBRANCH  21  24
ENDBRANCH   1  18
TORSDOF 8
ENDMDL
