MODEL 1
REMARK VINA RESULT:      -7.2      0.000      0.000
REMARK  Name = 
REMARK  7 active torsions:
REMARK  status: ('A' for Active; 'I' for Inactive)
REMARK    1  A    between atoms: C_1  and  N_2
REMARK    2  A    between atoms: C_3  and  N_4
REMARK    3  A    between atoms: C_9  and  C_10
REMARK    4  A    between atoms: N_14  and  N_15
REMARK    5  A    between atoms: C_16  and  C_17
REMARK    6  A    between atoms: C_20  and  O_21
REMARK    7  A    between atoms: C_22  and  O_23
REMARK                            x       y       z     vdW  Elec       q    Type
REMARK                         _______ _______ _______ _____ _____    ______ ____
ROOT
ATOM      1  C   UNL     1       0.795   9.779  19.325  0.00  0.00    +0.000 A 
ATOM      2  N   UNL     1       0.942   9.101  20.441  0.00  0.00    +0.000 NA
ATOM      3  N   UNL     1       1.736   7.990  20.279  0.00  0.00    +0.000 NA
ATOM      4  C   UNL     1       2.182   7.855  19.046  0.00  0.00    +0.000 A 
ATOM      5  N   UNL     1       3.007   6.874  18.594  0.00  0.00    +0.000 N 
ATOM      6  S   UNL     1       1.653   9.115  17.994  0.00  0.00    +0.000 S 
ATOM      7  H   UNL     1       3.241   6.892  17.603  0.00  0.00    +0.000 HD
ENDROOT
BRANCH   1  13
ATOM      8  C   UNL     1       1.755  12.576  20.008  0.00  0.00    +0.000 C 
ATOM      9  N   UNL     1       0.417  12.261  19.552  0.00  0.00    +0.000 N 
ATOM     10  C   UNL     1      -0.659  13.088  19.338  0.00  0.00    +0.000 A 
ATOM     11  C   UNL     1      -1.678  12.284  18.894  0.00  0.00    +0.000 A 
ATOM     12  N   UNL     1      -1.266  10.982  18.822  0.00  0.00    +0.000 NA
ATOM     13  C   UNL     1      -0.007  10.971  19.229  0.00  0.00    +0.000 A 
BRANCH  10  14
ATOM     14  N   UNL     1      -0.721  14.499  19.536  0.00  0.00    +0.000 N 
ATOM     15  O   UNL     1      -0.299  15.239  18.647  0.00  0.00    +0.000 OA
ATOM     16  O   UNL     1      -1.202  14.876  20.611  0.00  0.00    +0.000 OA
ENDBRANCH  10  14
ENDBRANCH   1  13
BRANCH   5  17
ATOM     17  N   UNL     1       3.111   5.673  19.226  0.00  0.00    +0.000 NA
ATOM     18  C   UNL     1       3.897   4.766  18.723  0.00  0.00    +0.000 C 
BRANCH  18  19
ATOM     19  C   UNL     1       4.850   4.874  17.599  0.00  0.00    +0.000 A 
ATOM     20  C   UNL     1       4.724   4.097  16.439  0.00  0.00    +0.000 A 
ATOM     21  C   UNL     1       5.652   4.217  15.402  0.00  0.00    +0.000 A 
ATOM     22  C   UNL     1       6.679   5.142  15.523  0.00  0.00    +0.000 A 
ATOM     23  C   UNL     1       6.770   5.953  16.653  0.00  0.00    +0.000 A 
ATOM     24  C   UNL     1       5.862   5.833  17.696  0.00  0.00    +0.000 A 
BRANCH  22  25
ATOM     25  O   UNL     1       7.624   5.301  14.548  0.00  0.00    +0.000 OA
ATOM     26  H   UNL     1       7.259   5.883  13.860  0.00  0.00    +0.000 HD
ENDBRANCH  22  25
BRANCH  23  27
ATOM     27  O   UNL     1       7.767   6.881  16.746  0.00  0.00    +0.000 OA
ATOM     28  H   UNL     1       7.486   7.476  17.471  0.00  0.00    +0.000 HD
ENDBRANCH  23  27
ENDBRANCH  18  19
ENDBRANCH   5  17
TORSDOF 6
ENDMDL
MODEL 2
REMARK VINA RESULT:      -7.2      3.622      4.664
REMARK  Name = 
REMARK  7 active torsions:
REMARK  status: ('A' for Active; 'I' for Inactive)
REMARK    1  A    between atoms: C_1  and  N_2
REMARK    2  A    between atoms: C_3  and  N_4
REMARK    3  A    between atoms: C_9  and  C_10
REMARK    4  A    between atoms: N_14  and  N_15
REMARK    5  A    between atoms: C_16  and  C_17
REMARK    6  A    between atoms: C_20  and  O_21
REMARK    7  A    between atoms: C_22  and  O_23
REMARK                            x       y       z     vdW  Elec       q    Type
REMARK                         _______ _______ _______ _____ _____    ______ ____
ROOT
ATOM      1  C   UNL     1      -0.371  11.414  19.787  0.00  0.00    +0.000 A 
ATOM      2  N   UNL     1       0.836  11.877  19.545  0.00  0.00    +0.000 NA
ATOM      3  N   UNL     1       1.575  11.026  18.758  0.00  0.00    +0.000 NA
ATOM      4  C   UNL     1       0.910   9.941  18.412  0.00  0.00    +0.000 A 
ATOM      5  N   UNL     1       1.369   8.938  17.618  0.00  0.00    +0.000 N 
ATOM      6  S   UNL     1      -0.699   9.907  19.033  0.00  0.00    +0.000 S 
ATOM      7  H   UNL     1       0.742   8.151  17.464  0.00  0.00    +0.000 HD
ENDROOT
BRANCH   1  13
ATOM      8  C   UNL     1      -0.845  10.886  22.737  0.00  0.00    +0.000 C 
ATOM      9  N   UNL     1      -1.568  11.869  21.958  0.00  0.00    +0.000 N 
ATOM     10  C   UNL     1      -2.569  12.733  22.336  0.00  0.00    +0.000 A 
ATOM     11  C   UNL     1      -2.891  13.458  21.218  0.00  0.00    +0.000 A 
ATOM     12  N   UNL     1      -2.119  13.075  20.157  0.00  0.00    +0.000 NA
ATOM     13  C   UNL     1      -1.331  12.111  20.604  0.00  0.00    +0.000 A 
BRANCH  10  14
ATOM     14  N   UNL     1      -3.164  12.857  23.626  0.00  0.00    +0.000 N 
ATOM     15  O   UNL     1      -3.853  11.929  24.050  0.00  0.00    +0.000 OA
ATOM     16  O   UNL     1      -2.937  13.913  24.229  0.00  0.00    +0.000 OA
ENDBRANCH  10  14
ENDBRANCH   1  13
BRANCH   5  17
ATOM     17  N   UNL     1       2.699   8.703  17.453  0.00  0.00    +0.000 NA
ATOM     18  C   UNL     1       3.221   7.645  18.004  0.00  0.00    +0.000 C 
BRANCH  18  19
ATOM     19  C   UNL     1       2.551   6.526  18.698  0.00  0.00    +0.000 A 
ATOM     20  C   UNL     1       2.201   6.594  20.054  0.00  0.00    +0.000 A 
ATOM     21  C   UNL     1       1.580   5.510  20.680  0.00  0.00    +0.000 A 
ATOM     22  C   UNL     1       1.283   4.381  19.931  0.00  0.00    +0.000 A 
ATOM     23  C   UNL     1       1.583   4.337  18.570  0.00  0.00    +0.000 A 
ATOM     24  C   UNL     1       2.212   5.402  17.940  0.00  0.00    +0.000 A 
BRANCH  22  25
ATOM     25  O   UNL     1       0.686   3.284  20.486  0.00  0.00    +0.000 OA
ATOM     26  H   UNL     1       1.315   2.875  21.105  0.00  0.00    +0.000 HD
ENDBRANCH  22  25
BRANCH  23  27
ATOM     27  O   UNL     1       1.258   3.232  17.837  0.00  0.00    +0.000 OA
ATOM     28  H   UNL     1       2.073   3.013  17.343  0.00  0.00    +0.000 HD
ENDBRANCH  23  27
ENDBRANCH  18  19
ENDBRANCH   5  17
TORSDOF 6
ENDMDL
MODEL 3
REMARK VINA RESULT:      -7.1      2.555      9.414
REMARK  Name = 
REMARK  7 active torsions:
REMARK  status: ('A' for Active; 'I' for Inactive)
REMARK    1  A    between atoms: C_1  and  N_2
REMARK    2  A    between atoms: C_3  and  N_4
REMARK    3  A    between atoms: C_9  and  C_10
REMARK    4  A    between atoms: N_14  and  N_15
REMARK    5  A    between atoms: C_16  and  C_17
REMARK    6  A    between atoms: C_20  and  O_21
REMARK    7  A    between atoms: C_22  and  O_23
REMARK                            x       y       z     vdW  Elec       q    Type
REMARK                         _______ _______ _______ _____ _____    ______ ____
ROOT
ATOM      1  C   UNL     1       3.259   6.723  18.354  0.00  0.00    +0.000 A 
ATOM      2  N   UNL     1       2.773   6.676  19.575  0.00  0.00    +0.000 NA
ATOM      3  N   UNL     1       1.948   7.741  19.852  0.00  0.00    +0.000 NA
ATOM      4  C   UNL     1       1.819   8.567  18.833  0.00  0.00    +0.000 A 
ATOM      5  N   UNL     1       1.050   9.687  18.800  0.00  0.00    +0.000 N 
ATOM      6  S   UNL     1       2.709   8.069  17.442  0.00  0.00    +0.000 S 
ATOM      7  H   UNL     1       1.077  10.237  17.944  0.00  0.00    +0.000 HD
ENDROOT
BRANCH   1  13
ATOM      8  C   UNL     1       6.126   7.264  17.520  0.00  0.00    +0.000 C 
ATOM      9  N   UNL     1       5.480   5.971  17.431  0.00  0.00    +0.000 N 
ATOM     10  C   UNL     1       5.971   4.769  16.979  0.00  0.00    +0.000 A 
ATOM     11  C   UNL     1       4.954   3.861  17.124  0.00  0.00    +0.000 A 
ATOM     12  N   UNL     1       3.846   4.460  17.656  0.00  0.00    +0.000 NA
ATOM     13  C   UNL     1       4.164   5.733  17.830  0.00  0.00    +0.000 A 
BRANCH  10  14
ATOM     14  N   UNL     1       7.272   4.505  16.457  0.00  0.00    +0.000 N 
ATOM     15  O   UNL     1       7.453   4.605  15.243  0.00  0.00    +0.000 OA
ATOM     16  O   UNL     1       8.134   4.188  17.285  0.00  0.00    +0.000 OA
ENDBRANCH  10  14
ENDBRANCH   1  13
BRANCH   5  17
ATOM     17  N   UNL     1       0.680  10.339  19.936  0.00  0.00    +0.000 NA
ATOM     18  C   UNL     1      -0.473  10.942  19.965  0.00  0.00    +0.000 C 
BRANCH  18  19
ATOM     19  C   UNL     1      -1.565  10.921  18.970  0.00  0.00    +0.000 A 
ATOM     20  C   UNL     1      -1.564  10.033  17.884  0.00  0.00    +0.000 A 
ATOM     21  C   UNL     1      -2.608  10.051  16.956  0.00  0.00    +0.000 A 
ATOM     22  C   UNL     1      -3.661  10.934  17.145  0.00  0.00    +0.000 A 
ATOM     23  C   UNL     1      -3.686  11.777  18.255  0.00  0.00    +0.000 A 
ATOM     24  C   UNL     1      -2.648  11.779  19.177  0.00  0.00    +0.000 A 
BRANCH  22  25
ATOM     25  O   UNL     1      -4.706  11.007  16.267  0.00  0.00    +0.000 OA
ATOM     26  H   UNL     1      -4.719  11.900  15.880  0.00  0.00    +0.000 HD
ENDBRANCH  22  25
BRANCH  23  27
ATOM     27  O   UNL     1      -4.743  12.619  18.446  0.00  0.00    +0.000 OA
ATOM     28  H   UNL     1      -5.441  12.057  18.839  0.00  0.00    +0.000 HD
ENDBRANCH  23  27
ENDBRANCH  18  19
ENDBRANCH   5  17
TORSDOF 6
ENDMDL
MODEL 4
REMARK VINA RESULT:      -7.0      0.619      1.308
REMARK  Name = 
REMARK  7 active torsions:
REMARK  status: ('A' for Active; 'I' for Inactive)
REMARK    1  A    between atoms: C_1  and  N_2
REMARK    2  A    between atoms: C_3  and  N_4
REMARK    3  A    between atoms: C_9  and  C_10
REMARK    4  A    between atoms: N_14  and  N_15
REMARK    5  A    between atoms: C_16  and  C_17
REMARK    6  A    between atoms: C_20  and  O_21
REMARK    7  A    between atoms: C_22  and  O_23
REMARK                            x       y       z     vdW  Elec       q    Type
REMARK                         _______ _______ _______ _____ _____    ______ ____
ROOT
ATOM      1  C   UNL     1       0.738   9.686  19.413  0.00  0.00    +0.000 A 
ATOM      2  N   UNL     1       0.873   9.029  20.543  0.00  0.00    +0.000 NA
ATOM      3  N   UNL     1       1.695   7.933  20.417  0.00  0.00    +0.000 NA
ATOM      4  C   UNL     1       2.172   7.789  19.197  0.00  0.00    +0.000 A 
ATOM      5  N   UNL     1       3.028   6.819  18.780  0.00  0.00    +0.000 N 
ATOM      6  S   UNL     1       1.640   9.021  18.113  0.00  0.00    +0.000 S 
ATOM      7  H   UNL     1       3.285   6.827  17.795  0.00  0.00    +0.000 HD
ENDROOT
BRANCH   1  13
ATOM      8  C   UNL     1       1.640  12.521  20.011  0.00  0.00    +0.000 C 
ATOM      9  N   UNL     1       0.310  12.166  19.563  0.00  0.00    +0.000 N 
ATOM     10  C   UNL     1      -0.782  12.965  19.322  0.00  0.00    +0.000 A 
ATOM     11  C   UNL     1      -1.783  12.127  18.901  0.00  0.00    +0.000 A 
ATOM     12  N   UNL     1      -1.346  10.832  18.870  0.00  0.00    +0.000 NA
ATOM     13  C   UNL     1      -0.088  10.859  19.279  0.00  0.00    +0.000 A 
BRANCH  10  14
ATOM     14  N   UNL     1      -0.872  14.379  19.476  0.00  0.00    +0.000 N 
ATOM     15  O   UNL     1      -0.340  15.100  18.632  0.00  0.00    +0.000 OA
ATOM     16  O   UNL     1      -1.491  14.778  20.471  0.00  0.00    +0.000 OA
ENDBRANCH  10  14
ENDBRANCH   1  13
BRANCH   5  17
ATOM     17  N   UNL     1       3.144   5.632  19.435  0.00  0.00    +0.000 NA
ATOM     18  C   UNL     1       4.004   4.758  18.999  0.00  0.00    +0.000 C 
BRANCH  18  19
ATOM     19  C   UNL     1       5.027   4.899  17.942  0.00  0.00    +0.000 A 
ATOM     20  C   UNL     1       6.327   5.346  18.220  0.00  0.00    +0.000 A 
ATOM     21  C   UNL     1       7.264   5.480  17.193  0.00  0.00    +0.000 A 
ATOM     22  C   UNL     1       6.900   5.129  15.901  0.00  0.00    +0.000 A 
ATOM     23  C   UNL     1       5.625   4.633  15.636  0.00  0.00    +0.000 A 
ATOM     24  C   UNL     1       4.680   4.509  16.646  0.00  0.00    +0.000 A 
BRANCH  22  25
ATOM     25  O   UNL     1       7.767   5.246  14.851  0.00  0.00    +0.000 OA
ATOM     26  H   UNL     1       7.694   6.148  14.493  0.00  0.00    +0.000 HD
ENDBRANCH  22  25
BRANCH  23  27
ATOM     27  O   UNL     1       5.289   4.262  14.366  0.00  0.00    +0.000 OA
ATOM     28  H   UNL     1       5.973   4.671  13.798  0.00  0.00    +0.000 HD
ENDBRANCH  23  27
ENDBRANCH  18  19
ENDBRANCH   5  17
TORSDOF 6
ENDMDL
MODEL 5
REMARK VINA RESULT:      -7.0      3.229      9.485
REMARK  Name = 
REMARK  7 active torsions:
REMARK  status: ('A' for Active; 'I' for Inactive)
REMARK    1  A    between atoms: C_1  and  N_2
REMARK    2  A    between atoms: C_3  and  N_4
REMARK    3  A    between atoms: C_9  and  C_10
REMARK    4  A    between atoms: N_14  and  N_15
REMARK    5  A    between atoms: C_16  and  C_17
REMARK    6  A    between atoms: C_20  and  O_21
REMARK    7  A    between atoms: C_22  and  O_23
REMARK                            x       y       z     vdW  Elec       q    Type
REMARK                         _______ _______ _______ _____ _____    ______ ____
ROOT
ATOM      1  C   UNL     1       2.719   6.774  19.465  0.00  0.00    +0.000 A 
ATOM      2  N   UNL     1       2.017   7.037  20.545  0.00  0.00    +0.000 NA
ATOM      3  N   UNL     1       1.323   8.220  20.443  0.00  0.00    +0.000 NA
ATOM      4  C   UNL     1       1.506   8.822  19.285  0.00  0.00    +0.000 A 
ATOM      5  N   UNL     1       0.930   9.988  18.887  0.00  0.00    +0.000 N 
ATOM      6  S   UNL     1       2.552   7.950  18.226  0.00  0.00    +0.000 S 
ATOM      7  H   UNL     1       1.195  10.340  17.969  0.00  0.00    +0.000 HD
ENDROOT
BRANCH   1  13
ATOM      8  C   UNL     1       1.859   3.949  20.166  0.00  0.00    +0.000 C 
ATOM      9  N   UNL     1       3.170   4.302  19.663  0.00  0.00    +0.000 N 
ATOM     10  C   UNL     1       4.259   3.504  19.404  0.00  0.00    +0.000 A 
ATOM     11  C   UNL     1       5.239   4.337  18.928  0.00  0.00    +0.000 A 
ATOM     12  N   UNL     1       4.792   5.628  18.879  0.00  0.00    +0.000 NA
ATOM     13  C   UNL     1       3.549   5.604  19.332  0.00  0.00    +0.000 A 
BRANCH  10  14
ATOM     14  N   UNL     1       4.365   2.094  19.591  0.00  0.00    +0.000 N 
ATOM     15  O   UNL     1       5.015   1.673  20.548  0.00  0.00    +0.000 OA
ATOM     16  O   UNL     1       3.783   1.391  18.757  0.00  0.00    +0.000 OA
ENDBRANCH  10  14
ENDBRANCH   1  13
BRANCH   5  17
ATOM     17  N   UNL     1       0.460  10.900  19.782  0.00  0.00    +0.000 NA
ATOM     18  C   UNL     1      -0.685  11.472  19.548  0.00  0.00    +0.000 C 
BRANCH  18  19
ATOM     19  C   UNL     1      -1.678  11.183  18.493  0.00  0.00    +0.000 A 
ATOM     20  C   UNL     1      -1.450  10.217  17.502  0.00  0.00    +0.000 A 
ATOM     21  C   UNL     1      -2.406   9.980  16.512  0.00  0.00    +0.000 A 
ATOM     22  C   UNL     1      -3.599  10.689  16.545  0.00  0.00    +0.000 A 
ATOM     23  C   UNL     1      -3.845  11.609  17.563  0.00  0.00    +0.000 A 
ATOM     24  C   UNL     1      -2.897  11.863  18.544  0.00  0.00    +0.000 A 
BRANCH  22  25
ATOM     25  O   UNL     1      -4.569  10.510  15.600  0.00  0.00    +0.000 OA
ATOM     26  H   UNL     1      -4.800   9.566  15.574  0.00  0.00    +0.000 HD
ENDBRANCH  22  25
BRANCH  23  27
ATOM     27  O   UNL     1      -5.035  12.277  17.603  0.00  0.00    +0.000 OA
ATOM     28  H   UNL     1      -4.845  13.094  18.106  0.00  0.00    +0.000 HD
ENDBRANCH  23  27
ENDBRANCH  18  19
ENDBRANCH   5  17
TORSDOF 6
ENDMDL
MODEL 6
REMARK VINA RESULT:      -6.9      1.422      1.794
REMARK  Name = 
REMARK  7 active torsions:
REMARK  status: ('A' for Active; 'I' for Inactive)
REMARK    1  A    between atoms: C_1  and  N_2
REMARK    2  A    between atoms: C_3  and  N_4
REMARK    3  A    between atoms: C_9  and  C_10
REMARK    4  A    between atoms: N_14  and  N_15
REMARK    5  A    between atoms: C_16  and  C_17
REMARK    6  A    between atoms: C_20  and  O_21
REMARK    7  A    between atoms: C_22  and  O_23
REMARK                            x       y       z     vdW  Elec       q    Type
REMARK                         _______ _______ _______ _____ _____    ______ ____
ROOT
ATOM      1  C   UNL     1       1.069   9.308  20.449  0.00  0.00    +0.000 A 
ATOM      2  N   UNL     1       0.957   8.365  21.358  0.00  0.00    +0.000 NA
ATOM      3  N   UNL     1       1.480   7.165  20.936  0.00  0.00    +0.000 NA
ATOM      4  C   UNL     1       1.986   7.227  19.721  0.00  0.00    +0.000 A 
ATOM      5  N   UNL     1       2.594   6.211  19.053  0.00  0.00    +0.000 N 
ATOM      6  S   UNL     1       1.858   8.795  19.013  0.00  0.00    +0.000 S 
ATOM      7  H   UNL     1       2.910   6.410  18.105  0.00  0.00    +0.000 HD
ENDROOT
BRANCH   1  13
ATOM      8  C   UNL     1      -1.215  10.560  18.892  0.00  0.00    +0.000 C 
ATOM      9  N   UNL     1      -0.462  11.241  19.924  0.00  0.00    +0.000 N 
ATOM     10  C   UNL     1      -0.587  12.521  20.409  0.00  0.00    +0.000 A 
ATOM     11  C   UNL     1       0.361  12.653  21.390  0.00  0.00    +0.000 A 
ATOM     12  N   UNL     1       1.071  11.493  21.534  0.00  0.00    +0.000 NA
ATOM     13  C   UNL     1       0.579  10.649  20.642  0.00  0.00    +0.000 A 
BRANCH  10  14
ATOM     14  N   UNL     1      -1.510  13.522  19.985  0.00  0.00    +0.000 N 
ATOM     15  O   UNL     1      -1.077  14.511  19.394  0.00  0.00    +0.000 OA
ATOM     16  O   UNL     1      -2.699  13.312  20.252  0.00  0.00    +0.000 OA
ENDBRANCH  10  14
ENDBRANCH   1  13
BRANCH   5  17
ATOM     17  N   UNL     1       2.360   4.906  19.360  0.00  0.00    +0.000 NA
ATOM     18  C   UNL     1       3.110   3.991  18.817  0.00  0.00    +0.000 C 
BRANCH  18  19
ATOM     19  C   UNL     1       4.323   4.147  17.988  0.00  0.00    +0.000 A 
ATOM     20  C   UNL     1       4.276   4.113  16.587  0.00  0.00    +0.000 A 
ATOM     21  C   UNL     1       5.446   4.251  15.836  0.00  0.00    +0.000 A 
ATOM     22  C   UNL     1       6.649   4.457  16.497  0.00  0.00    +0.000 A 
ATOM     23  C   UNL     1       6.684   4.544  17.888  0.00  0.00    +0.000 A 
ATOM     24  C   UNL     1       5.531   4.395  18.645  0.00  0.00    +0.000 A 
BRANCH  22  25
ATOM     25  O   UNL     1       7.829   4.589  15.821  0.00  0.00    +0.000 OA
ATOM     26  H   UNL     1       8.397   5.203  16.316  0.00  0.00    +0.000 HD
ENDBRANCH  22  25
BRANCH  23  27
ATOM     27  O   UNL     1       7.869   4.778  18.525  0.00  0.00    +0.000 OA
ATOM     28  H   UNL     1       8.185   5.629  18.158  0.00  0.00    +0.000 HD
ENDBRANCH  23  27
ENDBRANCH  18  19
ENDBRANCH   5  17
TORSDOF 6
ENDMDL
MODEL 7
REMARK VINA RESULT:      -6.8      3.184      3.794
REMARK  Name = 
REMARK  7 active torsions:
REMARK  status: ('A' for Active; 'I' for Inactive)
REMARK    1  A    between atoms: C_1  and  N_2
REMARK    2  A    between atoms: C_3  and  N_4
REMARK    3  A    between atoms: C_9  and  C_10
REMARK    4  A    between atoms: N_14  and  N_15
REMARK    5  A    between atoms: C_16  and  C_17
REMARK    6  A    between atoms: C_20  and  O_21
REMARK    7  A    between atoms: C_22  and  O_23
REMARK                            x       y       z     vdW  Elec       q    Type
REMARK                         _______ _______ _______ _____ _____    ______ ____
ROOT
ATOM      1  C   UNL     1       0.213  10.428  20.898  0.00  0.00    +0.000 A 
ATOM      2  N   UNL     1       0.360  10.761  19.635  0.00  0.00    +0.000 NA
ATOM      3  N   UNL     1       1.109   9.844  18.936  0.00  0.00    +0.000 NA
ATOM      4  C   UNL     1       1.505   8.832  19.681  0.00  0.00    +0.000 A 
ATOM      5  N   UNL     1       2.233   7.763  19.261  0.00  0.00    +0.000 N 
ATOM      6  S   UNL     1       0.961   8.940  21.314  0.00  0.00    +0.000 S 
ATOM      7  H   UNL     1       2.484   7.073  19.967  0.00  0.00    +0.000 HD
ENDROOT
BRANCH   1  13
ATOM      8  C   UNL     1       0.500  13.435  21.194  0.00  0.00    +0.000 C 
ATOM      9  N   UNL     1      -0.381  12.616  22.000  0.00  0.00    +0.000 N 
ATOM     10  C   UNL     1      -1.233  12.975  23.017  0.00  0.00    +0.000 A 
ATOM     11  C   UNL     1      -1.845  11.820  23.430  0.00  0.00    +0.000 A 
ATOM     12  N   UNL     1      -1.402  10.753  22.698  0.00  0.00    +0.000 NA
ATOM     13  C   UNL     1      -0.513  11.236  21.845  0.00  0.00    +0.000 A 
BRANCH  10  14
ATOM     14  N   UNL     1      -1.446  14.281  23.549  0.00  0.00    +0.000 N 
ATOM     15  O   UNL     1      -0.626  14.734  24.348  0.00  0.00    +0.000 OA
ATOM     16  O   UNL     1      -2.462  14.868  23.158  0.00  0.00    +0.000 OA
ENDBRANCH  10  14
ENDBRANCH   1  13
BRANCH   5  17
ATOM     17  N   UNL     1       3.019   7.819  18.151  0.00  0.00    +0.000 NA
ATOM     18  C   UNL     1       3.470   6.707  17.647  0.00  0.00    +0.000 C 
BRANCH  18  19
ATOM     19  C   UNL     1       3.143   5.314  18.013  0.00  0.00    +0.000 A 
ATOM     20  C   UNL     1       1.879   4.758  17.770  0.00  0.00    +0.000 A 
ATOM     21  C   UNL     1       1.602   3.440  18.142  0.00  0.00    +0.000 A 
ATOM     22  C   UNL     1       2.608   2.679  18.721  0.00  0.00    +0.000 A 
ATOM     23  C   UNL     1       3.880   3.217  18.910  0.00  0.00    +0.000 A 
ATOM     24  C   UNL     1       4.163   4.530  18.558  0.00  0.00    +0.000 A 
BRANCH  22  25
ATOM     25  O   UNL     1       2.398   1.388  19.115  0.00  0.00    +0.000 OA
ATOM     26  H   UNL     1       2.457   0.816  18.332  0.00  0.00    +0.000 HD
ENDBRANCH  22  25
BRANCH  23  27
ATOM     27  O   UNL     1       4.870   2.449  19.452  0.00  0.00    +0.000 OA
ATOM     28  H   UNL     1       5.564   2.415  18.764  0.00  0.00    +0.000 HD
ENDBRANCH  23  27
ENDBRANCH  18  19
ENDBRANCH   5  17
TORSDOF 6
ENDMDL
MODEL 8
REMARK VINA RESULT:      -6.8      2.600      3.690
REMARK  Name = 
REMARK  7 active torsions:
REMARK  status: ('A' for Active; 'I' for Inactive)
REMARK    1  A    between atoms: C_1  and  N_2
REMARK    2  A    between atoms: C_3  and  N_4
REMARK    3  A    between atoms: C_9  and  C_10
REMARK    4  A    between atoms: N_14  and  N_15
REMARK    5  A    between atoms: C_16  and  C_17
REMARK    6  A    between atoms: C_20  and  O_21
REMARK    7  A    between atoms: C_22  and  O_23
REMARK                            x       y       z     vdW  Elec       q    Type
REMARK                         _______ _______ _______ _____ _____    ______ ____
ROOT
ATOM      1  C   UNL     1       2.237   6.735  19.325  0.00  0.00    +0.000 A 
ATOM      2  N   UNL     1       2.042   6.587  18.033  0.00  0.00    +0.000 NA
ATOM      3  N   UNL     1       2.693   5.487  17.527  0.00  0.00    +0.000 NA
ATOM      4  C   UNL     1       3.360   4.819  18.448  0.00  0.00    +0.000 A 
ATOM      5  N   UNL     1       4.073   3.679  18.252  0.00  0.00    +0.000 N 
ATOM      6  S   UNL     1       3.214   5.508  20.022  0.00  0.00    +0.000 S 
ATOM      7  H   UNL     1       4.557   3.296  19.062  0.00  0.00    +0.000 HD
ENDROOT
BRANCH   1  13
ATOM      8  C   UNL     1       1.682   9.511  18.230  0.00  0.00    +0.000 C 
ATOM      9  N   UNL     1       1.430   9.108  19.598  0.00  0.00    +0.000 N 
ATOM     10  C   UNL     1       0.921   9.830  20.650  0.00  0.00    +0.000 A 
ATOM     11  C   UNL     1       0.874   8.970  21.717  0.00  0.00    +0.000 A 
ATOM     12  N   UNL     1       1.334   7.733  21.359  0.00  0.00    +0.000 NA
ATOM     13  C   UNL     1       1.678   7.824  20.085  0.00  0.00    +0.000 A 
BRANCH  10  14
ATOM     14  N   UNL     1       0.521  11.199  20.649  0.00  0.00    +0.000 N 
ATOM     15  O   UNL     1      -0.554  11.500  20.130  0.00  0.00    +0.000 OA
ATOM     16  O   UNL     1       1.306  11.994  21.180  0.00  0.00    +0.000 OA
ENDBRANCH  10  14
ENDBRANCH   1  13
BRANCH   5  17
ATOM     17  N   UNL     1       4.561   3.336  17.028  0.00  0.00    +0.000 NA
ATOM     18  C   UNL     1       5.557   4.015  16.539  0.00  0.00    +0.000 C 
BRANCH  18  19
ATOM     19  C   UNL     1       6.381   5.061  17.180  0.00  0.00    +0.000 A 
ATOM     20  C   UNL     1       6.432   6.373  16.688  0.00  0.00    +0.000 A 
ATOM     21  C   UNL     1       7.232   7.332  17.314  0.00  0.00    +0.000 A 
ATOM     22  C   UNL     1       7.947   6.975  18.448  0.00  0.00    +0.000 A 
ATOM     23  C   UNL     1       7.852   5.685  18.966  0.00  0.00    +0.000 A 
ATOM     24  C   UNL     1       7.071   4.719  18.346  0.00  0.00    +0.000 A 
BRANCH  22  25
ATOM     25  O   UNL     1       8.756   7.864  19.099  0.00  0.00    +0.000 OA
ATOM     26  H   UNL     1       8.663   7.717  20.056  0.00  0.00    +0.000 HD
ENDBRANCH  22  25
BRANCH  23  27
ATOM     27  O   UNL     1       8.536   5.355  20.101  0.00  0.00    +0.000 OA
ATOM     28  H   UNL     1       7.844   5.236  20.782  0.00  0.00    +0.000 HD
ENDBRANCH  23  27
ENDBRANCH  18  19
ENDBRANCH   5  17
TORSDOF 6
ENDMDL
MODEL 9
REMARK VINA RESULT:      -6.8      3.026      3.688
REMARK  Name = 
REMARK  7 active torsions:
REMARK  status: ('A' for Active; 'I' for Inactive)
REMARK    1  A    between atoms: C_1  and  N_2
REMARK    2  A    between atoms: C_3  and  N_4
REMARK    3  A    between atoms: C_9  and  C_10
REMARK    4  A    between atoms: N_14  and  N_15
REMARK    5  A    between atoms: C_16  and  C_17
REMARK    6  A    between atoms: C_20  and  O_21
REMARK    7  A    between atoms: C_22  and  O_23
REMARK                            x       y       z     vdW  Elec       q    Type
REMARK                         _______ _______ _______ _____ _____    ______ ____
ROOT
ATOM      1  C   UNL     1       0.389  10.063  20.456  0.00  0.00    +0.000 A 
ATOM      2  N   UNL     1       0.664  10.387  19.212  0.00  0.00    +0.000 NA
ATOM      3  N   UNL     1       1.475   9.463  18.596  0.00  0.00    +0.000 NA
ATOM      4  C   UNL     1       1.788   8.453  19.383  0.00  0.00    +0.000 A 
ATOM      5  N   UNL     1       2.547   7.377  19.044  0.00  0.00    +0.000 N 
ATOM      6  S   UNL     1       1.083   8.574  20.953  0.00  0.00    +0.000 S 
ATOM      7  H   UNL     1       2.722   6.691  19.776  0.00  0.00    +0.000 HD
ENDROOT
BRANCH   1  13
ATOM      8  C   UNL     1      -1.978  11.730  19.545  0.00  0.00    +0.000 C 
ATOM      9  N   UNL     1      -1.506  11.661  20.912  0.00  0.00    +0.000 N 
ATOM     10  C   UNL     1      -1.978  12.288  22.041  0.00  0.00    +0.000 A 
ATOM     11  C   UNL     1      -1.182  11.867  23.074  0.00  0.00    +0.000 A 
ATOM     12  N   UNL     1      -0.231  10.993  22.624  0.00  0.00    +0.000 NA
ATOM     13  C   UNL     1      -0.424  10.881  21.320  0.00  0.00    +0.000 A 
BRANCH  10  14
ATOM     14  N   UNL     1      -3.072  13.199  22.133  0.00  0.00    +0.000 N 
ATOM     15  O   UNL     1      -4.199  12.749  22.337  0.00  0.00    +0.000 OA
ATOM     16  O   UNL     1      -2.794  14.397  21.995  0.00  0.00    +0.000 OA
ENDBRANCH  10  14
ENDBRANCH   1  13
BRANCH   5  17
ATOM     17  N   UNL     1       3.441   7.422  18.019  0.00  0.00    +0.000 NA
ATOM     18  C   UNL     1       3.931   6.305  17.566  0.00  0.00    +0.000 C 
BRANCH  18  19
ATOM     19  C   UNL     1       3.557   4.916  17.902  0.00  0.00    +0.000 A 
ATOM     20  C   UNL     1       2.363   4.337  17.450  0.00  0.00    +0.000 A 
ATOM     21  C   UNL     1       2.037   3.024  17.798  0.00  0.00    +0.000 A 
ATOM     22  C   UNL     1       2.929   2.291  18.567  0.00  0.00    +0.000 A 
ATOM     23  C   UNL     1       4.141   2.850  18.969  0.00  0.00    +0.000 A 
ATOM     24  C   UNL     1       4.470   4.158  18.641  0.00  0.00    +0.000 A 
BRANCH  22  25
ATOM     25  O   UNL     1       2.663   1.006  18.950  0.00  0.00    +0.000 OA
ATOM     26  H   UNL     1       3.062   0.405  18.298  0.00  0.00    +0.000 HD
ENDBRANCH  22  25
BRANCH  23  27
ATOM     27  O   UNL     1       5.023   2.108  19.700  0.00  0.00    +0.000 OA
ATOM     28  H   UNL     1       5.770   2.715  19.879  0.00  0.00    +0.000 HD
ENDBRANCH  23  27
ENDBRANCH  18  19
ENDBRANCH   5  17
TORSDOF 6
ENDMDL
