MODEL 1
REMARK VINA RESULT:      -8.3      0.000      0.000
REMARK  Name = 
REMARK  3 active torsions:
REMARK  status: ('A' for Active; 'I' for Inactive)
REMARK    1  A    between atoms: C_1  and  C_2
REMARK    2  A    between atoms: C_6  and  C_7
REMARK    3  A    between atoms: C_14  and  C_15
REMARK                            x       y       z     vdW  Elec       q    Type
REMARK                         _______ _______ _______ _____ _____    ______ ____
ROOT
ATOM      1  C   UNL     1       2.022   8.687  17.938  0.00  0.00    +0.000 C 
ATOM      2  C   UNL     1       2.418   7.624  18.932  0.00  0.00    +0.000 C 
ATOM      3  O   UNL     1       2.020   7.653  20.095  0.00  0.00    +0.000 OA
ATOM      4  N   UNL     1       3.233   6.635  18.427  0.00  0.00    +0.000 N 
ATOM      5  N   UNL     1       3.798   6.696  17.190  0.00  0.00    +0.000 NA
ATOM      6  C   UNL     1       4.604   5.687  17.169  0.00  0.00    +0.000 C 
ATOM      7  O   UNL     1       4.680   4.909  18.282  0.00  0.00    +0.000 OA
ATOM      8  C   UNL     1       3.740   5.509  19.182  0.00  0.00    +0.000 C 
ENDROOT
BRANCH   6   9
ATOM      9  C   UNL     1       5.471   5.296  16.061  0.00  0.00    +0.000 A 
ATOM     10  C   UNL     1       5.066   4.397  15.078  0.00  0.00    +0.000 A 
ATOM     11  C   UNL     1       5.960   4.050  14.067  0.00  0.00    +0.000 A 
ATOM     12  C   UNL     1       7.225   4.618  14.079  0.00  0.00    +0.000 A 
ATOM     13  N   UNL     1       7.642   5.502  15.010  0.00  0.00    +0.000 NA
ATOM     14  C   UNL     1       6.754   5.825  15.981  0.00  0.00    +0.000 A 
ENDBRANCH   6   9
BRANCH   8  15
ATOM     15  C   UNL     1       2.664   4.514  19.572  0.00  0.00    +0.000 A 
ATOM     16  C   UNL     1       1.941   3.843  18.572  0.00  0.00    +0.000 A 
ATOM     17  C   UNL     1       0.994   2.872  18.906  0.00  0.00    +0.000 A 
ATOM     18  C   UNL     1       0.755   2.562  20.242  0.00  0.00    +0.000 A 
ATOM     19  C   UNL     1       1.459   3.223  21.246  0.00  0.00    +0.000 A 
ATOM     20  C   UNL     1       2.411   4.190  20.914  0.00  0.00    +0.000 A 
ENDBRANCH   8  15
TORSDOF 2
ENDMDL
MODEL 2
REMARK VINA RESULT:      -8.3      0.199      1.094
REMARK  Name = 
REMARK  3 active torsions:
REMARK  status: ('A' for Active; 'I' for Inactive)
REMARK    1  A    between atoms: C_1  and  C_2
REMARK    2  A    between atoms: C_6  and  C_7
REMARK    3  A    between atoms: C_14  and  C_15
REMARK                            x       y       z     vdW  Elec       q    Type
REMARK                         _______ _______ _______ _____ _____    ______ ____
ROOT
ATOM      1  C   UNL     1       1.897   8.571  17.946  0.00  0.00    +0.000 C 
ATOM      2  C   UNL     1       2.374   7.572  18.972  0.00  0.00    +0.000 C 
ATOM      3  O   UNL     1       1.998   7.625  20.141  0.00  0.00    +0.000 OA
ATOM      4  N   UNL     1       3.233   6.612  18.486  0.00  0.00    +0.000 N 
ATOM      5  N   UNL     1       3.770   6.656  17.236  0.00  0.00    +0.000 NA
ATOM      6  C   UNL     1       4.631   5.695  17.235  0.00  0.00    +0.000 C 
ATOM      7  O   UNL     1       4.774   4.966  18.375  0.00  0.00    +0.000 OA
ATOM      8  C   UNL     1       3.820   5.547  19.273  0.00  0.00    +0.000 C 
ENDROOT
BRANCH   6   9
ATOM      9  C   UNL     1       5.497   5.311  16.123  0.00  0.00    +0.000 A 
ATOM     10  C   UNL     1       5.102   4.395  15.152  0.00  0.00    +0.000 A 
ATOM     11  C   UNL     1       5.994   4.055  14.137  0.00  0.00    +0.000 A 
ATOM     12  C   UNL     1       7.248   4.647  14.134  0.00  0.00    +0.000 A 
ATOM     13  N   UNL     1       7.656   5.548  15.054  0.00  0.00    +0.000 NA
ATOM     14  C   UNL     1       6.769   5.863  16.029  0.00  0.00    +0.000 A 
ENDBRANCH   6   9
BRANCH   8  15
ATOM     15  C   UNL     1       2.811   4.509  19.724  0.00  0.00    +0.000 A 
ATOM     16  C   UNL     1       2.675   4.219  21.092  0.00  0.00    +0.000 A 
ATOM     17  C   UNL     1       1.705   3.319  21.538  0.00  0.00    +0.000 A 
ATOM     18  C   UNL     1       0.862   2.694  20.624  0.00  0.00    +0.000 A 
ATOM     19  C   UNL     1       0.988   2.965  19.263  0.00  0.00    +0.000 A 
ATOM     20  C   UNL     1       1.953   3.870  18.815  0.00  0.00    +0.000 A 
ENDBRANCH   8  15
TORSDOF 2
ENDMDL
MODEL 3
REMARK VINA RESULT:      -7.8      2.322      3.307
REMARK  Name = 
REMARK  3 active torsions:
REMARK  status: ('A' for Active; 'I' for Inactive)
REMARK    1  A    between atoms: C_1  and  C_2
REMARK    2  A    between atoms: C_6  and  C_7
REMARK    3  A    between atoms: C_14  and  C_15
REMARK                            x       y       z     vdW  Elec       q    Type
REMARK                         _______ _______ _______ _____ _____    ______ ____
ROOT
ATOM      1  C   UNL     1       8.172   7.053  18.545  0.00  0.00    +0.000 C 
ATOM      2  C   UNL     1       7.289   5.869  18.855  0.00  0.00    +0.000 C 
ATOM      3  O   UNL     1       7.054   5.529  20.013  0.00  0.00    +0.000 OA
ATOM      4  N   UNL     1       6.772   5.230  17.750  0.00  0.00    +0.000 N 
ATOM      5  N   UNL     1       7.164   5.510  16.476  0.00  0.00    +0.000 NA
ATOM      6  C   UNL     1       6.585   4.599  15.768  0.00  0.00    +0.000 C 
ATOM      7  O   UNL     1       5.818   3.680  16.414  0.00  0.00    +0.000 OA
ATOM      8  C   UNL     1       5.898   4.076  17.789  0.00  0.00    +0.000 C 
ENDROOT
BRANCH   6   9
ATOM      9  C   UNL     1       6.682   4.438  14.320  0.00  0.00    +0.000 A 
ATOM     10  C   UNL     1       5.890   3.537  13.614  0.00  0.00    +0.000 A 
ATOM     11  C   UNL     1       6.059   3.418  12.237  0.00  0.00    +0.000 A 
ATOM     12  C   UNL     1       7.016   4.208  11.618  0.00  0.00    +0.000 A 
ATOM     13  N   UNL     1       7.791   5.101  12.272  0.00  0.00    +0.000 NA
ATOM     14  C   UNL     1       7.605   5.198  13.610  0.00  0.00    +0.000 A 
ENDBRANCH   6   9
BRANCH   8  15
ATOM     15  C   UNL     1       4.519   4.387  18.337  0.00  0.00    +0.000 A 
ATOM     16  C   UNL     1       3.709   5.335  17.689  0.00  0.00    +0.000 A 
ATOM     17  C   UNL     1       2.409   5.586  18.133  0.00  0.00    +0.000 A 
ATOM     18  C   UNL     1       1.903   4.899  19.232  0.00  0.00    +0.000 A 
ATOM     19  C   UNL     1       2.695   3.961  19.890  0.00  0.00    +0.000 A 
ATOM     20  C   UNL     1       3.993   3.702  19.444  0.00  0.00    +0.000 A 
ENDBRANCH   8  15
TORSDOF 2
ENDMDL
MODEL 4
REMARK VINA RESULT:      -7.7      2.323      3.425
REMARK  Name = 
REMARK  3 active torsions:
REMARK  status: ('A' for Active; 'I' for Inactive)
REMARK    1  A    between atoms: C_1  and  C_2
REMARK    2  A    between atoms: C_6  and  C_7
REMARK    3  A    between atoms: C_14  and  C_15
REMARK                            x       y       z     vdW  Elec       q    Type
REMARK                         _______ _______ _______ _____ _____    ______ ____
ROOT
ATOM      1  C   UNL     1       8.246   7.013  18.737  0.00  0.00    +0.000 C 
ATOM      2  C   UNL     1       7.329   5.844  18.992  0.00  0.00    +0.000 C 
ATOM      3  O   UNL     1       7.058   5.477  20.133  0.00  0.00    +0.000 OA
ATOM      4  N   UNL     1       6.824   5.249  17.857  0.00  0.00    +0.000 N 
ATOM      5  N   UNL     1       7.253   5.554  16.601  0.00  0.00    +0.000 NA
ATOM      6  C   UNL     1       6.670   4.678  15.854  0.00  0.00    +0.000 C 
ATOM      7  O   UNL     1       5.866   3.760  16.456  0.00  0.00    +0.000 OA
ATOM      8  C   UNL     1       5.922   4.116  17.843  0.00  0.00    +0.000 C 
ENDROOT
BRANCH   6   9
ATOM      9  C   UNL     1       6.798   4.555  14.404  0.00  0.00    +0.000 A 
ATOM     10  C   UNL     1       6.078   3.619  13.668  0.00  0.00    +0.000 A 
ATOM     11  C   UNL     1       6.275   3.541  12.292  0.00  0.00    +0.000 A 
ATOM     12  C   UNL     1       7.186   4.405  11.704  0.00  0.00    +0.000 A 
ATOM     13  N   UNL     1       7.890   5.333  12.389  0.00  0.00    +0.000 NA
ATOM     14  C   UNL     1       7.679   5.389  13.726  0.00  0.00    +0.000 A 
ENDBRANCH   6   9
BRANCH   8  15
ATOM     15  C   UNL     1       4.537   4.444  18.367  0.00  0.00    +0.000 A 
ATOM     16  C   UNL     1       4.018   3.731  19.460  0.00  0.00    +0.000 A 
ATOM     17  C   UNL     1       2.775   4.062  20.004  0.00  0.00    +0.000 A 
ATOM     18  C   UNL     1       2.033   5.107  19.461  0.00  0.00    +0.000 A 
ATOM     19  C   UNL     1       2.531   5.821  18.373  0.00  0.00    +0.000 A 
ATOM     20  C   UNL     1       3.777   5.495  17.831  0.00  0.00    +0.000 A 
ENDBRANCH   8  15
TORSDOF 2
ENDMDL
MODEL 5
REMARK VINA RESULT:      -7.6      2.151      5.906
REMARK  Name = 
REMARK  3 active torsions:
REMARK  status: ('A' for Active; 'I' for Inactive)
REMARK    1  A    between atoms: C_1  and  C_2
REMARK    2  A    between atoms: C_6  and  C_7
REMARK    3  A    between atoms: C_14  and  C_15
REMARK                            x       y       z     vdW  Elec       q    Type
REMARK                         _______ _______ _______ _____ _____    ______ ____
ROOT
ATOM      1  C   UNL     1       1.405   2.462  18.655  0.00  0.00    +0.000 C 
ATOM      2  C   UNL     1       2.851   2.857  18.823  0.00  0.00    +0.000 C 
ATOM      3  O   UNL     1       3.737   2.014  18.940  0.00  0.00    +0.000 OA
ATOM      4  N   UNL     1       3.082   4.215  18.819  0.00  0.00    +0.000 N 
ATOM      5  N   UNL     1       2.084   5.141  18.853  0.00  0.00    +0.000 NA
ATOM      6  C   UNL     1       2.706   6.261  19.007  0.00  0.00    +0.000 C 
ATOM      7  O   UNL     1       4.063   6.229  19.098  0.00  0.00    +0.000 OA
ATOM      8  C   UNL     1       4.381   4.838  18.960  0.00  0.00    +0.000 C 
ENDROOT
BRANCH   6   9
ATOM      9  C   UNL     1       2.094   7.583  19.113  0.00  0.00    +0.000 A 
ATOM     10  C   UNL     1       1.992   8.447  18.027  0.00  0.00    +0.000 A 
ATOM     11  C   UNL     1       1.422   9.704  18.211  0.00  0.00    +0.000 A 
ATOM     12  C   UNL     1       0.974  10.048  19.478  0.00  0.00    +0.000 A 
ATOM     13  N   UNL     1       1.047   9.227  20.548  0.00  0.00    +0.000 NA
ATOM     14  C   UNL     1       1.605   8.010  20.342  0.00  0.00    +0.000 A 
ENDBRANCH   6   9
BRANCH   8  15
ATOM     15  C   UNL     1       5.286   4.614  17.764  0.00  0.00    +0.000 A 
ATOM     16  C   UNL     1       4.724   4.400  16.495  0.00  0.00    +0.000 A 
ATOM     17  C   UNL     1       5.537   4.261  15.368  0.00  0.00    +0.000 A 
ATOM     18  C   UNL     1       6.921   4.330  15.494  0.00  0.00    +0.000 A 
ATOM     19  C   UNL     1       7.495   4.536  16.747  0.00  0.00    +0.000 A 
ATOM     20  C   UNL     1       6.684   4.682  17.875  0.00  0.00    +0.000 A 
ENDBRANCH   8  15
TORSDOF 2
ENDMDL
MODEL 6
REMARK VINA RESULT:      -7.6      2.218      6.019
REMARK  Name = 
REMARK  3 active torsions:
REMARK  status: ('A' for Active; 'I' for Inactive)
REMARK    1  A    between atoms: C_1  and  C_2
REMARK    2  A    between atoms: C_6  and  C_7
REMARK    3  A    between atoms: C_14  and  C_15
REMARK                            x       y       z     vdW  Elec       q    Type
REMARK                         _______ _______ _______ _____ _____    ______ ____
ROOT
ATOM      1  C   UNL     1       1.415   2.212  18.713  0.00  0.00    +0.000 C 
ATOM      2  C   UNL     1       2.862   2.609  18.864  0.00  0.00    +0.000 C 
ATOM      3  O   UNL     1       3.762   1.772  18.859  0.00  0.00    +0.000 OA
ATOM      4  N   UNL     1       3.079   3.964  18.988  0.00  0.00    +0.000 N 
ATOM      5  N   UNL     1       2.074   4.867  19.155  0.00  0.00    +0.000 NA
ATOM      6  C   UNL     1       2.690   5.975  19.397  0.00  0.00    +0.000 C 
ATOM      7  O   UNL     1       4.050   5.953  19.431  0.00  0.00    +0.000 OA
ATOM      8  C   UNL     1       4.377   4.588  19.140  0.00  0.00    +0.000 C 
ENDROOT
BRANCH   6   9
ATOM      9  C   UNL     1       2.070   7.270  19.661  0.00  0.00    +0.000 A 
ATOM     10  C   UNL     1       1.497   7.587  20.889  0.00  0.00    +0.000 A 
ATOM     11  C   UNL     1       0.897   8.833  21.057  0.00  0.00    +0.000 A 
ATOM     12  C   UNL     1       0.895   9.715  19.988  0.00  0.00    +0.000 A 
ATOM     13  N   UNL     1       1.454   9.443  18.788  0.00  0.00    +0.000 NA
ATOM     14  C   UNL     1       2.032   8.225  18.651  0.00  0.00    +0.000 A 
ENDBRANCH   6   9
BRANCH   8  15
ATOM     15  C   UNL     1       5.235   4.499  17.893  0.00  0.00    +0.000 A 
ATOM     16  C   UNL     1       4.623   4.399  16.632  0.00  0.00    +0.000 A 
ATOM     17  C   UNL     1       5.391   4.386  15.465  0.00  0.00    +0.000 A 
ATOM     18  C   UNL     1       6.778   4.468  15.543  0.00  0.00    +0.000 A 
ATOM     19  C   UNL     1       7.400   4.561  16.786  0.00  0.00    +0.000 A 
ATOM     20  C   UNL     1       6.635   4.581  17.954  0.00  0.00    +0.000 A 
ENDBRANCH   8  15
TORSDOF 2
ENDMDL
MODEL 7
REMARK VINA RESULT:      -7.6      2.407      6.361
REMARK  Name = 
REMARK  3 active torsions:
REMARK  status: ('A' for Active; 'I' for Inactive)
REMARK    1  A    between atoms: C_1  and  C_2
REMARK    2  A    between atoms: C_6  and  C_7
REMARK    3  A    between atoms: C_14  and  C_15
REMARK                            x       y       z     vdW  Elec       q    Type
REMARK                         _______ _______ _______ _____ _____    ______ ____
ROOT
ATOM      1  C   UNL     1       5.725   4.068  14.071  0.00  0.00    +0.000 C 
ATOM      2  C   UNL     1       6.579   4.348  15.282  0.00  0.00    +0.000 C 
ATOM      3  O   UNL     1       7.791   4.531  15.185  0.00  0.00    +0.000 OA
ATOM      4  N   UNL     1       5.892   4.393  16.475  0.00  0.00    +0.000 N 
ATOM      5  N   UNL     1       4.585   4.030  16.596  0.00  0.00    +0.000 NA
ATOM      6  C   UNL     1       4.376   4.052  17.870  0.00  0.00    +0.000 C 
ATOM      7  O   UNL     1       5.414   4.387  18.681  0.00  0.00    +0.000 OA
ATOM      8  C   UNL     1       6.489   4.649  17.769  0.00  0.00    +0.000 C 
ENDROOT
BRANCH   6   9
ATOM      9  C   UNL     1       3.121   3.731  18.545  0.00  0.00    +0.000 A 
ATOM     10  C   UNL     1       2.214   2.807  18.034  0.00  0.00    +0.000 A 
ATOM     11  C   UNL     1       1.023   2.575  18.719  0.00  0.00    +0.000 A 
ATOM     12  C   UNL     1       0.787   3.277  19.891  0.00  0.00    +0.000 A 
ATOM     13  N   UNL     1       1.653   4.169  20.419  0.00  0.00    +0.000 NA
ATOM     14  C   UNL     1       2.804   4.376  19.735  0.00  0.00    +0.000 A 
ENDBRANCH   6   9
BRANCH   8  15
ATOM     15  C   UNL     1       6.989   6.071  17.929  0.00  0.00    +0.000 A 
ATOM     16  C   UNL     1       8.037   6.345  18.824  0.00  0.00    +0.000 A 
ATOM     17  C   UNL     1       8.562   7.634  18.936  0.00  0.00    +0.000 A 
ATOM     18  C   UNL     1       8.045   8.667  18.159  0.00  0.00    +0.000 A 
ATOM     19  C   UNL     1       7.002   8.414  17.272  0.00  0.00    +0.000 A 
ATOM     20  C   UNL     1       6.479   7.124  17.153  0.00  0.00    +0.000 A 
ENDBRANCH   8  15
TORSDOF 2
ENDMDL
MODEL 8
REMARK VINA RESULT:      -7.6      2.485      6.428
REMARK  Name = 
REMARK  3 active torsions:
REMARK  status: ('A' for Active; 'I' for Inactive)
REMARK    1  A    between atoms: C_1  and  C_2
REMARK    2  A    between atoms: C_6  and  C_7
REMARK    3  A    between atoms: C_14  and  C_15
REMARK                            x       y       z     vdW  Elec       q    Type
REMARK                         _______ _______ _______ _____ _____    ______ ____
ROOT
ATOM      1  C   UNL     1       5.449   4.095  14.109  0.00  0.00    +0.000 C 
ATOM      2  C   UNL     1       6.357   4.341  15.288  0.00  0.00    +0.000 C 
ATOM      3  O   UNL     1       7.568   4.492  15.145  0.00  0.00    +0.000 OA
ATOM      4  N   UNL     1       5.718   4.395  16.506  0.00  0.00    +0.000 N 
ATOM      5  N   UNL     1       4.407   4.068  16.676  0.00  0.00    +0.000 NA
ATOM      6  C   UNL     1       4.247   4.084  17.956  0.00  0.00    +0.000 C 
ATOM      7  O   UNL     1       5.325   4.385  18.730  0.00  0.00    +0.000 OA
ATOM      8  C   UNL     1       6.370   4.624  17.779  0.00  0.00    +0.000 C 
ENDROOT
BRANCH   6   9
ATOM      9  C   UNL     1       3.010   3.793  18.677  0.00  0.00    +0.000 A 
ATOM     10  C   UNL     1       2.674   4.428  19.869  0.00  0.00    +0.000 A 
ATOM     11  C   UNL     1       1.492   4.076  20.515  0.00  0.00    +0.000 A 
ATOM     12  C   UNL     1       0.689   3.102  19.941  0.00  0.00    +0.000 A 
ATOM     13  N   UNL     1       0.980   2.478  18.779  0.00  0.00    +0.000 NA
ATOM     14  C   UNL     1       2.135   2.839  18.170  0.00  0.00    +0.000 A 
ENDBRANCH   6   9
BRANCH   8  15
ATOM     15  C   UNL     1       6.916   6.031  17.929  0.00  0.00    +0.000 A 
ATOM     16  C   UNL     1       7.985   6.273  18.808  0.00  0.00    +0.000 A 
ATOM     17  C   UNL     1       8.550   7.546  18.911  0.00  0.00    +0.000 A 
ATOM     18  C   UNL     1       8.053   8.594  18.141  0.00  0.00    +0.000 A 
ATOM     19  C   UNL     1       6.990   8.372  17.269  0.00  0.00    +0.000 A 
ATOM     20  C   UNL     1       6.427   7.098  17.159  0.00  0.00    +0.000 A 
ENDBRANCH   8  15
TORSDOF 2
ENDMDL
MODEL 9
REMARK VINA RESULT:      -7.5      2.371      3.535
REMARK  Name = 
REMARK  3 active torsions:
REMARK  status: ('A' for Active; 'I' for Inactive)
REMARK    1  A    between atoms: C_1  and  C_2
REMARK    2  A    between atoms: C_6  and  C_7
REMARK    3  A    between atoms: C_14  and  C_15
REMARK                            x       y       z     vdW  Elec       q    Type
REMARK                         _______ _______ _______ _____ _____    ______ ____
ROOT
ATOM      1  C   UNL     1       8.215   7.205  18.549  0.00  0.00    +0.000 C 
ATOM      2  C   UNL     1       7.384   5.977  18.829  0.00  0.00    +0.000 C 
ATOM      3  O   UNL     1       7.151   5.607  19.977  0.00  0.00    +0.000 OA
ATOM      4  N   UNL     1       6.909   5.335  17.707  0.00  0.00    +0.000 N 
ATOM      5  N   UNL     1       7.302   5.653  16.443  0.00  0.00    +0.000 NA
ATOM      6  C   UNL     1       6.774   4.729  15.713  0.00  0.00    +0.000 C 
ATOM      7  O   UNL     1       6.041   3.766  16.334  0.00  0.00    +0.000 OA
ATOM      8  C   UNL     1       6.088   4.142  17.717  0.00  0.00    +0.000 C 
ENDROOT
BRANCH   6   9
ATOM      9  C   UNL     1       6.895   4.598  14.263  0.00  0.00    +0.000 A 
ATOM     10  C   UNL     1       7.748   5.399  13.510  0.00  0.00    +0.000 A 
ATOM     11  C   UNL     1       7.788   5.236  12.127  0.00  0.00    +0.000 A 
ATOM     12  C   UNL     1       6.972   4.273  11.552  0.00  0.00    +0.000 A 
ATOM     13  N   UNL     1       6.145   3.471  12.256  0.00  0.00    +0.000 NA
ATOM     14  C   UNL     1       6.125   3.649  13.599  0.00  0.00    +0.000 A 
ENDBRANCH   6   9
BRANCH   8  15
ATOM     15  C   UNL     1       4.690   4.380  18.252  0.00  0.00    +0.000 A 
ATOM     16  C   UNL     1       3.858   5.328  17.632  0.00  0.00    +0.000 A 
ATOM     17  C   UNL     1       2.543   5.515  18.063  0.00  0.00    +0.000 A 
ATOM     18  C   UNL     1       2.043   4.762  19.121  0.00  0.00    +0.000 A 
ATOM     19  C   UNL     1       2.856   3.823  19.752  0.00  0.00    +0.000 A 
ATOM     20  C   UNL     1       4.170   3.629  19.318  0.00  0.00    +0.000 A 
ENDBRANCH   8  15
TORSDOF 2
ENDMDL
