MODEL 1
REMARK VINA RESULT:      -7.6      0.000      0.000
REMARK  Name = 
REMARK  3 active torsions:
REMARK  status: ('A' for Active; 'I' for Inactive)
REMARK    1  A    between atoms: N_3  and  C_4
REMARK    2  A    between atoms: C_4  and  C_5
REMARK    3  A    between atoms: N_13  and  C_14
REMARK                            x       y       z     vdW  Elec       q    Type
REMARK                         _______ _______ _______ _____ _____    ______ ____
ROOT
ATOM      1  O   UNL     1       4.828   5.235  16.326  0.00  0.00    +0.000 OA
ATOM      2  C   UNL     1       5.974   5.041  16.715  0.00  0.00    +0.000 C 
ATOM      3  N   UNL     1       6.289   5.088  18.048  0.00  0.00    +0.000 N 
ATOM      4  N   UNL     1       7.065   4.726  15.938  0.00  0.00    +0.000 N 
ATOM      5  H   UNL     1       7.255   5.157  18.346  0.00  0.00    +0.000 HD
ATOM      6  H   UNL     1       7.869   4.374  16.436  0.00  0.00    +0.000 HD
ENDROOT
BRANCH   4   7
ATOM      7  C   UNL     1       7.086   4.612  14.530  0.00  0.00    +0.000 A 
ATOM      8  C   UNL     1       7.868   5.428  13.705  0.00  0.00    +0.000 A 
ATOM      9  C   UNL     1       7.811   5.306  12.312  0.00  0.00    +0.000 A 
ATOM     10  C   UNL     1       6.972   4.361  11.732  0.00  0.00    +0.000 A 
ATOM     11  C   UNL     1       6.219   3.531  12.551  0.00  0.00    +0.000 A 
ATOM     12  F   UNL     1       5.412   2.617  11.995  0.00  0.00    +0.000 F 
ATOM     13  C   UNL     1       6.276   3.636  13.940  0.00  0.00    +0.000 A 
ENDBRANCH   4   7
BRANCH   3  14
ATOM     14  C   UNL     1       5.280   5.453  19.015  0.00  0.00    +0.000 C 
BRANCH  14  15
ATOM     15  C   UNL     1       4.562   4.236  19.460  0.00  0.00    +0.000 A 
ATOM     16  N   UNL     1       5.065   3.032  19.696  0.00  0.00    +0.000 NA
ATOM     17  N   UNL     1       4.034   2.183  20.092  0.00  0.00    +0.000 NA
ATOM     18  C   UNL     1       2.946   2.902  20.085  0.00  0.00    +0.000 A 
ATOM     19  N   UNL     1       3.239   4.172  19.706  0.00  0.00    +0.000 N 
ATOM     20  C   UNL     1       2.090   5.046  19.702  0.00  0.00    +0.000 C 
ATOM     21  C   UNL     1       1.054   4.212  20.486  0.00  0.00    +0.000 C 
ATOM     22  C   UNL     1       1.517   2.736  20.376  0.00  0.00    +0.000 C 
ENDBRANCH  14  15
ENDBRANCH   3  14
TORSDOF 3
ENDMDL
MODEL 2
REMARK VINA RESULT:      -7.5      3.229      6.929
REMARK  Name = 
REMARK  3 active torsions:
REMARK  status: ('A' for Active; 'I' for Inactive)
REMARK    1  A    between atoms: N_3  and  C_4
REMARK    2  A    between atoms: C_4  and  C_5
REMARK    3  A    between atoms: N_13  and  C_14
REMARK                            x       y       z     vdW  Elec       q    Type
REMARK                         _______ _______ _______ _____ _____    ______ ____
ROOT
ATOM      1  O   UNL     1       3.952   4.671  17.029  0.00  0.00    +0.000 OA
ATOM      2  C   UNL     1       4.431   3.549  17.133  0.00  0.00    +0.000 C 
ATOM      3  N   UNL     1       5.519   3.168  16.390  0.00  0.00    +0.000 N 
ATOM      4  N   UNL     1       4.014   2.552  17.985  0.00  0.00    +0.000 N 
ATOM      5  H   UNL     1       5.767   2.190  16.306  0.00  0.00    +0.000 HD
ATOM      6  H   UNL     1       4.659   1.783  18.106  0.00  0.00    +0.000 HD
ENDROOT
BRANCH   4   7
ATOM      7  C   UNL     1       2.918   2.612  18.872  0.00  0.00    +0.000 A 
ATOM      8  C   UNL     1       1.596   2.378  18.477  0.00  0.00    +0.000 A 
ATOM      9  C   UNL     1       0.541   2.502  19.388  0.00  0.00    +0.000 A 
ATOM     10  C   UNL     1       0.802   2.858  20.707  0.00  0.00    +0.000 A 
ATOM     11  C   UNL     1       2.115   3.060  21.107  0.00  0.00    +0.000 A 
ATOM     12  F   UNL     1       2.370   3.400  22.378  0.00  0.00    +0.000 F 
ATOM     13  C   UNL     1       3.174   2.928  20.210  0.00  0.00    +0.000 A 
ENDBRANCH   4   7
BRANCH   3  14
ATOM     14  C   UNL     1       6.068   4.069  15.403  0.00  0.00    +0.000 C 
BRANCH  14  15
ATOM     15  C   UNL     1       6.412   5.356  16.050  0.00  0.00    +0.000 A 
ATOM     16  N   UNL     1       6.048   6.577  15.685  0.00  0.00    +0.000 NA
ATOM     17  N   UNL     1       6.599   7.497  16.574  0.00  0.00    +0.000 NA
ATOM     18  C   UNL     1       7.273   6.802  17.448  0.00  0.00    +0.000 A 
ATOM     19  N   UNL     1       7.172   5.480  17.156  0.00  0.00    +0.000 N 
ATOM     20  C   UNL     1       7.867   4.633  18.097  0.00  0.00    +0.000 C 
ATOM     21  C   UNL     1       8.147   5.612  19.258  0.00  0.00    +0.000 C 
ATOM     22  C   UNL     1       8.088   7.035  18.646  0.00  0.00    +0.000 C 
ENDBRANCH  14  15
ENDBRANCH   3  14
TORSDOF 3
ENDMDL
MODEL 3
REMARK VINA RESULT:      -7.5      4.319      7.780
REMARK  Name = 
REMARK  3 active torsions:
REMARK  status: ('A' for Active; 'I' for Inactive)
REMARK    1  A    between atoms: N_3  and  C_4
REMARK    2  A    between atoms: C_4  and  C_5
REMARK    3  A    between atoms: N_13  and  C_14
REMARK                            x       y       z     vdW  Elec       q    Type
REMARK                         _______ _______ _______ _____ _____    ______ ____
ROOT
ATOM      1  O   UNL     1       2.121   5.990  18.474  0.00  0.00    +0.000 OA
ATOM      2  C   UNL     1       2.725   6.185  19.522  0.00  0.00    +0.000 C 
ATOM      3  N   UNL     1       3.743   5.359  19.921  0.00  0.00    +0.000 N 
ATOM      4  N   UNL     1       2.526   7.222  20.406  0.00  0.00    +0.000 N 
ATOM      5  H   UNL     1       4.081   5.381  20.875  0.00  0.00    +0.000 HD
ATOM      6  H   UNL     1       3.258   7.360  21.089  0.00  0.00    +0.000 HD
ENDROOT
BRANCH   4   7
ATOM      7  C   UNL     1       1.551   8.237  20.300  0.00  0.00    +0.000 A 
ATOM      8  C   UNL     1       1.383   9.026  19.157  0.00  0.00    +0.000 A 
ATOM      9  C   UNL     1       0.433  10.053  19.126  0.00  0.00    +0.000 A 
ATOM     10  C   UNL     1      -0.363  10.296  20.241  0.00  0.00    +0.000 A 
ATOM     11  C   UNL     1      -0.218   9.493  21.364  0.00  0.00    +0.000 A 
ATOM     12  F   UNL     1      -0.986   9.723  22.438  0.00  0.00    +0.000 F 
ATOM     13  C   UNL     1       0.717   8.461  21.402  0.00  0.00    +0.000 A 
ENDBRANCH   4   7
BRANCH   3  14
ATOM     14  C   UNL     1       4.065   4.185  19.142  0.00  0.00    +0.000 C 
BRANCH  14  15
ATOM     15  C   UNL     1       5.384   4.372  18.494  0.00  0.00    +0.000 A 
ATOM     16  N   UNL     1       6.565   4.529  19.075  0.00  0.00    +0.000 NA
ATOM     17  N   UNL     1       7.537   4.675  18.088  0.00  0.00    +0.000 NA
ATOM     18  C   UNL     1       6.913   4.598  16.946  0.00  0.00    +0.000 A 
ATOM     19  N   UNL     1       5.586   4.405  17.162  0.00  0.00    +0.000 N 
ATOM     20  C   UNL     1       4.822   4.277  15.943  0.00  0.00    +0.000 C 
ATOM     21  C   UNL     1       5.934   4.066  14.893  0.00  0.00    +0.000 C 
ATOM     22  C   UNL     1       7.230   4.648  15.514  0.00  0.00    +0.000 C 
ENDBRANCH  14  15
ENDBRANCH   3  14
TORSDOF 3
ENDMDL
MODEL 4
REMARK VINA RESULT:      -7.5      1.511      2.284
REMARK  Name = 
REMARK  3 active torsions:
REMARK  status: ('A' for Active; 'I' for Inactive)
REMARK    1  A    between atoms: N_3  and  C_4
REMARK    2  A    between atoms: C_4  and  C_5
REMARK    3  A    between atoms: N_13  and  C_14
REMARK                            x       y       z     vdW  Elec       q    Type
REMARK                         _______ _______ _______ _____ _____    ______ ____
ROOT
ATOM      1  O   UNL     1       6.286   5.675  16.839  0.00  0.00    +0.000 OA
ATOM      2  C   UNL     1       5.978   4.490  16.840  0.00  0.00    +0.000 C 
ATOM      3  N   UNL     1       5.535   3.871  17.980  0.00  0.00    +0.000 N 
ATOM      4  N   UNL     1       5.984   3.637  15.760  0.00  0.00    +0.000 N 
ATOM      5  H   UNL     1       5.502   2.860  18.038  0.00  0.00    +0.000 HD
ATOM      6  H   UNL     1       5.485   2.768  15.887  0.00  0.00    +0.000 HD
ENDROOT
BRANCH   4   7
ATOM      7  C   UNL     1       6.397   3.952  14.447  0.00  0.00    +0.000 A 
ATOM      8  C   UNL     1       5.857   3.347  13.306  0.00  0.00    +0.000 A 
ATOM      9  C   UNL     1       6.340   3.661  12.030  0.00  0.00    +0.000 A 
ATOM     10  C   UNL     1       7.366   4.588  11.885  0.00  0.00    +0.000 A 
ATOM     11  C   UNL     1       7.881   5.211  13.014  0.00  0.00    +0.000 A 
ATOM     12  F   UNL     1       8.868   6.106  12.878  0.00  0.00    +0.000 F 
ATOM     13  C   UNL     1       7.400   4.914  14.289  0.00  0.00    +0.000 A 
ENDBRANCH   4   7
BRANCH   3  14
ATOM     14  C   UNL     1       5.506   4.597  19.230  0.00  0.00    +0.000 C 
BRANCH  14  15
ATOM     15  C   UNL     1       4.110   4.987  19.538  0.00  0.00    +0.000 A 
ATOM     16  N   UNL     1       3.570   6.197  19.484  0.00  0.00    +0.000 NA
ATOM     17  N   UNL     1       2.231   6.108  19.859  0.00  0.00    +0.000 NA
ATOM     18  C   UNL     1       2.007   4.851  20.122  0.00  0.00    +0.000 A 
ATOM     19  N   UNL     1       3.143   4.133  19.927  0.00  0.00    +0.000 N 
ATOM     20  C   UNL     1       2.974   2.720  20.168  0.00  0.00    +0.000 C 
ATOM     21  C   UNL     1       1.437   2.587  20.212  0.00  0.00    +0.000 C 
ATOM     22  C   UNL     1       0.892   3.999  20.551  0.00  0.00    +0.000 C 
ENDBRANCH  14  15
ENDBRANCH   3  14
TORSDOF 3
ENDMDL
MODEL 5
REMARK VINA RESULT:      -7.5      1.074      1.517
REMARK  Name = 
REMARK  3 active torsions:
REMARK  status: ('A' for Active; 'I' for Inactive)
REMARK    1  A    between atoms: N_3  and  C_4
REMARK    2  A    between atoms: C_4  and  C_5
REMARK    3  A    between atoms: N_13  and  C_14
REMARK                            x       y       z     vdW  Elec       q    Type
REMARK                         _______ _______ _______ _____ _____    ______ ____
ROOT
ATOM      1  O   UNL     1       4.794   5.143  16.531  0.00  0.00    +0.000 OA
ATOM      2  C   UNL     1       5.942   4.863  16.855  0.00  0.00    +0.000 C 
ATOM      3  N   UNL     1       6.322   4.835  18.172  0.00  0.00    +0.000 N 
ATOM      4  N   UNL     1       6.973   4.514  16.013  0.00  0.00    +0.000 N 
ATOM      5  H   UNL     1       7.303   4.833  18.424  0.00  0.00    +0.000 HD
ATOM      6  H   UNL     1       7.777   4.094  16.458  0.00  0.00    +0.000 HD
ENDROOT
BRANCH   4   7
ATOM      7  C   UNL     1       6.921   4.459  14.603  0.00  0.00    +0.000 A 
ATOM      8  C   UNL     1       6.191   3.495  13.898  0.00  0.00    +0.000 A 
ATOM      9  C   UNL     1       6.215   3.456  12.499  0.00  0.00    +0.000 A 
ATOM     10  C   UNL     1       6.970   4.387  11.793  0.00  0.00    +0.000 A 
ATOM     11  C   UNL     1       7.669   5.362  12.490  0.00  0.00    +0.000 A 
ATOM     12  F   UNL     1       8.394   6.261  11.812  0.00  0.00    +0.000 F 
ATOM     13  C   UNL     1       7.643   5.417  13.883  0.00  0.00    +0.000 A 
ENDBRANCH   4   7
BRANCH   3  14
ATOM     14  C   UNL     1       5.384   5.221  19.201  0.00  0.00    +0.000 C 
BRANCH  14  15
ATOM     15  C   UNL     1       4.542   4.056  19.559  0.00  0.00    +0.000 A 
ATOM     16  N   UNL     1       4.923   2.801  19.752  0.00  0.00    +0.000 NA
ATOM     17  N   UNL     1       3.804   2.035  20.070  0.00  0.00    +0.000 NA
ATOM     18  C   UNL     1       2.787   2.851  20.062  0.00  0.00    +0.000 A 
ATOM     19  N   UNL     1       3.210   4.105  19.757  0.00  0.00    +0.000 N 
ATOM     20  C   UNL     1       2.146   5.081  19.757  0.00  0.00    +0.000 C 
ATOM     21  C   UNL     1       1.009   4.311  20.462  0.00  0.00    +0.000 C 
ATOM     22  C   UNL     1       1.339   2.805  20.295  0.00  0.00    +0.000 C 
ENDBRANCH  14  15
ENDBRANCH   3  14
TORSDOF 3
ENDMDL
MODEL 6
REMARK VINA RESULT:      -7.4      0.978      1.707
REMARK  Name = 
REMARK  3 active torsions:
REMARK  status: ('A' for Active; 'I' for Inactive)
REMARK    1  A    between atoms: N_3  and  C_4
REMARK    2  A    between atoms: C_4  and  C_5
REMARK    3  A    between atoms: N_13  and  C_14
REMARK                            x       y       z     vdW  Elec       q    Type
REMARK                         _______ _______ _______ _____ _____    ______ ____
ROOT
ATOM      1  O   UNL     1       5.905   5.950  16.748  0.00  0.00    +0.000 OA
ATOM      2  C   UNL     1       5.976   4.740  16.933  0.00  0.00    +0.000 C 
ATOM      3  N   UNL     1       5.756   4.197  18.172  0.00  0.00    +0.000 N 
ATOM      4  N   UNL     1       6.235   3.777  15.986  0.00  0.00    +0.000 N 
ATOM      5  H   UNL     1       6.035   3.244  18.373  0.00  0.00    +0.000 HD
ATOM      6  H   UNL     1       6.027   2.827  16.261  0.00  0.00    +0.000 HD
ENDROOT
BRANCH   4   7
ATOM      7  C   UNL     1       6.519   3.999  14.620  0.00  0.00    +0.000 A 
ATOM      8  C   UNL     1       7.513   4.878  14.175  0.00  0.00    +0.000 A 
ATOM      9  C   UNL     1       7.717   5.098  12.808  0.00  0.00    +0.000 A 
ATOM     10  C   UNL     1       6.929   4.436  11.873  0.00  0.00    +0.000 A 
ATOM     11  C   UNL     1       5.963   3.541  12.313  0.00  0.00    +0.000 A 
ATOM     12  F   UNL     1       5.204   2.900  11.415  0.00  0.00    +0.000 F 
ATOM     13  C   UNL     1       5.759   3.306  13.672  0.00  0.00    +0.000 A 
ENDBRANCH   4   7
BRANCH   3  14
ATOM     14  C   UNL     1       5.516   5.060  19.306  0.00  0.00    +0.000 C 
BRANCH  14  15
ATOM     15  C   UNL     1       4.057   5.235  19.490  0.00  0.00    +0.000 A 
ATOM     16  N   UNL     1       3.326   6.314  19.246  0.00  0.00    +0.000 NA
ATOM     17  N   UNL     1       1.998   6.040  19.564  0.00  0.00    +0.000 NA
ATOM     18  C   UNL     1       1.970   4.806  19.984  0.00  0.00    +0.000 A 
ATOM     19  N   UNL     1       3.221   4.280  19.944  0.00  0.00    +0.000 N 
ATOM     20  C   UNL     1       3.274   2.900  20.366  0.00  0.00    +0.000 C 
ATOM     21  C   UNL     1       1.782   2.507  20.353  0.00  0.00    +0.000 C 
ATOM     22  C   UNL     1       0.985   3.832  20.470  0.00  0.00    +0.000 C 
ENDBRANCH  14  15
ENDBRANCH   3  14
TORSDOF 3
ENDMDL
MODEL 7
REMARK VINA RESULT:      -7.3      3.813      7.504
REMARK  Name = 
REMARK  3 active torsions:
REMARK  status: ('A' for Active; 'I' for Inactive)
REMARK    1  A    between atoms: N_3  and  C_4
REMARK    2  A    between atoms: C_4  and  C_5
REMARK    3  A    between atoms: N_13  and  C_14
REMARK                            x       y       z     vdW  Elec       q    Type
REMARK                         _______ _______ _______ _____ _____    ______ ____
ROOT
ATOM      1  O   UNL     1       2.215   6.073  18.448  0.00  0.00    +0.000 OA
ATOM      2  C   UNL     1       2.643   6.110  19.596  0.00  0.00    +0.000 C 
ATOM      3  N   UNL     1       3.526   5.167  20.056  0.00  0.00    +0.000 N 
ATOM      4  N   UNL     1       2.362   7.061  20.549  0.00  0.00    +0.000 N 
ATOM      5  H   UNL     1       3.696   5.063  21.048  0.00  0.00    +0.000 HD
ATOM      6  H   UNL     1       2.973   7.069  21.352  0.00  0.00    +0.000 HD
ENDROOT
BRANCH   4   7
ATOM      7  C   UNL     1       1.483   8.157  20.404  0.00  0.00    +0.000 A 
ATOM      8  C   UNL     1       0.530   8.510  21.367  0.00  0.00    +0.000 A 
ATOM      9  C   UNL     1      -0.350   9.576  21.149  0.00  0.00    +0.000 A 
ATOM     10  C   UNL     1      -0.282  10.302  19.965  0.00  0.00    +0.000 A 
ATOM     11  C   UNL     1       0.683   9.971  19.023  0.00  0.00    +0.000 A 
ATOM     12  F   UNL     1       0.753  10.670  17.882  0.00  0.00    +0.000 F 
ATOM     13  C   UNL     1       1.572   8.918  19.234  0.00  0.00    +0.000 A 
ENDBRANCH   4   7
BRANCH   3  14
ATOM     14  C   UNL     1       3.902   4.058  19.209  0.00  0.00    +0.000 C 
BRANCH  14  15
ATOM     15  C   UNL     1       5.242   4.315  18.630  0.00  0.00    +0.000 A 
ATOM     16  N   UNL     1       6.380   4.536  19.273  0.00  0.00    +0.000 NA
ATOM     17  N   UNL     1       7.393   4.732  18.337  0.00  0.00    +0.000 NA
ATOM     18  C   UNL     1       6.835   4.619  17.164  0.00  0.00    +0.000 A 
ATOM     19  N   UNL     1       5.512   4.356  17.311  0.00  0.00    +0.000 N 
ATOM     20  C   UNL     1       4.821   4.185  16.054  0.00  0.00    +0.000 C 
ATOM     21  C   UNL     1       5.996   4.032  15.065  0.00  0.00    +0.000 C 
ATOM     22  C   UNL     1       7.225   4.683  15.750  0.00  0.00    +0.000 C 
ENDBRANCH  14  15
ENDBRANCH   3  14
TORSDOF 3
ENDMDL
MODEL 8
REMARK VINA RESULT:      -7.3      5.554      6.842
REMARK  Name = 
REMARK  3 active torsions:
REMARK  status: ('A' for Active; 'I' for Inactive)
REMARK    1  A    between atoms: N_3  and  C_4
REMARK    2  A    between atoms: C_4  and  C_5
REMARK    3  A    between atoms: N_13  and  C_14
REMARK                            x       y       z     vdW  Elec       q    Type
REMARK                         _______ _______ _______ _____ _____    ______ ____
ROOT
ATOM      1  O   UNL     1       7.649   8.997  17.261  0.00  0.00    +0.000 OA
ATOM      2  C   UNL     1       8.197   8.426  18.197  0.00  0.00    +0.000 C 
ATOM      3  N   UNL     1       8.073   7.073  18.374  0.00  0.00    +0.000 N 
ATOM      4  N   UNL     1       9.009   8.999  19.148  0.00  0.00    +0.000 N 
ATOM      5  H   UNL     1       8.327   6.644  19.256  0.00  0.00    +0.000 HD
ATOM      6  H   UNL     1       9.558   8.355  19.700  0.00  0.00    +0.000 HD
ENDROOT
BRANCH   4   7
ATOM      7  C   UNL     1       9.330  10.370  19.261  0.00  0.00    +0.000 A 
ATOM      8  C   UNL     1       9.330  11.062  20.477  0.00  0.00    +0.000 A 
ATOM      9  C   UNL     1       9.607  12.433  20.523  0.00  0.00    +0.000 A 
ATOM     10  C   UNL     1       9.891  13.124  19.349  0.00  0.00    +0.000 A 
ATOM     11  C   UNL     1       9.921  12.431  18.147  0.00  0.00    +0.000 A 
ATOM     12  F   UNL     1      10.197  13.093  17.015  0.00  0.00    +0.000 F 
ATOM     13  C   UNL     1       9.658  11.063  18.091  0.00  0.00    +0.000 A 
ENDBRANCH   4   7
BRANCH   3  14
ATOM     14  C   UNL     1       7.218   6.306  17.498  0.00  0.00    +0.000 C 
BRANCH  14  15
ATOM     15  C   UNL     1       6.405   5.366  18.304  0.00  0.00    +0.000 A 
ATOM     16  N   UNL     1       6.508   5.100  19.599  0.00  0.00    +0.000 NA
ATOM     17  N   UNL     1       5.547   4.152  19.942  0.00  0.00    +0.000 NA
ATOM     18  C   UNL     1       4.894   3.881  18.846  0.00  0.00    +0.000 A 
ATOM     19  N   UNL     1       5.394   4.617  17.821  0.00  0.00    +0.000 N 
ATOM     20  C   UNL     1       4.704   4.399  16.572  0.00  0.00    +0.000 C 
ATOM     21  C   UNL     1       3.435   3.653  17.037  0.00  0.00    +0.000 C 
ATOM     22  C   UNL     1       3.781   3.027  18.413  0.00  0.00    +0.000 C 
ENDBRANCH  14  15
ENDBRANCH   3  14
TORSDOF 3
ENDMDL
MODEL 9
REMARK VINA RESULT:      -7.3      1.195      1.795
REMARK  Name = 
REMARK  3 active torsions:
REMARK  status: ('A' for Active; 'I' for Inactive)
REMARK    1  A    between atoms: N_3  and  C_4
REMARK    2  A    between atoms: C_4  and  C_5
REMARK    3  A    between atoms: N_13  and  C_14
REMARK                            x       y       z     vdW  Elec       q    Type
REMARK                         _______ _______ _______ _____ _____    ______ ____
ROOT
ATOM      1  O   UNL     1       6.471   4.105  17.113  0.00  0.00    +0.000 OA
ATOM      2  C   UNL     1       5.672   4.961  16.751  0.00  0.00    +0.000 C 
ATOM      3  N   UNL     1       4.918   5.659  17.659  0.00  0.00    +0.000 N 
ATOM      4  N   UNL     1       5.434   5.371  15.459  0.00  0.00    +0.000 N 
ATOM      5  H   UNL     1       4.110   6.188  17.357  0.00  0.00    +0.000 HD
ATOM      6  H   UNL     1       4.922   6.236  15.363  0.00  0.00    +0.000 HD
ENDROOT
BRANCH   4   7
ATOM      7  C   UNL     1       6.031   4.848  14.291  0.00  0.00    +0.000 A 
ATOM      8  C   UNL     1       7.259   5.295  13.790  0.00  0.00    +0.000 A 
ATOM      9  C   UNL     1       7.780   4.777  12.599  0.00  0.00    +0.000 A 
ATOM     10  C   UNL     1       7.077   3.801  11.901  0.00  0.00    +0.000 A 
ATOM     11  C   UNL     1       5.874   3.335  12.414  0.00  0.00    +0.000 A 
ATOM     12  F   UNL     1       5.196   2.393  11.745  0.00  0.00    +0.000 F 
ATOM     13  C   UNL     1       5.351   3.837  13.605  0.00  0.00    +0.000 A 
ENDBRANCH   4   7
BRANCH   3  14
ATOM     14  C   UNL     1       4.997   5.332  19.064  0.00  0.00    +0.000 C 
BRANCH  14  15
ATOM     15  C   UNL     1       3.629   5.156  19.605  0.00  0.00    +0.000 A 
ATOM     16  N   UNL     1       2.839   6.075  20.143  0.00  0.00    +0.000 NA
ATOM     17  N   UNL     1       1.641   5.473  20.521  0.00  0.00    +0.000 NA
ATOM     18  C   UNL     1       1.746   4.214  20.196  0.00  0.00    +0.000 A 
ATOM     19  N   UNL     1       2.956   3.989  19.624  0.00  0.00    +0.000 N 
ATOM     20  C   UNL     1       3.143   2.620  19.205  0.00  0.00    +0.000 C 
ATOM     21  C   UNL     1       1.705   2.065  19.282  0.00  0.00    +0.000 C 
ATOM     22  C   UNL     1       0.937   2.991  20.261  0.00  0.00    +0.000 C 
ENDBRANCH  14  15
ENDBRANCH   3  14
TORSDOF 3
ENDMDL
