MODEL 1
REMARK VINA RESULT:      -8.7      0.000      0.000
REMARK  Name = 
REMARK  7 active torsions:
REMARK  status: ('A' for Active; 'I' for Inactive)
REMARK    1  A    between atoms: C_1  and  C_2
REMARK    2  A    between atoms: C_2  and  C_3
REMARK    3  A    between atoms: C_2  and  C_4
REMARK    4  A    between atoms: C_2  and  O_5
REMARK    5  A    between atoms: O_5  and  C_6
REMARK    6  A    between atoms: C_11  and  C_12
REMARK    7  A    between atoms: C_16  and  C_17
REMARK                            x       y       z     vdW  Elec       q    Type
REMARK                         _______ _______ _______ _____ _____    ______ ____
ROOT
ATOM      1  C   UNL     1       4.247   6.025  18.499  0.00  0.00    +0.000 A 
ATOM      2  C   UNL     1       3.761   6.922  17.576  0.00  0.00    +0.000 A 
ATOM      3  C   UNL     1       2.746   7.654  18.230  0.00  0.00    +0.000 A 
ATOM      4  C   UNL     1       1.901   8.700  17.867  0.00  0.00    +0.000 A 
ATOM      5  C   UNL     1       0.999   9.166  18.827  0.00  0.00    +0.000 A 
ATOM      6  N   UNL     1       0.937   8.652  20.090  0.00  0.00    +0.000 NA
ATOM      7  C   UNL     1       1.755   7.625  20.450  0.00  0.00    +0.000 A 
ATOM      8  C   UNL     1       2.654   7.146  19.515  0.00  0.00    +0.000 A 
ATOM      9  O   UNL     1       3.568   6.153  19.678  0.00  0.00    +0.000 OA
ENDROOT
BRANCH   1  15
ATOM     10  C   UNL     1       6.803   4.420  14.499  0.00  0.00    +0.000 C 
ATOM     11  O   UNL     1       7.830   5.014  14.171  0.00  0.00    +0.000 OA
ATOM     12  N   UNL     1       6.138   4.732  15.661  0.00  0.00    +0.000 N 
ATOM     13  C   UNL     1       6.599   5.897  16.416  0.00  0.00    +0.000 C 
ATOM     14  C   UNL     1       6.648   5.606  17.908  0.00  0.00    +0.000 C 
ATOM     15  C   UNL     1       5.336   5.007  18.413  0.00  0.00    +0.000 C 
ATOM     16  C   UNL     1       4.927   3.792  17.573  0.00  0.00    +0.000 C 
ATOM     17  C   UNL     1       4.896   4.097  16.079  0.00  0.00    +0.000 C 
BRANCH  10  18
ATOM     18  O   UNL     1       6.241   3.408  13.777  0.00  0.00    +0.000 OA
BRANCH  18  20
ATOM     19  C   UNL     1       7.120   4.716  11.902  0.00  0.00    +0.000 C 
ATOM     20  C   UNL     1       6.207   3.558  12.332  0.00  0.00    +0.000 C 
ATOM     21  C   UNL     1       4.761   3.729  11.843  0.00  0.00    +0.000 C 
ATOM     22  C   UNL     1       6.781   2.274  11.698  0.00  0.00    +0.000 C 
ENDBRANCH  18  20
ENDBRANCH  10  18
ENDBRANCH   1  15
BRANCH   5  23
ATOM     23  C   UNL     1       0.069  10.261  18.529  0.00  0.00    +0.000 A 
ATOM     24  C   UNL     1      -1.096  10.041  17.777  0.00  0.00    +0.000 A 
ATOM     25  C   UNL     1      -1.954  11.103  17.526  0.00  0.00    +0.000 A 
ATOM     26  N   UNL     1      -1.749  12.361  17.969  0.00  0.00    +0.000 NA
ATOM     27  C   UNL     1      -0.624  12.564  18.690  0.00  0.00    +0.000 A 
ATOM     28  C   UNL     1       0.289  11.569  18.985  0.00  0.00    +0.000 A 
ATOM     29  F   UNL     1       1.377  11.886  19.702  0.00  0.00    +0.000 F 
ENDBRANCH   5  23
TORSDOF 4
ENDMDL
MODEL 2
REMARK VINA RESULT:      -8.7      1.449      1.925
REMARK  Name = 
REMARK  7 active torsions:
REMARK  status: ('A' for Active; 'I' for Inactive)
REMARK    1  A    between atoms: C_1  and  C_2
REMARK    2  A    between atoms: C_2  and  C_3
REMARK    3  A    between atoms: C_2  and  C_4
REMARK    4  A    between atoms: C_2  and  O_5
REMARK    5  A    between atoms: O_5  and  C_6
REMARK    6  A    between atoms: C_11  and  C_12
REMARK    7  A    between atoms: C_16  and  C_17
REMARK                            x       y       z     vdW  Elec       q    Type
REMARK                         _______ _______ _______ _____ _____    ______ ____
ROOT
ATOM      1  C   UNL     1       3.141   5.757  19.318  0.00  0.00    +0.000 A 
ATOM      2  C   UNL     1       2.989   6.718  18.345  0.00  0.00    +0.000 A 
ATOM      3  C   UNL     1       2.206   7.743  18.919  0.00  0.00    +0.000 A 
ATOM      4  C   UNL     1       1.728   8.976  18.479  0.00  0.00    +0.000 A 
ATOM      5  C   UNL     1       0.958   9.726  19.371  0.00  0.00    +0.000 A 
ATOM      6  N   UNL     1       0.683   9.307  20.641  0.00  0.00    +0.000 NA
ATOM      7  C   UNL     1       1.141   8.100  21.074  0.00  0.00    +0.000 A 
ATOM      8  C   UNL     1       1.903   7.339  20.208  0.00  0.00    +0.000 A 
ATOM      9  O   UNL     1       2.472   6.128  20.450  0.00  0.00    +0.000 OA
ENDROOT
BRANCH   1  15
ATOM     10  C   UNL     1       6.840   4.186  16.325  0.00  0.00    +0.000 C 
ATOM     11  O   UNL     1       8.004   4.435  16.637  0.00  0.00    +0.000 OA
ATOM     12  N   UNL     1       5.796   4.474  17.172  0.00  0.00    +0.000 N 
ATOM     13  C   UNL     1       6.097   5.229  18.389  0.00  0.00    +0.000 C 
ATOM     14  C   UNL     1       5.373   4.649  19.593  0.00  0.00    +0.000 C 
ATOM     15  C   UNL     1       3.881   4.461  19.323  0.00  0.00    +0.000 C 
ATOM     16  C   UNL     1       3.653   3.659  18.037  0.00  0.00    +0.000 C 
ATOM     17  C   UNL     1       4.397   4.245  16.841  0.00  0.00    +0.000 C 
BRANCH  10  18
ATOM     18  O   UNL     1       6.471   3.600  15.149  0.00  0.00    +0.000 OA
BRANCH  18  20
ATOM     19  C   UNL     1       7.696   4.832  13.422  0.00  0.00    +0.000 C 
ATOM     20  C   UNL     1       6.318   4.466  13.992  0.00  0.00    +0.000 C 
ATOM     21  C   UNL     1       5.478   5.701  14.352  0.00  0.00    +0.000 C 
ATOM     22  C   UNL     1       5.572   3.680  12.895  0.00  0.00    +0.000 C 
ENDBRANCH  18  20
ENDBRANCH  10  18
ENDBRANCH   1  15
BRANCH   5  23
ATOM     23  C   UNL     1       0.411  11.034  18.990  0.00  0.00    +0.000 A 
ATOM     24  C   UNL     1       1.187  12.201  19.077  0.00  0.00    +0.000 A 
ATOM     25  C   UNL     1       0.634  13.415  18.697  0.00  0.00    +0.000 A 
ATOM     26  N   UNL     1      -0.625  13.560  18.233  0.00  0.00    +0.000 NA
ATOM     27  C   UNL     1      -1.366  12.432  18.156  0.00  0.00    +0.000 A 
ATOM     28  C   UNL     1      -0.900  11.181  18.516  0.00  0.00    +0.000 A 
ATOM     29  F   UNL     1      -1.727  10.131  18.405  0.00  0.00    +0.000 F 
ENDBRANCH   5  23
TORSDOF 4
ENDMDL
MODEL 3
REMARK VINA RESULT:      -8.7      0.908      1.236
REMARK  Name = 
REMARK  7 active torsions:
REMARK  status: ('A' for Active; 'I' for Inactive)
REMARK    1  A    between atoms: C_1  and  C_2
REMARK    2  A    between atoms: C_2  and  C_3
REMARK    3  A    between atoms: C_2  and  C_4
REMARK    4  A    between atoms: C_2  and  O_5
REMARK    5  A    between atoms: O_5  and  C_6
REMARK    6  A    between atoms: C_11  and  C_12
REMARK    7  A    between atoms: C_16  and  C_17
REMARK                            x       y       z     vdW  Elec       q    Type
REMARK                         _______ _______ _______ _____ _____    ______ ____
ROOT
ATOM      1  C   UNL     1       4.039   5.914  18.576  0.00  0.00    +0.000 A 
ATOM      2  C   UNL     1       3.751   6.934  17.698  0.00  0.00    +0.000 A 
ATOM      3  C   UNL     1       2.796   7.752  18.340  0.00  0.00    +0.000 A 
ATOM      4  C   UNL     1       2.130   8.930  18.006  0.00  0.00    +0.000 A 
ATOM      5  C   UNL     1       1.227   9.447  18.939  0.00  0.00    +0.000 A 
ATOM      6  N   UNL     1       0.997   8.858  20.148  0.00  0.00    +0.000 NA
ATOM      7  C   UNL     1       1.640   7.703  20.477  0.00  0.00    +0.000 A 
ATOM      8  C   UNL     1       2.536   7.171  19.570  0.00  0.00    +0.000 A 
ATOM      9  O   UNL     1       3.293   6.051  19.712  0.00  0.00    +0.000 OA
ENDROOT
BRANCH   1  15
ATOM     10  C   UNL     1       6.594   4.204  14.619  0.00  0.00    +0.000 C 
ATOM     11  O   UNL     1       7.710   4.669  14.385  0.00  0.00    +0.000 OA
ATOM     12  N   UNL     1       5.907   4.538  15.762  0.00  0.00    +0.000 N 
ATOM     13  C   UNL     1       6.474   5.583  16.615  0.00  0.00    +0.000 C 
ATOM     14  C   UNL     1       6.393   5.203  18.085  0.00  0.00    +0.000 C 
ATOM     15  C   UNL     1       4.984   4.763  18.481  0.00  0.00    +0.000 C 
ATOM     16  C   UNL     1       4.467   3.666  17.543  0.00  0.00    +0.000 C 
ATOM     17  C   UNL     1       4.568   4.057  16.072  0.00  0.00    +0.000 C 
BRANCH  10  18
ATOM     18  O   UNL     1       5.946   3.323  13.804  0.00  0.00    +0.000 OA
BRANCH  18  20
ATOM     19  C   UNL     1       7.057   4.667  12.083  0.00  0.00    +0.000 C 
ATOM     20  C   UNL     1       6.078   3.519  12.370  0.00  0.00    +0.000 C 
ATOM     21  C   UNL     1       4.699   3.741  11.729  0.00  0.00    +0.000 C 
ATOM     22  C   UNL     1       6.692   2.242  11.761  0.00  0.00    +0.000 C 
ENDBRANCH  18  20
ENDBRANCH  10  18
ENDBRANCH   1  15
BRANCH   5  23
ATOM     23  C   UNL     1       0.478  10.681  18.669  0.00  0.00    +0.000 A 
ATOM     24  C   UNL     1       1.080  11.942  18.806  0.00  0.00    +0.000 A 
ATOM     25  C   UNL     1       0.340  13.082  18.531  0.00  0.00    +0.000 A 
ATOM     26  N   UNL     1      -0.947  13.068  18.125  0.00  0.00    +0.000 NA
ATOM     27  C   UNL     1      -1.520  11.850  17.999  0.00  0.00    +0.000 A 
ATOM     28  C   UNL     1      -0.861  10.662  18.255  0.00  0.00    +0.000 A 
ATOM     29  F   UNL     1      -1.531   9.510  18.105  0.00  0.00    +0.000 F 
ENDBRANCH   5  23
TORSDOF 4
ENDMDL
MODEL 4
REMARK VINA RESULT:      -8.6      3.639     10.222
REMARK  Name = 
REMARK  7 active torsions:
REMARK  status: ('A' for Active; 'I' for Inactive)
REMARK    1  A    between atoms: C_1  and  C_2
REMARK    2  A    between atoms: C_2  and  C_3
REMARK    3  A    between atoms: C_2  and  C_4
REMARK    4  A    between atoms: C_2  and  O_5
REMARK    5  A    between atoms: O_5  and  C_6
REMARK    6  A    between atoms: C_11  and  C_12
REMARK    7  A    between atoms: C_16  and  C_17
REMARK                            x       y       z     vdW  Elec       q    Type
REMARK                         _______ _______ _______ _____ _____    ______ ____
ROOT
ATOM      1  C   UNL     1       1.005   9.467  18.449  0.00  0.00    +0.000 A 
ATOM      2  C   UNL     1       2.049   9.375  17.558  0.00  0.00    +0.000 A 
ATOM      3  C   UNL     1       2.775   8.217  17.916  0.00  0.00    +0.000 A 
ATOM      4  C   UNL     1       3.899   7.568  17.410  0.00  0.00    +0.000 A 
ATOM      5  C   UNL     1       4.326   6.410  18.065  0.00  0.00    +0.000 A 
ATOM      6  N   UNL     1       3.677   5.895  19.150  0.00  0.00    +0.000 NA
ATOM      7  C   UNL     1       2.582   6.529  19.654  0.00  0.00    +0.000 A 
ATOM      8  C   UNL     1       2.142   7.678  19.023  0.00  0.00    +0.000 A 
ATOM      9  O   UNL     1       1.065   8.440  19.348  0.00  0.00    +0.000 OA
ENDROOT
BRANCH   1  15
ATOM     10  C   UNL     1       0.436  13.276  21.655  0.00  0.00    +0.000 C 
ATOM     11  O   UNL     1       0.891  14.379  21.355  0.00  0.00    +0.000 OA
ATOM     12  N   UNL     1       0.445  12.233  20.760  0.00  0.00    +0.000 N 
ATOM     13  C   UNL     1       1.154  12.428  19.495  0.00  0.00    +0.000 C 
ATOM     14  C   UNL     1       0.353  11.885  18.322  0.00  0.00    +0.000 C 
ATOM     15  C   UNL     1      -0.112  10.451  18.567  0.00  0.00    +0.000 C 
ATOM     16  C   UNL     1      -0.847  10.333  19.907  0.00  0.00    +0.000 C 
ATOM     17  C   UNL     1      -0.037  10.894  21.071  0.00  0.00    +0.000 C 
BRANCH  10  18
ATOM     18  O   UNL     1      -0.124  12.982  22.864  0.00  0.00    +0.000 OA
BRANCH  18  20
ATOM     19  C   UNL     1      -2.346  12.244  23.585  0.00  0.00    +0.000 C 
ATOM     20  C   UNL     1      -1.492  13.419  23.088  0.00  0.00    +0.000 C 
ATOM     21  C   UNL     1      -2.062  14.074  21.821  0.00  0.00    +0.000 C 
ATOM     22  C   UNL     1      -1.484  14.475  24.213  0.00  0.00    +0.000 C 
ENDBRANCH  18  20
ENDBRANCH  10  18
ENDBRANCH   1  15
BRANCH   5  23
ATOM     23  C   UNL     1       5.503   5.665  17.604  0.00  0.00    +0.000 A 
ATOM     24  C   UNL     1       5.607   5.219  16.276  0.00  0.00    +0.000 A 
ATOM     25  C   UNL     1       6.742   4.526  15.878  0.00  0.00    +0.000 A 
ATOM     26  N   UNL     1       7.782   4.249  16.693  0.00  0.00    +0.000 NA
ATOM     27  C   UNL     1       7.671   4.679  17.969  0.00  0.00    +0.000 A 
ATOM     28  C   UNL     1       6.578   5.372  18.454  0.00  0.00    +0.000 A 
ATOM     29  F   UNL     1       6.572   5.743  19.743  0.00  0.00    +0.000 F 
ENDBRANCH   5  23
TORSDOF 4
ENDMDL
MODEL 5
REMARK VINA RESULT:      -8.6      3.670     10.278
REMARK  Name = 
REMARK  7 active torsions:
REMARK  status: ('A' for Active; 'I' for Inactive)
REMARK    1  A    between atoms: C_1  and  C_2
REMARK    2  A    between atoms: C_2  and  C_3
REMARK    3  A    between atoms: C_2  and  C_4
REMARK    4  A    between atoms: C_2  and  O_5
REMARK    5  A    between atoms: O_5  and  C_6
REMARK    6  A    between atoms: C_11  and  C_12
REMARK    7  A    between atoms: C_16  and  C_17
REMARK                            x       y       z     vdW  Elec       q    Type
REMARK                         _______ _______ _______ _____ _____    ______ ____
ROOT
ATOM      1  C   UNL     1       1.031   9.465  18.410  0.00  0.00    +0.000 A 
ATOM      2  C   UNL     1       2.102   9.381  17.550  0.00  0.00    +0.000 A 
ATOM      3  C   UNL     1       2.827   8.230  17.930  0.00  0.00    +0.000 A 
ATOM      4  C   UNL     1       3.971   7.590  17.458  0.00  0.00    +0.000 A 
ATOM      5  C   UNL     1       4.388   6.436  18.127  0.00  0.00    +0.000 A 
ATOM      6  N   UNL     1       3.712   5.916  19.192  0.00  0.00    +0.000 NA
ATOM      7  C   UNL     1       2.597   6.541  19.663  0.00  0.00    +0.000 A 
ATOM      8  C   UNL     1       2.166   7.685  19.019  0.00  0.00    +0.000 A 
ATOM      9  O   UNL     1       1.073   8.439  19.311  0.00  0.00    +0.000 OA
ENDROOT
BRANCH   1  15
ATOM     10  C   UNL     1       0.177  13.071  21.783  0.00  0.00    +0.000 C 
ATOM     11  O   UNL     1       0.649  14.190  21.589  0.00  0.00    +0.000 OA
ATOM     12  N   UNL     1       0.266  12.084  20.830  0.00  0.00    +0.000 N 
ATOM     13  C   UNL     1       1.076  12.356  19.642  0.00  0.00    +0.000 C 
ATOM     14  C   UNL     1       0.378  11.886  18.376  0.00  0.00    +0.000 C 
ATOM     15  C   UNL     1      -0.097  10.439  18.494  0.00  0.00    +0.000 C 
ATOM     16  C   UNL     1      -0.940  10.238  19.759  0.00  0.00    +0.000 C 
ATOM     17  C   UNL     1      -0.233  10.728  21.018  0.00  0.00    +0.000 C 
BRANCH  10  18
ATOM     18  O   UNL     1      -0.480  12.703  22.921  0.00  0.00    +0.000 OA
BRANCH  18  20
ATOM     19  C   UNL     1      -2.734  12.013  23.590  0.00  0.00    +0.000 C 
ATOM     20  C   UNL     1      -1.851  13.160  23.076  0.00  0.00    +0.000 C 
ATOM     21  C   UNL     1      -2.369  13.764  21.762  0.00  0.00    +0.000 C 
ATOM     22  C   UNL     1      -1.874  14.263  24.154  0.00  0.00    +0.000 C 
ENDBRANCH  18  20
ENDBRANCH  10  18
ENDBRANCH   1  15
BRANCH   5  23
ATOM     23  C   UNL     1       5.585   5.701  17.700  0.00  0.00    +0.000 A 
ATOM     24  C   UNL     1       6.624   5.418  18.601  0.00  0.00    +0.000 A 
ATOM     25  C   UNL     1       7.734   4.712  18.159  0.00  0.00    +0.000 A 
ATOM     26  N   UNL     1       7.888   4.260  16.897  0.00  0.00    +0.000 NA
ATOM     27  C   UNL     1       6.885   4.540  16.036  0.00  0.00    +0.000 A 
ATOM     28  C   UNL     1       5.745   5.240  16.386  0.00  0.00    +0.000 A 
ATOM     29  F   UNL     1       4.816   5.468  15.446  0.00  0.00    +0.000 F 
ENDBRANCH   5  23
TORSDOF 4
ENDMDL
MODEL 6
REMARK VINA RESULT:      -8.6      4.429     10.228
REMARK  Name = 
REMARK  7 active torsions:
REMARK  status: ('A' for Active; 'I' for Inactive)
REMARK    1  A    between atoms: C_1  and  C_2
REMARK    2  A    between atoms: C_2  and  C_3
REMARK    3  A    between atoms: C_2  and  C_4
REMARK    4  A    between atoms: C_2  and  O_5
REMARK    5  A    between atoms: O_5  and  C_6
REMARK    6  A    between atoms: C_11  and  C_12
REMARK    7  A    between atoms: C_16  and  C_17
REMARK                            x       y       z     vdW  Elec       q    Type
REMARK                         _______ _______ _______ _____ _____    ______ ____
ROOT
ATOM      1  C   UNL     1       0.810  10.956  19.339  0.00  0.00    +0.000 A 
ATOM      2  C   UNL     1       1.361  10.253  18.293  0.00  0.00    +0.000 A 
ATOM      3  C   UNL     1       1.644   8.961  18.788  0.00  0.00    +0.000 A 
ATOM      4  C   UNL     1       2.174   7.795  18.241  0.00  0.00    +0.000 A 
ATOM      5  C   UNL     1       2.303   6.687  19.083  0.00  0.00    +0.000 A 
ATOM      6  N   UNL     1       1.916   6.706  20.391  0.00  0.00    +0.000 NA
ATOM      7  C   UNL     1       1.404   7.846  20.934  0.00  0.00    +0.000 A 
ATOM      8  C   UNL     1       1.269   8.955  20.121  0.00  0.00    +0.000 A 
ATOM      9  O   UNL     1       0.762  10.171  20.456  0.00  0.00    +0.000 OA
ENDROOT
BRANCH   1  15
ATOM     10  C   UNL     1      -3.884  12.562  20.043  0.00  0.00    +0.000 C 
ATOM     11  O   UNL     1      -4.292  12.724  21.193  0.00  0.00    +0.000 OA
ATOM     12  N   UNL     1      -2.569  12.253  19.788  0.00  0.00    +0.000 N 
ATOM     13  C   UNL     1      -1.704  11.968  20.933  0.00  0.00    +0.000 C 
ATOM     14  C   UNL     1      -0.350  12.644  20.786  0.00  0.00    +0.000 C 
ATOM     15  C   UNL     1       0.287  12.351  19.428  0.00  0.00    +0.000 C 
ATOM     16  C   UNL     1      -0.681  12.680  18.285  0.00  0.00    +0.000 C 
ATOM     17  C   UNL     1      -2.039  12.006  18.455  0.00  0.00    +0.000 C 
BRANCH  10  18
ATOM     18  O   UNL     1      -4.664  12.684  18.930  0.00  0.00    +0.000 OA
BRANCH  18  20
ATOM     19  C   UNL     1      -6.552  11.632  20.084  0.00  0.00    +0.000 C 
ATOM     20  C   UNL     1      -5.757  11.739  18.775  0.00  0.00    +0.000 C 
ATOM     21  C   UNL     1      -5.227  10.381  18.290  0.00  0.00    +0.000 C 
ATOM     22  C   UNL     1      -6.724  12.288  17.706  0.00  0.00    +0.000 C 
ENDBRANCH  18  20
ENDBRANCH  10  18
ENDBRANCH   1  15
BRANCH   5  23
ATOM     23  C   UNL     1       2.856   5.419  18.591  0.00  0.00    +0.000 A 
ATOM     24  C   UNL     1       2.106   4.573  17.758  0.00  0.00    +0.000 A 
ATOM     25  C   UNL     1       2.670   3.388  17.308  0.00  0.00    +0.000 A 
ATOM     26  N   UNL     1       3.920   2.981  17.615  0.00  0.00    +0.000 NA
ATOM     27  C   UNL     1       4.632   3.800  18.420  0.00  0.00    +0.000 A 
ATOM     28  C   UNL     1       4.151   4.996  18.919  0.00  0.00    +0.000 A 
ATOM     29  F   UNL     1       4.945   5.725  19.717  0.00  0.00    +0.000 F 
ENDBRANCH   5  23
TORSDOF 4
ENDMDL
MODEL 7
REMARK VINA RESULT:      -8.5      1.248      1.570
REMARK  Name = 
REMARK  7 active torsions:
REMARK  status: ('A' for Active; 'I' for Inactive)
REMARK    1  A    between atoms: C_1  and  C_2
REMARK    2  A    between atoms: C_2  and  C_3
REMARK    3  A    between atoms: C_2  and  C_4
REMARK    4  A    between atoms: C_2  and  O_5
REMARK    5  A    between atoms: O_5  and  C_6
REMARK    6  A    between atoms: C_11  and  C_12
REMARK    7  A    between atoms: C_16  and  C_17
REMARK                            x       y       z     vdW  Elec       q    Type
REMARK                         _______ _______ _______ _____ _____    ______ ____
ROOT
ATOM      1  C   UNL     1       3.171   5.747  19.260  0.00  0.00    +0.000 A 
ATOM      2  C   UNL     1       2.969   6.679  18.268  0.00  0.00    +0.000 A 
ATOM      3  C   UNL     1       2.202   7.715  18.846  0.00  0.00    +0.000 A 
ATOM      4  C   UNL     1       1.695   8.931  18.393  0.00  0.00    +0.000 A 
ATOM      5  C   UNL     1       0.958   9.700  19.297  0.00  0.00    +0.000 A 
ATOM      6  N   UNL     1       0.742   9.315  20.589  0.00  0.00    +0.000 NA
ATOM      7  C   UNL     1       1.229   8.124  21.035  0.00  0.00    +0.000 A 
ATOM      8  C   UNL     1       1.959   7.345  20.158  0.00  0.00    +0.000 A 
ATOM      9  O   UNL     1       2.549   6.146  20.409  0.00  0.00    +0.000 OA
ENDROOT
BRANCH   1  15
ATOM     10  C   UNL     1       6.827   4.165  16.220  0.00  0.00    +0.000 C 
ATOM     11  O   UNL     1       7.994   4.428  16.506  0.00  0.00    +0.000 OA
ATOM     12  N   UNL     1       5.797   4.457  17.082  0.00  0.00    +0.000 N 
ATOM     13  C   UNL     1       6.114   5.231  18.283  0.00  0.00    +0.000 C 
ATOM     14  C   UNL     1       5.418   4.662  19.509  0.00  0.00    +0.000 C 
ATOM     15  C   UNL     1       3.923   4.458  19.269  0.00  0.00    +0.000 C 
ATOM     16  C   UNL     1       3.677   3.636  17.999  0.00  0.00    +0.000 C 
ATOM     17  C   UNL     1       4.393   4.212  16.781  0.00  0.00    +0.000 C 
BRANCH  10  18
ATOM     18  O   UNL     1       6.441   3.560  15.059  0.00  0.00    +0.000 OA
BRANCH  18  20
ATOM     19  C   UNL     1       5.549   5.727  14.344  0.00  0.00    +0.000 C 
ATOM     20  C   UNL     1       6.215   4.414  13.906  0.00  0.00    +0.000 C 
ATOM     21  C   UNL     1       5.406   3.667  12.834  0.00  0.00    +0.000 C 
ATOM     22  C   UNL     1       7.585   4.785  13.302  0.00  0.00    +0.000 C 
ENDBRANCH  18  20
ENDBRANCH  10  18
ENDBRANCH   1  15
BRANCH   5  23
ATOM     23  C   UNL     1       0.383  10.992  18.904  0.00  0.00    +0.000 A 
ATOM     24  C   UNL     1      -0.972  11.110  18.556  0.00  0.00    +0.000 A 
ATOM     25  C   UNL     1      -1.478  12.352  18.200  0.00  0.00    +0.000 A 
ATOM     26  N   UNL     1      -0.745  13.485  18.169  0.00  0.00    +0.000 NA
ATOM     27  C   UNL     1       0.559  13.362  18.502  0.00  0.00    +0.000 A 
ATOM     28  C   UNL     1       1.149  12.166  18.865  0.00  0.00    +0.000 A 
ATOM     29  F   UNL     1       2.455  12.159  19.169  0.00  0.00    +0.000 F 
ENDBRANCH   5  23
TORSDOF 4
ENDMDL
MODEL 8
REMARK VINA RESULT:      -8.5      4.433     10.278
REMARK  Name = 
REMARK  7 active torsions:
REMARK  status: ('A' for Active; 'I' for Inactive)
REMARK    1  A    between atoms: C_1  and  C_2
REMARK    2  A    between atoms: C_2  and  C_3
REMARK    3  A    between atoms: C_2  and  C_4
REMARK    4  A    between atoms: C_2  and  O_5
REMARK    5  A    between atoms: O_5  and  C_6
REMARK    6  A    between atoms: C_11  and  C_12
REMARK    7  A    between atoms: C_16  and  C_17
REMARK                            x       y       z     vdW  Elec       q    Type
REMARK                         _______ _______ _______ _____ _____    ______ ____
ROOT
ATOM      1  C   UNL     1       0.765  11.029  19.280  0.00  0.00    +0.000 A 
ATOM      2  C   UNL     1       1.379  10.342  18.258  0.00  0.00    +0.000 A 
ATOM      3  C   UNL     1       1.668   9.055  18.763  0.00  0.00    +0.000 A 
ATOM      4  C   UNL     1       2.249   7.903  18.237  0.00  0.00    +0.000 A 
ATOM      5  C   UNL     1       2.364   6.796  19.081  0.00  0.00    +0.000 A 
ATOM      6  N   UNL     1       1.917   6.801  20.371  0.00  0.00    +0.000 NA
ATOM      7  C   UNL     1       1.355   7.927  20.892  0.00  0.00    +0.000 A 
ATOM      8  C   UNL     1       1.232   9.036  20.077  0.00  0.00    +0.000 A 
ATOM      9  O   UNL     1       0.683  10.239  20.391  0.00  0.00    +0.000 OA
ENDROOT
BRANCH   1  15
ATOM     10  C   UNL     1      -3.969  12.526  19.962  0.00  0.00    +0.000 C 
ATOM     11  O   UNL     1      -4.380  12.695  21.109  0.00  0.00    +0.000 OA
ATOM     12  N   UNL     1      -2.646  12.247  19.711  0.00  0.00    +0.000 N 
ATOM     13  C   UNL     1      -1.774  12.000  20.860  0.00  0.00    +0.000 C 
ATOM     14  C   UNL     1      -0.438  12.709  20.702  0.00  0.00    +0.000 C 
ATOM     15  C   UNL     1       0.206  12.412  19.349  0.00  0.00    +0.000 C 
ATOM     16  C   UNL     1      -0.769  12.699  18.201  0.00  0.00    +0.000 C 
ATOM     17  C   UNL     1      -2.110  11.993  18.381  0.00  0.00    +0.000 C 
BRANCH  10  18
ATOM     18  O   UNL     1      -4.752  12.612  18.848  0.00  0.00    +0.000 OA
BRANCH  18  20
ATOM     19  C   UNL     1      -5.346  10.294  18.323  0.00  0.00    +0.000 C 
ATOM     20  C   UNL     1      -5.861  11.680  18.739  0.00  0.00    +0.000 C 
ATOM     21  C   UNL     1      -6.932  12.227  17.783  0.00  0.00    +0.000 C 
ATOM     22  C   UNL     1      -6.498  11.521  20.135  0.00  0.00    +0.000 C 
ENDBRANCH  18  20
ENDBRANCH  10  18
ENDBRANCH   1  15
BRANCH   5  23
ATOM     23  C   UNL     1       2.968   5.542  18.613  0.00  0.00    +0.000 A 
ATOM     24  C   UNL     1       4.274   5.181  18.980  0.00  0.00    +0.000 A 
ATOM     25  C   UNL     1       4.803   3.983  18.523  0.00  0.00    +0.000 A 
ATOM     26  N   UNL     1       4.134   3.113  17.737  0.00  0.00    +0.000 NA
ATOM     27  C   UNL     1       2.879   3.470  17.385  0.00  0.00    +0.000 A 
ATOM     28  C   UNL     1       2.273   4.645  17.789  0.00  0.00    +0.000 A 
ATOM     29  F   UNL     1       1.024   4.901  17.373  0.00  0.00    +0.000 F 
ENDBRANCH   5  23
TORSDOF 4
ENDMDL
MODEL 9
REMARK VINA RESULT:      -8.5      3.518      9.477
REMARK  Name = 
REMARK  7 active torsions:
REMARK  status: ('A' for Active; 'I' for Inactive)
REMARK    1  A    between atoms: C_1  and  C_2
REMARK    2  A    between atoms: C_2  and  C_3
REMARK    3  A    between atoms: C_2  and  C_4
REMARK    4  A    between atoms: C_2  and  O_5
REMARK    5  A    between atoms: O_5  and  C_6
REMARK    6  A    between atoms: C_11  and  C_12
REMARK    7  A    between atoms: C_16  and  C_17
REMARK                            x       y       z     vdW  Elec       q    Type
REMARK                         _______ _______ _______ _____ _____    ______ ____
ROOT
ATOM      1  C   UNL     1       1.000   8.881  19.811  0.00  0.00    +0.000 A 
ATOM      2  C   UNL     1       1.699   8.966  18.629  0.00  0.00    +0.000 A 
ATOM      3  C   UNL     1       2.515   7.814  18.567  0.00  0.00    +0.000 A 
ATOM      4  C   UNL     1       3.421   7.302  17.641  0.00  0.00    +0.000 A 
ATOM      5  C   UNL     1       4.051   6.094  17.953  0.00  0.00    +0.000 A 
ATOM      6  N   UNL     1       3.796   5.406  19.104  0.00  0.00    +0.000 NA
ATOM      7  C   UNL     1       2.916   5.905  20.016  0.00  0.00    +0.000 A 
ATOM      8  C   UNL     1       2.283   7.099  19.730  0.00  0.00    +0.000 A 
ATOM      9  O   UNL     1       1.361   7.750  20.487  0.00  0.00    +0.000 OA
ENDROOT
BRANCH   1  15
ATOM     10  C   UNL     1       0.324  13.813  19.240  0.00  0.00    +0.000 C 
ATOM     11  O   UNL     1      -0.396  14.213  18.326  0.00  0.00    +0.000 OA
ATOM     12  N   UNL     1       0.437  12.473  19.525  0.00  0.00    +0.000 N 
ATOM     13  C   UNL     1      -0.199  11.526  18.609  0.00  0.00    +0.000 C 
ATOM     14  C   UNL     1      -0.925  10.426  19.366  0.00  0.00    +0.000 C 
ATOM     15  C   UNL     1      -0.029   9.775  20.419  0.00  0.00    +0.000 C 
ATOM     16  C   UNL     1       0.594  10.831  21.338  0.00  0.00    +0.000 C 
ATOM     17  C   UNL     1       1.306  11.936  20.564  0.00  0.00    +0.000 C 
BRANCH  10  18
ATOM     18  O   UNL     1       1.050  14.631  20.056  0.00  0.00    +0.000 OA
BRANCH  18  20
ATOM     19  C   UNL     1       1.515  16.696  18.823  0.00  0.00    +0.000 C 
ATOM     20  C   UNL     1       2.104  15.419  19.442  0.00  0.00    +0.000 C 
ATOM     21  C   UNL     1       2.886  14.573  18.425  0.00  0.00    +0.000 C 
ATOM     22  C   UNL     1       3.082  15.866  20.548  0.00  0.00    +0.000 C 
ENDBRANCH  18  20
ENDBRANCH  10  18
ENDBRANCH   1  15
BRANCH   5  23
ATOM     23  C   UNL     1       5.023   5.485  17.038  0.00  0.00    +0.000 A 
ATOM     24  C   UNL     1       4.749   4.269  16.390  0.00  0.00    +0.000 A 
ATOM     25  C   UNL     1       5.691   3.732  15.525  0.00  0.00    +0.000 A 
ATOM     26  N   UNL     1       6.879   4.310  15.248  0.00  0.00    +0.000 NA
ATOM     27  C   UNL     1       7.135   5.478  15.878  0.00  0.00    +0.000 A 
ATOM     28  C   UNL     1       6.259   6.084  16.759  0.00  0.00    +0.000 A 
ATOM     29  F   UNL     1       6.622   7.240  17.334  0.00  0.00    +0.000 F 
ENDBRANCH   5  23
TORSDOF 4
ENDMDL
