MODEL 1
REMARK VINA RESULT:      -8.3      0.000      0.000
REMARK  Name = 
REMARK  11 active torsions:
REMARK  status: ('A' for Active; 'I' for Inactive)
REMARK    1  A    between atoms: C_1  and  O_2
REMARK    2  A    between atoms: O_2  and  C_3
REMARK    3  A    between atoms: C_3  and  C_5
REMARK    4  A    between atoms: C_8  and  C_9
REMARK    5  A    between atoms: C_9  and  N_10
REMARK    6  A    between atoms: C_13  and  C_14
REMARK    7  A    between atoms: C_14  and  C_15
REMARK    8  A    between atoms: C_15  and  O_16
REMARK    9  A    between atoms: O_16  and  C_17
REMARK   10  A    between atoms: C_17  and  C_18
REMARK   11  A    between atoms: C_17  and  C_24
REMARK                            x       y       z     vdW  Elec       q    Type
REMARK                         _______ _______ _______ _____ _____    ______ ____
ROOT
ATOM      1  N   UNL     1      -0.371  11.560  20.426  0.00  0.00    +0.000 NA
ATOM      2  C   UNL     1       1.083  11.637  20.208  0.00  0.00    +0.000 C 
ATOM      3  C   UNL     1       1.480  11.435  18.741  0.00  0.00    +0.000 C 
ATOM      4  C   UNL     1       0.923  10.134  18.146  0.00  0.00    +0.000 C 
ATOM      5  C   UNL     1      -0.593  10.142  18.371  0.00  0.00    +0.000 C 
ATOM      6  C   UNL     1      -0.960  10.343  19.843  0.00  0.00    +0.000 C 
ENDROOT
BRANCH   1   7
ATOM      7  C   UNL     1      -0.694  11.603  21.870  0.00  0.00    +0.000 C 
BRANCH   7  11
ATOM      8  C   UNL     1      -4.544  13.349  22.816  0.00  0.00    +0.000 A 
ATOM      9  C   UNL     1      -3.871  12.570  23.764  0.00  0.00    +0.000 A 
ATOM     10  C   UNL     1      -2.631  12.003  23.454  0.00  0.00    +0.000 A 
ATOM     11  C   UNL     1      -2.047  12.204  22.195  0.00  0.00    +0.000 A 
ATOM     12  C   UNL     1      -2.717  13.004  21.258  0.00  0.00    +0.000 A 
ATOM     13  C   UNL     1      -3.955  13.578  21.567  0.00  0.00    +0.000 A 
BRANCH   8  14
ATOM     14  C   UNL     1      -5.874  13.957  23.090  0.00  0.00    +0.000 C 
ATOM     15  O   UNL     1      -6.315  14.923  22.491  0.00  0.00    +0.000 OA
BRANCH  14  17
ATOM     16  C   UNL     1      -7.708  12.594  23.578  0.00  0.00    +0.000 C 
ATOM     17  O   UNL     1      -6.522  13.239  24.042  0.00  0.00    +0.000 OA
ENDBRANCH  14  17
ENDBRANCH   8  14
ENDBRANCH   7  11
ENDBRANCH   1   7
BRANCH   4  18
ATOM     18  C   UNL     1       1.640   8.885  18.710  0.00  0.00    +0.000 C 
BRANCH  18  19
ATOM     19  C   UNL     1       2.685   8.299  17.755  0.00  0.00    +0.000 C 
BRANCH  19  20
ATOM     20  O   UNL     1       3.392   7.248  18.421  0.00  0.00    +0.000 OA
BRANCH  20  21
ATOM     21  C   UNL     1       3.327   5.984  17.722  0.00  0.00    +0.000 C 
BRANCH  21  22
ATOM     22  C   UNL     1       4.735   5.453  17.477  0.00  0.00    +0.000 A 
ATOM     23  C   UNL     1       5.099   4.936  16.223  0.00  0.00    +0.000 A 
ATOM     24  C   UNL     1       6.391   4.457  16.002  0.00  0.00    +0.000 A 
ATOM     25  C   UNL     1       7.334   4.496  17.027  0.00  0.00    +0.000 A 
ATOM     26  C   UNL     1       6.986   5.001  18.278  0.00  0.00    +0.000 A 
ATOM     27  C   UNL     1       5.691   5.472  18.505  0.00  0.00    +0.000 A 
ENDBRANCH  21  22
BRANCH  21  28
ATOM     28  C   UNL     1       2.448   4.987  18.484  0.00  0.00    +0.000 A 
ATOM     29  C   UNL     1       1.952   3.822  17.874  0.00  0.00    +0.000 A 
ATOM     30  C   UNL     1       1.145   2.924  18.583  0.00  0.00    +0.000 A 
ATOM     31  C   UNL     1       0.831   3.168  19.919  0.00  0.00    +0.000 A 
ATOM     32  C   UNL     1       1.336   4.300  20.550  0.00  0.00    +0.000 A 
ATOM     33  C   UNL     1       2.145   5.196  19.845  0.00  0.00    +0.000 A 
ENDBRANCH  21  28
ENDBRANCH  20  21
ENDBRANCH  19  20
ENDBRANCH  18  19
ENDBRANCH   4  18
TORSDOF 10
ENDMDL
MODEL 2
REMARK VINA RESULT:      -8.3      3.447      6.678
REMARK  Name = 
REMARK  11 active torsions:
REMARK  status: ('A' for Active; 'I' for Inactive)
REMARK    1  A    between atoms: C_1  and  O_2
REMARK    2  A    between atoms: O_2  and  C_3
REMARK    3  A    between atoms: C_3  and  C_5
REMARK    4  A    between atoms: C_8  and  C_9
REMARK    5  A    between atoms: C_9  and  N_10
REMARK    6  A    between atoms: C_13  and  C_14
REMARK    7  A    between atoms: C_14  and  C_15
REMARK    8  A    between atoms: C_15  and  O_16
REMARK    9  A    between atoms: O_16  and  C_17
REMARK   10  A    between atoms: C_17  and  C_18
REMARK   11  A    between atoms: C_17  and  C_24
REMARK                            x       y       z     vdW  Elec       q    Type
REMARK                         _______ _______ _______ _____ _____    ______ ____
ROOT
ATOM      1  N   UNL     1       2.698   5.199  19.512  0.00  0.00    +0.000 NA
ATOM      2  C   UNL     1       1.862   4.695  18.409  0.00  0.00    +0.000 C 
ATOM      3  C   UNL     1       1.348   3.270  18.651  0.00  0.00    +0.000 C 
ATOM      4  C   UNL     1       2.475   2.275  18.961  0.00  0.00    +0.000 C 
ATOM      5  C   UNL     1       3.275   2.841  20.139  0.00  0.00    +0.000 C 
ATOM      6  C   UNL     1       3.776   4.262  19.870  0.00  0.00    +0.000 C 
ENDROOT
BRANCH   1   7
ATOM      7  C   UNL     1       3.298   6.507  19.166  0.00  0.00    +0.000 C 
BRANCH   7  11
ATOM      8  C   UNL     1       0.534   9.844  19.190  0.00  0.00    +0.000 A 
ATOM      9  C   UNL     1       0.796   9.136  20.369  0.00  0.00    +0.000 A 
ATOM     10  C   UNL     1       1.684   8.056  20.357  0.00  0.00    +0.000 A 
ATOM     11  C   UNL     1       2.321   7.667  19.170  0.00  0.00    +0.000 A 
ATOM     12  C   UNL     1       2.072   8.395  17.997  0.00  0.00    +0.000 A 
ATOM     13  C   UNL     1       1.188   9.480  18.007  0.00  0.00    +0.000 A 
BRANCH   8  14
ATOM     14  C   UNL     1      -0.418  10.986  19.146  0.00  0.00    +0.000 C 
ATOM     15  O   UNL     1      -0.922  11.411  18.121  0.00  0.00    +0.000 OA
BRANCH  14  17
ATOM     16  C   UNL     1      -0.338  12.792  20.627  0.00  0.00    +0.000 C 
ATOM     17  O   UNL     1      -0.674  11.422  20.405  0.00  0.00    +0.000 OA
ENDBRANCH  14  17
ENDBRANCH   8  14
ENDBRANCH   7  11
ENDBRANCH   1   7
BRANCH   4  18
ATOM     18  C   UNL     1       3.329   1.958  17.711  0.00  0.00    +0.000 C 
BRANCH  18  19
ATOM     19  C   UNL     1       3.558   3.172  16.805  0.00  0.00    +0.000 C 
BRANCH  19  20
ATOM     20  O   UNL     1       4.964   3.389  16.657  0.00  0.00    +0.000 OA
BRANCH  20  21
ATOM     21  C   UNL     1       5.284   4.655  16.038  0.00  0.00    +0.000 C 
BRANCH  21  22
ATOM     22  C   UNL     1       6.220   5.453  16.940  0.00  0.00    +0.000 A 
ATOM     23  C   UNL     1       7.009   4.808  17.907  0.00  0.00    +0.000 A 
ATOM     24  C   UNL     1       7.868   5.542  18.725  0.00  0.00    +0.000 A 
ATOM     25  C   UNL     1       7.954   6.926  18.583  0.00  0.00    +0.000 A 
ATOM     26  C   UNL     1       7.173   7.580  17.632  0.00  0.00    +0.000 A 
ATOM     27  C   UNL     1       6.306   6.850  16.818  0.00  0.00    +0.000 A 
ENDBRANCH  21  22
BRANCH  21  28
ATOM     28  C   UNL     1       5.863   4.443  14.635  0.00  0.00    +0.000 A 
ATOM     29  C   UNL     1       7.084   5.019  14.244  0.00  0.00    +0.000 A 
ATOM     30  C   UNL     1       7.595   4.820  12.956  0.00  0.00    +0.000 A 
ATOM     31  C   UNL     1       6.901   4.033  12.040  0.00  0.00    +0.000 A 
ATOM     32  C   UNL     1       5.705   3.430  12.415  0.00  0.00    +0.000 A 
ATOM     33  C   UNL     1       5.195   3.623  13.703  0.00  0.00    +0.000 A 
ENDBRANCH  21  28
ENDBRANCH  20  21
ENDBRANCH  19  20
ENDBRANCH  18  19
ENDBRANCH   4  18
TORSDOF 10
ENDMDL
MODEL 3
REMARK VINA RESULT:      -8.3      2.998      6.410
REMARK  Name = 
REMARK  11 active torsions:
REMARK  status: ('A' for Active; 'I' for Inactive)
REMARK    1  A    between atoms: C_1  and  O_2
REMARK    2  A    between atoms: O_2  and  C_3
REMARK    3  A    between atoms: C_3  and  C_5
REMARK    4  A    between atoms: C_8  and  C_9
REMARK    5  A    between atoms: C_9  and  N_10
REMARK    6  A    between atoms: C_13  and  C_14
REMARK    7  A    between atoms: C_14  and  C_15
REMARK    8  A    between atoms: C_15  and  O_16
REMARK    9  A    between atoms: O_16  and  C_17
REMARK   10  A    between atoms: C_17  and  C_18
REMARK   11  A    between atoms: C_17  and  C_24
REMARK                            x       y       z     vdW  Elec       q    Type
REMARK                         _______ _______ _______ _____ _____    ______ ____
ROOT
ATOM      1  N   UNL     1       2.164   5.531  19.572  0.00  0.00    +0.000 NA
ATOM      2  C   UNL     1       1.894   5.125  18.182  0.00  0.00    +0.000 C 
ATOM      3  C   UNL     1       1.312   3.710  18.074  0.00  0.00    +0.000 C 
ATOM      4  C   UNL     1       2.177   2.654  18.777  0.00  0.00    +0.000 C 
ATOM      5  C   UNL     1       2.381   3.120  20.223  0.00  0.00    +0.000 C 
ATOM      6  C   UNL     1       2.964   4.532  20.301  0.00  0.00    +0.000 C 
ENDROOT
BRANCH   1   7
ATOM      7  C   UNL     1       2.868   6.832  19.616  0.00  0.00    +0.000 C 
BRANCH   7  11
ATOM      8  C   UNL     1       0.313  10.307  19.205  0.00  0.00    +0.000 A 
ATOM      9  C   UNL     1       0.386   9.625  20.425  0.00  0.00    +0.000 A 
ATOM     10  C   UNL     1       1.207   8.501  20.553  0.00  0.00    +0.000 A 
ATOM     11  C   UNL     1       1.965   8.041  19.467  0.00  0.00    +0.000 A 
ATOM     12  C   UNL     1       1.904   8.742  18.253  0.00  0.00    +0.000 A 
ATOM     13  C   UNL     1       1.088   9.871  18.124  0.00  0.00    +0.000 A 
BRANCH   8  14
ATOM     14  C   UNL     1      -0.561  11.495  19.011  0.00  0.00    +0.000 C 
ATOM     15  O   UNL     1      -0.261  12.452  18.318  0.00  0.00    +0.000 OA
BRANCH  14  17
ATOM     16  C   UNL     1      -2.088  12.383  20.540  0.00  0.00    +0.000 C 
ATOM     17  O   UNL     1      -1.737  11.314  19.662  0.00  0.00    +0.000 OA
ENDBRANCH  14  17
ENDBRANCH   8  14
ENDBRANCH   7  11
ENDBRANCH   1   7
BRANCH   4  18
ATOM     18  C   UNL     1       3.491   2.377  18.010  0.00  0.00    +0.000 C 
BRANCH  18  19
ATOM     19  C   UNL     1       3.676   3.267  16.776  0.00  0.00    +0.000 C 
BRANCH  19  20
ATOM     20  O   UNL     1       5.073   3.397  16.498  0.00  0.00    +0.000 OA
BRANCH  20  21
ATOM     21  C   UNL     1       5.422   4.672  15.912  0.00  0.00    +0.000 C 
BRANCH  21  22
ATOM     22  C   UNL     1       6.343   5.442  16.852  0.00  0.00    +0.000 A 
ATOM     23  C   UNL     1       6.453   6.840  16.764  0.00  0.00    +0.000 A 
ATOM     24  C   UNL     1       7.292   7.540  17.632  0.00  0.00    +0.000 A 
ATOM     25  C   UNL     1       8.023   6.855  18.600  0.00  0.00    +0.000 A 
ATOM     26  C   UNL     1       7.927   5.468  18.696  0.00  0.00    +0.000 A 
ATOM     27  C   UNL     1       7.097   4.763  17.823  0.00  0.00    +0.000 A 
ENDBRANCH  21  22
BRANCH  21  28
ATOM     28  C   UNL     1       6.033   4.481  14.519  0.00  0.00    +0.000 A 
ATOM     29  C   UNL     1       7.210   5.143  14.131  0.00  0.00    +0.000 A 
ATOM     30  C   UNL     1       7.751   4.962  12.853  0.00  0.00    +0.000 A 
ATOM     31  C   UNL     1       7.132   4.107  11.944  0.00  0.00    +0.000 A 
ATOM     32  C   UNL     1       5.982   3.419  12.317  0.00  0.00    +0.000 A 
ATOM     33  C   UNL     1       5.442   3.595  13.596  0.00  0.00    +0.000 A 
ENDBRANCH  21  28
ENDBRANCH  20  21
ENDBRANCH  19  20
ENDBRANCH  18  19
ENDBRANCH   4  18
TORSDOF 10
ENDMDL
MODEL 4
REMARK VINA RESULT:      -8.2      3.352      6.379
REMARK  Name = 
REMARK  11 active torsions:
REMARK  status: ('A' for Active; 'I' for Inactive)
REMARK    1  A    between atoms: C_1  and  O_2
REMARK    2  A    between atoms: O_2  and  C_3
REMARK    3  A    between atoms: C_3  and  C_5
REMARK    4  A    between atoms: C_8  and  C_9
REMARK    5  A    between atoms: C_9  and  N_10
REMARK    6  A    between atoms: C_13  and  C_14
REMARK    7  A    between atoms: C_14  and  C_15
REMARK    8  A    between atoms: C_15  and  O_16
REMARK    9  A    between atoms: O_16  and  C_17
REMARK   10  A    between atoms: C_17  and  C_18
REMARK   11  A    between atoms: C_17  and  C_24
REMARK                            x       y       z     vdW  Elec       q    Type
REMARK                         _______ _______ _______ _____ _____    ______ ____
ROOT
ATOM      1  N   UNL     1       2.213   5.597  19.261  0.00  0.00    +0.000 NA
ATOM      2  C   UNL     1       1.714   4.868  18.083  0.00  0.00    +0.000 C 
ATOM      3  C   UNL     1       1.315   3.421  18.399  0.00  0.00    +0.000 C 
ATOM      4  C   UNL     1       2.440   2.627  19.078  0.00  0.00    +0.000 C 
ATOM      5  C   UNL     1       2.878   3.421  20.313  0.00  0.00    +0.000 C 
ATOM      6  C   UNL     1       3.273   4.858  19.969  0.00  0.00    +0.000 C 
ENDROOT
BRANCH   1   7
ATOM      7  C   UNL     1       2.733   6.929  18.879  0.00  0.00    +0.000 C 
BRANCH   7  11
ATOM      8  C   UNL     1       0.418  10.276  20.367  0.00  0.00    +0.000 A 
ATOM      9  C   UNL     1       0.707   9.191  21.203  0.00  0.00    +0.000 A 
ATOM     10  C   UNL     1       1.450   8.109  20.719  0.00  0.00    +0.000 A 
ATOM     11  C   UNL     1       1.912   8.096  19.395  0.00  0.00    +0.000 A 
ATOM     12  C   UNL     1       1.637   9.196  18.569  0.00  0.00    +0.000 A 
ATOM     13  C   UNL     1       0.900  10.281  19.053  0.00  0.00    +0.000 A 
BRANCH   8  14
ATOM     14  C   UNL     1      -0.386  11.439  20.828  0.00  0.00    +0.000 C 
ATOM     15  O   UNL     1      -1.506  11.695  20.421  0.00  0.00    +0.000 OA
BRANCH  14  17
ATOM     16  C   UNL     1       0.304  13.528  21.616  0.00  0.00    +0.000 C 
ATOM     17  O   UNL     1       0.289  12.112  21.795  0.00  0.00    +0.000 OA
ENDBRANCH  14  17
ENDBRANCH   8  14
ENDBRANCH   7  11
ENDBRANCH   1   7
BRANCH   4  18
ATOM     18  C   UNL     1       3.589   2.295  18.098  0.00  0.00    +0.000 C 
BRANCH  18  19
ATOM     19  C   UNL     1       3.667   3.252  16.903  0.00  0.00    +0.000 C 
BRANCH  19  20
ATOM     20  O   UNL     1       5.022   3.327  16.450  0.00  0.00    +0.000 OA
BRANCH  20  21
ATOM     21  C   UNL     1       5.360   4.607  15.869  0.00  0.00    +0.000 C 
BRANCH  21  22
ATOM     22  C   UNL     1       6.266   5.385  16.818  0.00  0.00    +0.000 A 
ATOM     23  C   UNL     1       7.040   4.717  17.781  0.00  0.00    +0.000 A 
ATOM     24  C   UNL     1       7.873   5.433  18.641  0.00  0.00    +0.000 A 
ATOM     25  C   UNL     1       7.946   6.821  18.546  0.00  0.00    +0.000 A 
ATOM     26  C   UNL     1       7.180   7.498  17.599  0.00  0.00    +0.000 A 
ATOM     27  C   UNL     1       6.339   6.785  16.742  0.00  0.00    +0.000 A 
ENDBRANCH  21  22
BRANCH  21  28
ATOM     28  C   UNL     1       5.982   4.427  14.480  0.00  0.00    +0.000 A 
ATOM     29  C   UNL     1       5.395   3.598  13.508  0.00  0.00    +0.000 A 
ATOM     30  C   UNL     1       5.980   3.441  12.247  0.00  0.00    +0.000 A 
ATOM     31  C   UNL     1       7.155   4.118  11.929  0.00  0.00    +0.000 A 
ATOM     32  C   UNL     1       7.737   4.967  12.865  0.00  0.00    +0.000 A 
ATOM     33  C   UNL     1       7.152   5.129  14.126  0.00  0.00    +0.000 A 
ENDBRANCH  21  28
ENDBRANCH  20  21
ENDBRANCH  19  20
ENDBRANCH  18  19
ENDBRANCH   4  18
TORSDOF 10
ENDMDL
MODEL 5
REMARK VINA RESULT:      -8.2      0.383      1.248
REMARK  Name = 
REMARK  11 active torsions:
REMARK  status: ('A' for Active; 'I' for Inactive)
REMARK    1  A    between atoms: C_1  and  O_2
REMARK    2  A    between atoms: O_2  and  C_3
REMARK    3  A    between atoms: C_3  and  C_5
REMARK    4  A    between atoms: C_8  and  C_9
REMARK    5  A    between atoms: C_9  and  N_10
REMARK    6  A    between atoms: C_13  and  C_14
REMARK    7  A    between atoms: C_14  and  C_15
REMARK    8  A    between atoms: C_15  and  O_16
REMARK    9  A    between atoms: O_16  and  C_17
REMARK   10  A    between atoms: C_17  and  C_18
REMARK   11  A    between atoms: C_17  and  C_24
REMARK                            x       y       z     vdW  Elec       q    Type
REMARK                         _______ _______ _______ _____ _____    ______ ____
ROOT
ATOM      1  N   UNL     1      -0.191  11.495  20.323  0.00  0.00    +0.000 NA
ATOM      2  C   UNL     1       1.249  11.421  20.022  0.00  0.00    +0.000 C 
ATOM      3  C   UNL     1       1.539  11.227  18.528  0.00  0.00    +0.000 C 
ATOM      4  C   UNL     1       0.808  10.016  17.931  0.00  0.00    +0.000 C 
ATOM      5  C   UNL     1      -0.683  10.182  18.245  0.00  0.00    +0.000 C 
ATOM      6  C   UNL     1      -0.943  10.371  19.740  0.00  0.00    +0.000 C 
ENDROOT
BRANCH   1   7
ATOM      7  C   UNL     1      -0.426  11.522  21.784  0.00  0.00    +0.000 C 
BRANCH   7  11
ATOM      8  C   UNL     1      -4.173  13.335  22.987  0.00  0.00    +0.000 A 
ATOM      9  C   UNL     1      -3.565  12.368  23.796  0.00  0.00    +0.000 A 
ATOM     10  C   UNL     1      -2.359  11.781  23.403  0.00  0.00    +0.000 A 
ATOM     11  C   UNL     1      -1.744  12.149  22.197  0.00  0.00    +0.000 A 
ATOM     12  C   UNL     1      -2.347  13.135  21.402  0.00  0.00    +0.000 A 
ATOM     13  C   UNL     1      -3.551  13.728  21.796  0.00  0.00    +0.000 A 
BRANCH   8  14
ATOM     14  C   UNL     1      -5.466  13.975  23.351  0.00  0.00    +0.000 C 
ATOM     15  O   UNL     1      -5.623  15.180  23.449  0.00  0.00    +0.000 OA
BRANCH  14  17
ATOM     16  C   UNL     1      -7.583  13.469  24.198  0.00  0.00    +0.000 C 
ATOM     17  O   UNL     1      -6.427  13.027  23.487  0.00  0.00    +0.000 OA
ENDBRANCH  14  17
ENDBRANCH   8  14
ENDBRANCH   7  11
ENDBRANCH   1   7
BRANCH   4  18
ATOM     18  C   UNL     1       1.412   8.677  18.416  0.00  0.00    +0.000 C 
BRANCH  18  19
ATOM     19  C   UNL     1       2.770   8.356  17.782  0.00  0.00    +0.000 C 
BRANCH  19  20
ATOM     20  O   UNL     1       3.374   7.271  18.493  0.00  0.00    +0.000 OA
BRANCH  20  21
ATOM     21  C   UNL     1       3.301   6.013  17.783  0.00  0.00    +0.000 C 
BRANCH  21  22
ATOM     22  C   UNL     1       4.707   5.490  17.508  0.00  0.00    +0.000 A 
ATOM     23  C   UNL     1       5.687   5.502  18.514  0.00  0.00    +0.000 A 
ATOM     24  C   UNL     1       6.970   5.015  18.259  0.00  0.00    +0.000 A 
ATOM     25  C   UNL     1       7.285   4.505  17.002  0.00  0.00    +0.000 A 
ATOM     26  C   UNL     1       6.324   4.491  15.993  0.00  0.00    +0.000 A 
ATOM     27  C   UNL     1       5.043   4.986  16.241  0.00  0.00    +0.000 A 
ENDBRANCH  21  22
BRANCH  21  28
ATOM     28  C   UNL     1       2.439   5.005  18.551  0.00  0.00    +0.000 A 
ATOM     29  C   UNL     1       2.112   5.191  19.905  0.00  0.00    +0.000 A 
ATOM     30  C   UNL     1       1.329   4.257  20.592  0.00  0.00    +0.000 A 
ATOM     31  C   UNL     1       0.848   3.126  19.936  0.00  0.00    +0.000 A 
ATOM     32  C   UNL     1       1.136   2.937  18.588  0.00  0.00    +0.000 A 
ATOM     33  C   UNL     1       1.914   3.871  17.897  0.00  0.00    +0.000 A 
ENDBRANCH  21  28
ENDBRANCH  20  21
ENDBRANCH  19  20
ENDBRANCH  18  19
ENDBRANCH   4  18
TORSDOF 10
ENDMDL
MODEL 6
REMARK VINA RESULT:      -8.2      3.750      5.238
REMARK  Name = 
REMARK  11 active torsions:
REMARK  status: ('A' for Active; 'I' for Inactive)
REMARK    1  A    between atoms: C_1  and  O_2
REMARK    2  A    between atoms: O_2  and  C_3
REMARK    3  A    between atoms: C_3  and  C_5
REMARK    4  A    between atoms: C_8  and  C_9
REMARK    5  A    between atoms: C_9  and  N_10
REMARK    6  A    between atoms: C_13  and  C_14
REMARK    7  A    between atoms: C_14  and  C_15
REMARK    8  A    between atoms: C_15  and  O_16
REMARK    9  A    between atoms: O_16  and  C_17
REMARK   10  A    between atoms: C_17  and  C_18
REMARK   11  A    between atoms: C_17  and  C_24
REMARK                            x       y       z     vdW  Elec       q    Type
REMARK                         _______ _______ _______ _____ _____    ______ ____
ROOT
ATOM      1  N   UNL     1      -1.070  11.156  19.514  0.00  0.00    +0.000 NA
ATOM      2  C   UNL     1      -0.609   9.807  19.882  0.00  0.00    +0.000 C 
ATOM      3  C   UNL     1       0.892   9.751  20.192  0.00  0.00    +0.000 C 
ATOM      4  C   UNL     1       1.757  10.316  19.057  0.00  0.00    +0.000 C 
ATOM      5  C   UNL     1       1.249  11.731  18.757  0.00  0.00    +0.000 C 
ATOM      6  C   UNL     1      -0.249  11.757  18.449  0.00  0.00    +0.000 C 
ENDROOT
BRANCH   1   7
ATOM      7  C   UNL     1      -2.483  11.131  19.072  0.00  0.00    +0.000 C 
BRANCH   7  11
ATOM      8  C   UNL     1      -3.060  10.113  14.900  0.00  0.00    +0.000 A 
ATOM      9  C   UNL     1      -2.135   9.407  15.677  0.00  0.00    +0.000 A 
ATOM     10  C   UNL     1      -1.946   9.741  17.022  0.00  0.00    +0.000 A 
ATOM     11  C   UNL     1      -2.677  10.784  17.608  0.00  0.00    +0.000 A 
ATOM     12  C   UNL     1      -3.619  11.474  16.830  0.00  0.00    +0.000 A 
ATOM     13  C   UNL     1      -3.813  11.137  15.486  0.00  0.00    +0.000 A 
BRANCH   8  14
ATOM     14  C   UNL     1      -3.282   9.810  13.461  0.00  0.00    +0.000 C 
ATOM     15  O   UNL     1      -2.395   9.483  12.691  0.00  0.00    +0.000 OA
BRANCH  14  17
ATOM     16  C   UNL     1      -4.928   9.555  11.821  0.00  0.00    +0.000 C 
ATOM     17  O   UNL     1      -4.605   9.892  13.171  0.00  0.00    +0.000 OA
ENDBRANCH  14  17
ENDBRANCH   8  14
ENDBRANCH   7  11
ENDBRANCH   1   7
BRANCH   4  18
ATOM     18  C   UNL     1       1.784   9.379  17.827  0.00  0.00    +0.000 C 
BRANCH  18  19
ATOM     19  C   UNL     1       2.911   8.343  17.874  0.00  0.00    +0.000 C 
BRANCH  19  20
ATOM     20  O   UNL     1       2.435   7.161  18.524  0.00  0.00    +0.000 OA
BRANCH  20  21
ATOM     21  C   UNL     1       2.847   5.942  17.865  0.00  0.00    +0.000 C 
BRANCH  21  22
ATOM     22  C   UNL     1       4.368   5.832  17.879  0.00  0.00    +0.000 A 
ATOM     23  C   UNL     1       5.055   5.515  19.062  0.00  0.00    +0.000 A 
ATOM     24  C   UNL     1       6.446   5.408  19.068  0.00  0.00    +0.000 A 
ATOM     25  C   UNL     1       7.165   5.611  17.892  0.00  0.00    +0.000 A 
ATOM     26  C   UNL     1       6.498   5.932  16.711  0.00  0.00    +0.000 A 
ATOM     27  C   UNL     1       5.107   6.048  16.704  0.00  0.00    +0.000 A 
ENDBRANCH  21  22
BRANCH  21  28
ATOM     28  C   UNL     1       2.166   4.724  18.498  0.00  0.00    +0.000 A 
ATOM     29  C   UNL     1       2.104   3.485  17.839  0.00  0.00    +0.000 A 
ATOM     30  C   UNL     1       1.472   2.385  18.429  0.00  0.00    +0.000 A 
ATOM     31  C   UNL     1       0.902   2.499  19.695  0.00  0.00    +0.000 A 
ATOM     32  C   UNL     1       0.977   3.708  20.379  0.00  0.00    +0.000 A 
ATOM     33  C   UNL     1       1.612   4.808  19.792  0.00  0.00    +0.000 A 
ENDBRANCH  21  28
ENDBRANCH  20  21
ENDBRANCH  19  20
ENDBRANCH  18  19
ENDBRANCH   4  18
TORSDOF 10
ENDMDL
MODEL 7
REMARK VINA RESULT:      -8.2      3.009      6.406
REMARK  Name = 
REMARK  11 active torsions:
REMARK  status: ('A' for Active; 'I' for Inactive)
REMARK    1  A    between atoms: C_1  and  O_2
REMARK    2  A    between atoms: O_2  and  C_3
REMARK    3  A    between atoms: C_3  and  C_5
REMARK    4  A    between atoms: C_8  and  C_9
REMARK    5  A    between atoms: C_9  and  N_10
REMARK    6  A    between atoms: C_13  and  C_14
REMARK    7  A    between atoms: C_14  and  C_15
REMARK    8  A    between atoms: C_15  and  O_16
REMARK    9  A    between atoms: O_16  and  C_17
REMARK   10  A    between atoms: C_17  and  C_18
REMARK   11  A    between atoms: C_17  and  C_24
REMARK                            x       y       z     vdW  Elec       q    Type
REMARK                         _______ _______ _______ _____ _____    ______ ____
ROOT
ATOM      1  N   UNL     1       2.737   5.693  19.635  0.00  0.00    +0.000 NA
ATOM      2  C   UNL     1       1.697   4.734  19.225  0.00  0.00    +0.000 C 
ATOM      3  C   UNL     1       1.936   3.321  19.772  0.00  0.00    +0.000 C 
ATOM      4  C   UNL     1       3.328   2.775  19.424  0.00  0.00    +0.000 C 
ATOM      5  C   UNL     1       4.356   3.800  19.915  0.00  0.00    +0.000 C 
ATOM      6  C   UNL     1       4.096   5.199  19.353  0.00  0.00    +0.000 C 
ENDROOT
BRANCH   1   7
ATOM      7  C   UNL     1       2.553   6.996  18.959  0.00  0.00    +0.000 C 
BRANCH   7  11
ATOM      8  C   UNL     1       0.300   9.905  21.247  0.00  0.00    +0.000 A 
ATOM      9  C   UNL     1       0.600  10.145  19.902  0.00  0.00    +0.000 A 
ATOM     10  C   UNL     1       1.332   9.208  19.167  0.00  0.00    +0.000 A 
ATOM     11  C   UNL     1       1.775   8.019  19.765  0.00  0.00    +0.000 A 
ATOM     12  C   UNL     1       1.452   7.774  21.108  0.00  0.00    +0.000 A 
ATOM     13  C   UNL     1       0.715   8.708  21.843  0.00  0.00    +0.000 A 
BRANCH   8  14
ATOM     14  C   UNL     1      -0.457  10.880  22.078  0.00  0.00    +0.000 C 
ATOM     15  O   UNL     1      -0.442  10.890  23.296  0.00  0.00    +0.000 OA
BRANCH  14  17
ATOM     16  C   UNL     1      -1.137  13.098  21.799  0.00  0.00    +0.000 C 
ATOM     17  O   UNL     1      -1.096  11.769  21.277  0.00  0.00    +0.000 OA
ENDBRANCH  14  17
ENDBRANCH   8  14
ENDBRANCH   7  11
ENDBRANCH   1   7
BRANCH   4  18
ATOM     18  C   UNL     1       3.453   2.421  17.924  0.00  0.00    +0.000 C 
BRANCH  18  19
ATOM     19  C   UNL     1       3.657   3.644  17.023  0.00  0.00    +0.000 C 
BRANCH  19  20
ATOM     20  O   UNL     1       4.904   3.515  16.332  0.00  0.00    +0.000 OA
BRANCH  20  21
ATOM     21  C   UNL     1       5.374   4.760  15.767  0.00  0.00    +0.000 C 
BRANCH  21  22
ATOM     22  C   UNL     1       6.305   5.459  16.751  0.00  0.00    +0.000 A 
ATOM     23  C   UNL     1       7.133   4.715  17.609  0.00  0.00    +0.000 A 
ATOM     24  C   UNL     1       7.989   5.360  18.503  0.00  0.00    +0.000 A 
ATOM     25  C   UNL     1       8.032   6.752  18.545  0.00  0.00    +0.000 A 
ATOM     26  C   UNL     1       7.213   7.503  17.704  0.00  0.00    +0.000 A 
ATOM     27  C   UNL     1       6.349   6.861  16.815  0.00  0.00    +0.000 A 
ENDBRANCH  21  22
BRANCH  21  28
ATOM     28  C   UNL     1       6.033   4.523  14.403  0.00  0.00    +0.000 A 
ATOM     29  C   UNL     1       7.225   5.169  14.036  0.00  0.00    +0.000 A 
ATOM     30  C   UNL     1       7.810   4.946  12.784  0.00  0.00    +0.000 A 
ATOM     31  C   UNL     1       7.220   4.063  11.882  0.00  0.00    +0.000 A 
ATOM     32  C   UNL     1       6.056   3.390  12.236  0.00  0.00    +0.000 A 
ATOM     33  C   UNL     1       5.471   3.608  13.488  0.00  0.00    +0.000 A 
ENDBRANCH  21  28
ENDBRANCH  20  21
ENDBRANCH  19  20
ENDBRANCH  18  19
ENDBRANCH   4  18
TORSDOF 10
ENDMDL
MODEL 8
REMARK VINA RESULT:      -8.1      3.701      6.058
REMARK  Name = 
REMARK  11 active torsions:
REMARK  status: ('A' for Active; 'I' for Inactive)
REMARK    1  A    between atoms: C_1  and  O_2
REMARK    2  A    between atoms: O_2  and  C_3
REMARK    3  A    between atoms: C_3  and  C_5
REMARK    4  A    between atoms: C_8  and  C_9
REMARK    5  A    between atoms: C_9  and  N_10
REMARK    6  A    between atoms: C_13  and  C_14
REMARK    7  A    between atoms: C_14  and  C_15
REMARK    8  A    between atoms: C_15  and  O_16
REMARK    9  A    between atoms: O_16  and  C_17
REMARK   10  A    between atoms: C_17  and  C_18
REMARK   11  A    between atoms: C_17  and  C_24
REMARK                            x       y       z     vdW  Elec       q    Type
REMARK                         _______ _______ _______ _____ _____    ______ ____
ROOT
ATOM      1  N   UNL     1      -1.295  11.215  19.548  0.00  0.00    +0.000 NA
ATOM      2  C   UNL     1      -0.864   9.866  19.954  0.00  0.00    +0.000 C 
ATOM      3  C   UNL     1       0.631   9.792  20.289  0.00  0.00    +0.000 C 
ATOM      4  C   UNL     1       1.523  10.315  19.155  0.00  0.00    +0.000 C 
ATOM      5  C   UNL     1       1.046  11.731  18.815  0.00  0.00    +0.000 C 
ATOM      6  C   UNL     1      -0.447  11.776  18.483  0.00  0.00    +0.000 C 
ENDROOT
BRANCH   1   7
ATOM      7  C   UNL     1      -2.700  11.204  19.084  0.00  0.00    +0.000 C 
BRANCH   7  11
ATOM      8  C   UNL     1      -3.181  10.230  14.890  0.00  0.00    +0.000 A 
ATOM      9  C   UNL     1      -3.936  11.258  15.466  0.00  0.00    +0.000 A 
ATOM     10  C   UNL     1      -3.783  11.566  16.821  0.00  0.00    +0.000 A 
ATOM     11  C   UNL     1      -2.876  10.853  17.619  0.00  0.00    +0.000 A 
ATOM     12  C   UNL     1      -2.107   9.839  17.030  0.00  0.00    +0.000 A 
ATOM     13  C   UNL     1      -2.254   9.533  15.673  0.00  0.00    +0.000 A 
BRANCH   8  14
ATOM     14  C   UNL     1      -3.322   9.849  13.459  0.00  0.00    +0.000 C 
ATOM     15  O   UNL     1      -2.441   9.315  12.808  0.00  0.00    +0.000 OA
BRANCH  14  17
ATOM     16  C   UNL     1      -4.884   9.596  11.739  0.00  0.00    +0.000 C 
ATOM     17  O   UNL     1      -4.579  10.128  13.029  0.00  0.00    +0.000 OA
ENDBRANCH  14  17
ENDBRANCH   8  14
ENDBRANCH   7  11
ENDBRANCH   1   7
BRANCH   4  18
ATOM     18  C   UNL     1       1.553   9.350  17.947  0.00  0.00    +0.000 C 
BRANCH  18  19
ATOM     19  C   UNL     1       2.885   8.609  17.791  0.00  0.00    +0.000 C 
BRANCH  19  20
ATOM     20  O   UNL     1       2.627   7.217  17.585  0.00  0.00    +0.000 OA
BRANCH  20  21
ATOM     21  C   UNL     1       3.352   6.362  18.497  0.00  0.00    +0.000 C 
BRANCH  21  22
ATOM     22  C   UNL     1       2.458   5.213  18.953  0.00  0.00    +0.000 A 
ATOM     23  C   UNL     1       2.025   4.235  18.043  0.00  0.00    +0.000 A 
ATOM     24  C   UNL     1       1.214   3.182  18.467  0.00  0.00    +0.000 A 
ATOM     25  C   UNL     1       0.832   3.090  19.804  0.00  0.00    +0.000 A 
ATOM     26  C   UNL     1       1.251   4.056  20.718  0.00  0.00    +0.000 A 
ATOM     27  C   UNL     1       2.055   5.116  20.295  0.00  0.00    +0.000 A 
ENDBRANCH  21  22
BRANCH  21  28
ATOM     28  C   UNL     1       4.658   5.872  17.862  0.00  0.00    +0.000 A 
ATOM     29  C   UNL     1       4.887   5.963  16.478  0.00  0.00    +0.000 A 
ATOM     30  C   UNL     1       6.083   5.505  15.914  0.00  0.00    +0.000 A 
ATOM     31  C   UNL     1       7.077   4.960  16.724  0.00  0.00    +0.000 A 
ATOM     32  C   UNL     1       6.884   4.889  18.099  0.00  0.00    +0.000 A 
ATOM     33  C   UNL     1       5.691   5.349  18.666  0.00  0.00    +0.000 A 
ENDBRANCH  21  28
ENDBRANCH  20  21
ENDBRANCH  19  20
ENDBRANCH  18  19
ENDBRANCH   4  18
TORSDOF 10
ENDMDL
MODEL 9
REMARK VINA RESULT:      -8.0      3.392      6.099
REMARK  Name = 
REMARK  11 active torsions:
REMARK  status: ('A' for Active; 'I' for Inactive)
REMARK    1  A    between atoms: C_1  and  O_2
REMARK    2  A    between atoms: O_2  and  C_3
REMARK    3  A    between atoms: C_3  and  C_5
REMARK    4  A    between atoms: C_8  and  C_9
REMARK    5  A    between atoms: C_9  and  N_10
REMARK    6  A    between atoms: C_13  and  C_14
REMARK    7  A    between atoms: C_14  and  C_15
REMARK    8  A    between atoms: C_15  and  O_16
REMARK    9  A    between atoms: O_16  and  C_17
REMARK   10  A    between atoms: C_17  and  C_18
REMARK   11  A    between atoms: C_17  and  C_24
REMARK                            x       y       z     vdW  Elec       q    Type
REMARK                         _______ _______ _______ _____ _____    ______ ____
ROOT
ATOM      1  N   UNL     1       1.795   6.112  19.581  0.00  0.00    +0.000 NA
ATOM      2  C   UNL     1       2.075   5.793  18.170  0.00  0.00    +0.000 C 
ATOM      3  C   UNL     1       1.692   4.357  17.793  0.00  0.00    +0.000 C 
ATOM      4  C   UNL     1       2.335   3.308  18.712  0.00  0.00    +0.000 C 
ATOM      5  C   UNL     1       1.969   3.678  20.154  0.00  0.00    +0.000 C 
ATOM      6  C   UNL     1       2.364   5.114  20.503  0.00  0.00    +0.000 C 
ENDROOT
BRANCH   1   7
ATOM      7  C   UNL     1       2.324   7.448  19.937  0.00  0.00    +0.000 C 
BRANCH   7  11
ATOM      8  C   UNL     1      -0.405  10.706  19.093  0.00  0.00    +0.000 A 
ATOM      9  C   UNL     1       0.416  10.193  18.082  0.00  0.00    +0.000 A 
ATOM     10  C   UNL     1       1.299   9.145  18.358  0.00  0.00    +0.000 A 
ATOM     11  C   UNL     1       1.377   8.596  19.647  0.00  0.00    +0.000 A 
ATOM     12  C   UNL     1       0.537   9.100  20.650  0.00  0.00    +0.000 A 
ATOM     13  C   UNL     1      -0.353  10.145  20.375  0.00  0.00    +0.000 A 
BRANCH   8  14
ATOM     14  C   UNL     1      -1.346  11.833  18.856  0.00  0.00    +0.000 C 
ATOM     15  O   UNL     1      -2.438  11.929  19.388  0.00  0.00    +0.000 OA
BRANCH  14  17
ATOM     16  C   UNL     1      -0.145  13.831  18.697  0.00  0.00    +0.000 C 
ATOM     17  O   UNL     1      -0.776  12.742  18.024  0.00  0.00    +0.000 OA
ENDBRANCH  14  17
ENDBRANCH   8  14
ENDBRANCH   7  11
ENDBRANCH   1   7
BRANCH   4  18
ATOM     18  C   UNL     1       3.855   3.171  18.461  0.00  0.00    +0.000 C 
BRANCH  18  19
ATOM     19  C   UNL     1       4.207   2.868  17.000  0.00  0.00    +0.000 C 
BRANCH  19  20
ATOM     20  O   UNL     1       4.691   4.061  16.377  0.00  0.00    +0.000 OA
BRANCH  20  21
ATOM     21  C   UNL     1       6.123   4.061  16.181  0.00  0.00    +0.000 C 
BRANCH  21  22
ATOM     22  C   UNL     1       6.445   4.168  14.694  0.00  0.00    +0.000 A 
ATOM     23  C   UNL     1       5.673   3.483  13.742  0.00  0.00    +0.000 A 
ATOM     24  C   UNL     1       5.967   3.590  12.382  0.00  0.00    +0.000 A 
ATOM     25  C   UNL     1       7.029   4.386  11.958  0.00  0.00    +0.000 A 
ATOM     26  C   UNL     1       7.806   5.068  12.893  0.00  0.00    +0.000 A 
ATOM     27  C   UNL     1       7.521   4.956  14.254  0.00  0.00    +0.000 A 
ENDBRANCH  21  22
BRANCH  21  28
ATOM     28  C   UNL     1       6.784   5.172  17.005  0.00  0.00    +0.000 A 
ATOM     29  C   UNL     1       6.665   6.526  16.651  0.00  0.00    +0.000 A 
ATOM     30  C   UNL     1       7.281   7.527  17.411  0.00  0.00    +0.000 A 
ATOM     31  C   UNL     1       8.016   7.193  18.547  0.00  0.00    +0.000 A 
ATOM     32  C   UNL     1       8.122   5.861  18.932  0.00  0.00    +0.000 A 
ATOM     33  C   UNL     1       7.504   4.859  18.177  0.00  0.00    +0.000 A 
ENDBRANCH  21  28
ENDBRANCH  20  21
ENDBRANCH  19  20
ENDBRANCH  18  19
ENDBRANCH   4  18
TORSDOF 10
ENDMDL
