MODEL 1
REMARK VINA RESULT:      -6.8      0.000      0.000
REMARK  Name = 
REMARK  10 active torsions:
REMARK  status: ('A' for Active; 'I' for Inactive)
REMARK    1  A    between atoms: C_1  and  O_2
REMARK    2  A    between atoms: O_2  and  C_3
REMARK    3  A    between atoms: C_3  and  C_4
REMARK    4  A    between atoms: C_4  and  N_5
REMARK    5  A    between atoms: N_5  and  C_10
REMARK    6  A    between atoms: C_6  and  C_8
REMARK    7  A    between atoms: C_10  and  C_14
REMARK    8  A    between atoms: C_11  and  C_12
REMARK    9  A    between atoms: C_11  and  C_13
REMARK   10  A    between atoms: C_17  and  C_18
REMARK                            x       y       z     vdW  Elec       q    Type
REMARK                         _______ _______ _______ _____ _____    ______ ____
ROOT
ATOM      1  C   UNL     1       4.615   4.813  17.480  0.00  0.00    +0.000 C 
ATOM      2  C   UNL     1       4.113   6.069  17.358  0.00  0.00    +0.000 C 
ATOM      3  C   UNL     1       4.806   7.164  16.572  0.00  0.00    +0.000 C 
ATOM      4  C   UNL     1       2.821   6.578  17.958  0.00  0.00    +0.000 C 
ENDROOT
BRANCH   1   5
ATOM      5  C   UNL     1       3.961   3.786  18.245  0.00  0.00    +0.000 A 
ATOM      6  C   UNL     1       3.460   2.554  17.822  0.00  0.00    +0.000 A 
ATOM      7  C   UNL     1       2.871   1.904  18.933  0.00  0.00    +0.000 A 
ATOM      8  C   UNL     1       3.074   2.738  20.004  0.00  0.00    +0.000 A 
ATOM      9  C   UNL     1       2.727   2.667  21.435  0.00  0.00    +0.000 C 
ATOM     10  O   UNL     1       3.744   3.849  19.607  0.00  0.00    +0.000 OA
ENDBRANCH   1   5
BRANCH   1  11
ATOM     11  N   UNL     1       5.836   4.464  16.908  0.00  0.00    +0.000 N 
ATOM     12  C   UNL     1       7.078   4.649  17.545  0.00  0.00    +0.000 C 
ATOM     13  O   UNL     1       8.119   4.172  17.091  0.00  0.00    +0.000 OA
BRANCH  12  14
ATOM     14  C   UNL     1       7.046   5.449  18.846  0.00  0.00    +0.000 C 
ATOM     15 CL   UNL     1       8.093   6.887  18.764  0.00  0.00    +0.000 Cl
ENDBRANCH  12  14
BRANCH  11  16
ATOM     16  C   UNL     1       5.789   3.627  15.690  0.00  0.00    +0.000 C 
BRANCH  16  17
ATOM     17  C   UNL     1       5.828   4.408  14.371  0.00  0.00    +0.000 C 
BRANCH  17  19
ATOM     18  C   UNL     1       5.674   3.356  12.267  0.00  0.00    +0.000 C 
ATOM     19  O   UNL     1       6.527   3.682  13.360  0.00  0.00    +0.000 OA
ENDBRANCH  17  19
ENDBRANCH  16  17
ENDBRANCH  11  16
ENDBRANCH   1  11
TORSDOF 6
ENDMDL
MODEL 2
REMARK VINA RESULT:      -6.4      0.898      1.221
REMARK  Name = 
REMARK  10 active torsions:
REMARK  status: ('A' for Active; 'I' for Inactive)
REMARK    1  A    between atoms: C_1  and  O_2
REMARK    2  A    between atoms: O_2  and  C_3
REMARK    3  A    between atoms: C_3  and  C_4
REMARK    4  A    between atoms: C_4  and  N_5
REMARK    5  A    between atoms: N_5  and  C_10
REMARK    6  A    between atoms: C_6  and  C_8
REMARK    7  A    between atoms: C_10  and  C_14
REMARK    8  A    between atoms: C_11  and  C_12
REMARK    9  A    between atoms: C_11  and  C_13
REMARK   10  A    between atoms: C_17  and  C_18
REMARK                            x       y       z     vdW  Elec       q    Type
REMARK                         _______ _______ _______ _____ _____    ______ ____
ROOT
ATOM      1  C   UNL     1       4.763   5.256  17.478  0.00  0.00    +0.000 C 
ATOM      2  C   UNL     1       4.424   6.552  17.255  0.00  0.00    +0.000 C 
ATOM      3  C   UNL     1       5.253   7.488  16.400  0.00  0.00    +0.000 C 
ATOM      4  C   UNL     1       3.203   7.263  17.798  0.00  0.00    +0.000 C 
ENDROOT
BRANCH   1   5
ATOM      5  C   UNL     1       3.980   4.380  18.308  0.00  0.00    +0.000 A 
ATOM      6  C   UNL     1       4.250   3.908  19.594  0.00  0.00    +0.000 A 
ATOM      7  C   UNL     1       3.201   3.042  19.983  0.00  0.00    +0.000 A 
ATOM      8  C   UNL     1       2.304   3.052  18.944  0.00  0.00    +0.000 A 
ATOM      9  C   UNL     1       1.010   2.388  18.704  0.00  0.00    +0.000 C 
ATOM     10  O   UNL     1       2.749   3.866  17.954  0.00  0.00    +0.000 OA
ENDBRANCH   1   5
BRANCH   1  11
ATOM     11  N   UNL     1       5.932   4.713  16.950  0.00  0.00    +0.000 N 
ATOM     12  C   UNL     1       7.187   4.804  17.581  0.00  0.00    +0.000 C 
ATOM     13  O   UNL     1       8.163   4.167  17.181  0.00  0.00    +0.000 OA
BRANCH  12  14
ATOM     14  C   UNL     1       7.253   5.713  18.807  0.00  0.00    +0.000 C 
ATOM     15 CL   UNL     1       8.078   7.249  18.447  0.00  0.00    +0.000 Cl
ENDBRANCH  12  14
BRANCH  11  16
ATOM     16  C   UNL     1       5.784   3.784  15.810  0.00  0.00    +0.000 C 
BRANCH  16  17
ATOM     17  C   UNL     1       6.385   4.284  14.491  0.00  0.00    +0.000 C 
BRANCH  17  19
ATOM     18  C   UNL     1       6.369   3.473  12.278  0.00  0.00    +0.000 C 
ATOM     19  O   UNL     1       5.576   3.907  13.377  0.00  0.00    +0.000 OA
ENDBRANCH  17  19
ENDBRANCH  16  17
ENDBRANCH  11  16
ENDBRANCH   1  11
TORSDOF 6
ENDMDL
MODEL 3
REMARK VINA RESULT:      -6.0      1.188      1.437
REMARK  Name = 
REMARK  10 active torsions:
REMARK  status: ('A' for Active; 'I' for Inactive)
REMARK    1  A    between atoms: C_1  and  O_2
REMARK    2  A    between atoms: O_2  and  C_3
REMARK    3  A    between atoms: C_3  and  C_4
REMARK    4  A    between atoms: C_4  and  N_5
REMARK    5  A    between atoms: N_5  and  C_10
REMARK    6  A    between atoms: C_6  and  C_8
REMARK    7  A    between atoms: C_10  and  C_14
REMARK    8  A    between atoms: C_11  and  C_12
REMARK    9  A    between atoms: C_11  and  C_13
REMARK   10  A    between atoms: C_17  and  C_18
REMARK                            x       y       z     vdW  Elec       q    Type
REMARK                         _______ _______ _______ _____ _____    ______ ____
ROOT
ATOM      1  C   UNL     1       4.640   5.043  17.672  0.00  0.00    +0.000 C 
ATOM      2  C   UNL     1       4.237   6.334  17.548  0.00  0.00    +0.000 C 
ATOM      3  C   UNL     1       5.035   7.380  16.796  0.00  0.00    +0.000 C 
ATOM      4  C   UNL     1       2.967   6.933  18.112  0.00  0.00    +0.000 C 
ENDROOT
BRANCH   1   5
ATOM      5  C   UNL     1       3.886   4.061  18.405  0.00  0.00    +0.000 A 
ATOM      6  C   UNL     1       4.268   3.300  19.511  0.00  0.00    +0.000 A 
ATOM      7  C   UNL     1       3.196   2.444  19.858  0.00  0.00    +0.000 A 
ATOM      8  C   UNL     1       2.181   2.744  18.985  0.00  0.00    +0.000 A 
ATOM      9  C   UNL     1       0.808   2.240  18.800  0.00  0.00    +0.000 C 
ATOM     10  O   UNL     1       2.576   3.724  18.133  0.00  0.00    +0.000 OA
ENDBRANCH   1   5
BRANCH   1  11
ATOM     11  N   UNL     1       5.849   4.608  17.135  0.00  0.00    +0.000 N 
ATOM     12  C   UNL     1       7.091   4.765  17.780  0.00  0.00    +0.000 C 
ATOM     13  O   UNL     1       8.113   4.217  17.365  0.00  0.00    +0.000 OA
BRANCH  12  14
ATOM     14  C   UNL     1       7.082   5.629  19.040  0.00  0.00    +0.000 C 
ATOM     15 CL   UNL     1       8.521   5.341  20.048  0.00  0.00    +0.000 Cl
ENDBRANCH  12  14
BRANCH  11  16
ATOM     16  C   UNL     1       5.776   3.714  15.959  0.00  0.00    +0.000 C 
BRANCH  16  17
ATOM     17  C   UNL     1       5.440   4.417  14.638  0.00  0.00    +0.000 C 
BRANCH  17  19
ATOM     18  C   UNL     1       7.539   4.951  13.709  0.00  0.00    +0.000 C 
ATOM     19  O   UNL     1       6.375   5.457  14.353  0.00  0.00    +0.000 OA
ENDBRANCH  17  19
ENDBRANCH  16  17
ENDBRANCH  11  16
ENDBRANCH   1  11
TORSDOF 6
ENDMDL
MODEL 4
REMARK VINA RESULT:      -6.0      1.200      1.200
REMARK  Name = 
REMARK  10 active torsions:
REMARK  status: ('A' for Active; 'I' for Inactive)
REMARK    1  A    between atoms: C_1  and  O_2
REMARK    2  A    between atoms: O_2  and  C_3
REMARK    3  A    between atoms: C_3  and  C_4
REMARK    4  A    between atoms: C_4  and  N_5
REMARK    5  A    between atoms: N_5  and  C_10
REMARK    6  A    between atoms: C_6  and  C_8
REMARK    7  A    between atoms: C_10  and  C_14
REMARK    8  A    between atoms: C_11  and  C_12
REMARK    9  A    between atoms: C_11  and  C_13
REMARK   10  A    between atoms: C_17  and  C_18
REMARK                            x       y       z     vdW  Elec       q    Type
REMARK                         _______ _______ _______ _____ _____    ______ ____
ROOT
ATOM      1  C   UNL     1       4.018   5.210  17.789  0.00  0.00    +0.000 C 
ATOM      2  C   UNL     1       3.699   6.526  17.677  0.00  0.00    +0.000 C 
ATOM      3  C   UNL     1       4.591   7.536  16.985  0.00  0.00    +0.000 C 
ATOM      4  C   UNL     1       2.444   7.189  18.200  0.00  0.00    +0.000 C 
ENDROOT
BRANCH   1   5
ATOM      5  C   UNL     1       3.175   4.261  18.466  0.00  0.00    +0.000 A 
ATOM      6  C   UNL     1       2.169   3.445  17.946  0.00  0.00    +0.000 A 
ATOM      7  C   UNL     1       1.595   2.708  19.008  0.00  0.00    +0.000 A 
ATOM      8  C   UNL     1       2.299   3.062  20.131  0.00  0.00    +0.000 A 
ATOM      9  C   UNL     1       2.227   2.668  21.551  0.00  0.00    +0.000 C 
ATOM     10  O   UNL     1       3.258   3.968  19.812  0.00  0.00    +0.000 OA
ENDBRANCH   1   5
BRANCH   1  11
ATOM     11  N   UNL     1       5.221   4.713  17.294  0.00  0.00    +0.000 N 
ATOM     12  C   UNL     1       6.423   4.709  18.027  0.00  0.00    +0.000 C 
ATOM     13  O   UNL     1       7.423   4.106  17.632  0.00  0.00    +0.000 OA
BRANCH  12  14
ATOM     14  C   UNL     1       6.398   5.469  19.352  0.00  0.00    +0.000 C 
ATOM     15 CL   UNL     1       8.040   5.793  19.959  0.00  0.00    +0.000 Cl
ENDBRANCH  12  14
BRANCH  11  16
ATOM     16  C   UNL     1       5.157   3.925  16.045  0.00  0.00    +0.000 C 
BRANCH  16  17
ATOM     17  C   UNL     1       5.253   4.752  14.757  0.00  0.00    +0.000 C 
BRANCH  17  19
ATOM     18  C   UNL     1       7.335   4.887  13.661  0.00  0.00    +0.000 C 
ATOM     19  O   UNL     1       6.502   5.438  14.676  0.00  0.00    +0.000 OA
ENDBRANCH  17  19
ENDBRANCH  16  17
ENDBRANCH  11  16
ENDBRANCH   1  11
TORSDOF 6
ENDMDL
MODEL 5
REMARK VINA RESULT:      -5.8      2.484      4.315
REMARK  Name = 
REMARK  10 active torsions:
REMARK  status: ('A' for Active; 'I' for Inactive)
REMARK    1  A    between atoms: C_1  and  O_2
REMARK    2  A    between atoms: O_2  and  C_3
REMARK    3  A    between atoms: C_3  and  C_4
REMARK    4  A    between atoms: C_4  and  N_5
REMARK    5  A    between atoms: N_5  and  C_10
REMARK    6  A    between atoms: C_6  and  C_8
REMARK    7  A    between atoms: C_10  and  C_14
REMARK    8  A    between atoms: C_11  and  C_12
REMARK    9  A    between atoms: C_11  and  C_13
REMARK   10  A    between atoms: C_17  and  C_18
REMARK                            x       y       z     vdW  Elec       q    Type
REMARK                         _______ _______ _______ _____ _____    ______ ____
ROOT
ATOM      1  C   UNL     1       4.201   4.934  18.108  0.00  0.00    +0.000 C 
ATOM      2  C   UNL     1       3.052   5.652  18.192  0.00  0.00    +0.000 C 
ATOM      3  C   UNL     1       1.683   5.056  17.931  0.00  0.00    +0.000 C 
ATOM      4  C   UNL     1       2.937   7.118  18.551  0.00  0.00    +0.000 C 
ENDROOT
BRANCH   1   5
ATOM      5  C   UNL     1       5.498   5.513  18.338  0.00  0.00    +0.000 A 
ATOM      6  C   UNL     1       6.489   5.128  19.241  0.00  0.00    +0.000 A 
ATOM      7  C   UNL     1       7.576   6.027  19.125  0.00  0.00    +0.000 A 
ATOM      8  C   UNL     1       7.232   6.900  18.124  0.00  0.00    +0.000 A 
ATOM      9  C   UNL     1       7.902   8.056  17.500  0.00  0.00    +0.000 C 
ATOM     10  O   UNL     1       6.007   6.585  17.633  0.00  0.00    +0.000 OA
ENDBRANCH   1   5
BRANCH   1  11
ATOM     11  N   UNL     1       4.190   3.592  17.736  0.00  0.00    +0.000 N 
ATOM     12  C   UNL     1       3.834   2.544  18.607  0.00  0.00    +0.000 C 
ATOM     13  O   UNL     1       3.663   1.393  18.204  0.00  0.00    +0.000 OA
BRANCH  12  14
ATOM     14  C   UNL     1       3.642   2.933  20.072  0.00  0.00    +0.000 C 
ATOM     15 CL   UNL     1       1.979   2.621  20.627  0.00  0.00    +0.000 Cl
ENDBRANCH  12  14
BRANCH  11  16
ATOM     16  C   UNL     1       4.306   3.295  16.292  0.00  0.00    +0.000 C 
BRANCH  16  17
ATOM     17  C   UNL     1       5.705   3.511  15.703  0.00  0.00    +0.000 C 
BRANCH  17  19
ATOM     18  C   UNL     1       7.069   4.997  14.483  0.00  0.00    +0.000 C 
ATOM     19  O   UNL     1       5.736   4.654  14.848  0.00  0.00    +0.000 OA
ENDBRANCH  17  19
ENDBRANCH  16  17
ENDBRANCH  11  16
ENDBRANCH   1  11
TORSDOF 6
ENDMDL
MODEL 6
REMARK VINA RESULT:      -5.8      3.046      5.985
REMARK  Name = 
REMARK  10 active torsions:
REMARK  status: ('A' for Active; 'I' for Inactive)
REMARK    1  A    between atoms: C_1  and  O_2
REMARK    2  A    between atoms: O_2  and  C_3
REMARK    3  A    between atoms: C_3  and  C_4
REMARK    4  A    between atoms: C_4  and  N_5
REMARK    5  A    between atoms: N_5  and  C_10
REMARK    6  A    between atoms: C_6  and  C_8
REMARK    7  A    between atoms: C_10  and  C_14
REMARK    8  A    between atoms: C_11  and  C_12
REMARK    9  A    between atoms: C_11  and  C_13
REMARK   10  A    between atoms: C_17  and  C_18
REMARK                            x       y       z     vdW  Elec       q    Type
REMARK                         _______ _______ _______ _____ _____    ______ ____
ROOT
ATOM      1  C   UNL     1       3.923   5.375  18.442  0.00  0.00    +0.000 C 
ATOM      2  C   UNL     1       3.422   4.510  17.522  0.00  0.00    +0.000 C 
ATOM      3  C   UNL     1       1.958   4.125  17.460  0.00  0.00    +0.000 C 
ATOM      4  C   UNL     1       4.207   3.809  16.435  0.00  0.00    +0.000 C 
ENDROOT
BRANCH   1   5
ATOM      5  C   UNL     1       5.318   5.720  18.506  0.00  0.00    +0.000 A 
ATOM      6  C   UNL     1       6.348   5.102  19.217  0.00  0.00    +0.000 A 
ATOM      7  C   UNL     1       7.544   5.826  18.995  0.00  0.00    +0.000 A 
ATOM      8  C   UNL     1       7.214   6.830  18.120  0.00  0.00    +0.000 A 
ATOM      9  C   UNL     1       7.974   7.919  17.479  0.00  0.00    +0.000 C 
ATOM     10  O   UNL     1       5.896   6.758  17.805  0.00  0.00    +0.000 OA
ENDBRANCH   1   5
BRANCH   1  11
ATOM     11  N   UNL     1       3.109   5.941  19.421  0.00  0.00    +0.000 N 
ATOM     12  C   UNL     1       2.415   7.154  19.253  0.00  0.00    +0.000 C 
ATOM     13  O   UNL     1       1.570   7.537  20.062  0.00  0.00    +0.000 OA
BRANCH  12  14
ATOM     14  C   UNL     1       2.754   7.945  17.990  0.00  0.00    +0.000 C 
ATOM     15 CL   UNL     1       1.679   9.350  17.782  0.00  0.00    +0.000 Cl
ENDBRANCH  12  14
BRANCH  11  16
ATOM     16  C   UNL     1       2.763   5.089  20.579  0.00  0.00    +0.000 C 
BRANCH  16  17
ATOM     17  C   UNL     1       1.306   4.612  20.614  0.00  0.00    +0.000 C 
BRANCH  17  19
ATOM     18  C   UNL     1       2.153   2.683  21.671  0.00  0.00    +0.000 C 
ATOM     19  O   UNL     1       1.230   3.190  20.714  0.00  0.00    +0.000 OA
ENDBRANCH  17  19
ENDBRANCH  16  17
ENDBRANCH  11  16
ENDBRANCH   1  11
TORSDOF 6
ENDMDL
MODEL 7
REMARK VINA RESULT:      -5.7      3.055      5.742
REMARK  Name = 
REMARK  10 active torsions:
REMARK  status: ('A' for Active; 'I' for Inactive)
REMARK    1  A    between atoms: C_1  and  O_2
REMARK    2  A    between atoms: O_2  and  C_3
REMARK    3  A    between atoms: C_3  and  C_4
REMARK    4  A    between atoms: C_4  and  N_5
REMARK    5  A    between atoms: N_5  and  C_10
REMARK    6  A    between atoms: C_6  and  C_8
REMARK    7  A    between atoms: C_10  and  C_14
REMARK    8  A    between atoms: C_11  and  C_12
REMARK    9  A    between atoms: C_11  and  C_13
REMARK   10  A    between atoms: C_17  and  C_18
REMARK                            x       y       z     vdW  Elec       q    Type
REMARK                         _______ _______ _______ _____ _____    ______ ____
ROOT
ATOM      1  C   UNL     1       4.014   5.158  18.264  0.00  0.00    +0.000 C 
ATOM      2  C   UNL     1       3.658   4.240  17.328  0.00  0.00    +0.000 C 
ATOM      3  C   UNL     1       2.239   3.734  17.163  0.00  0.00    +0.000 C 
ATOM      4  C   UNL     1       4.579   3.588  16.319  0.00  0.00    +0.000 C 
ENDROOT
BRANCH   1   5
ATOM      5  C   UNL     1       5.367   5.617  18.426  0.00  0.00    +0.000 A 
ATOM      6  C   UNL     1       6.377   5.116  19.249  0.00  0.00    +0.000 A 
ATOM      7  C   UNL     1       7.527   5.925  19.091  0.00  0.00    +0.000 A 
ATOM      8  C   UNL     1       7.197   6.862  18.144  0.00  0.00    +0.000 A 
ATOM      9  C   UNL     1       7.923   7.982  17.517  0.00  0.00    +0.000 C 
ATOM     10  O   UNL     1       5.920   6.669  17.725  0.00  0.00    +0.000 OA
ENDBRANCH   1   5
BRANCH   1  11
ATOM     11  N   UNL     1       3.083   5.669  19.165  0.00  0.00    +0.000 N 
ATOM     12  C   UNL     1       2.651   4.981  20.315  0.00  0.00    +0.000 C 
ATOM     13  O   UNL     1       1.965   5.528  21.180  0.00  0.00    +0.000 OA
BRANCH  12  14
ATOM     14  C   UNL     1       3.112   3.530  20.435  0.00  0.00    +0.000 C 
ATOM     15 CL   UNL     1       1.981   2.555  21.405  0.00  0.00    +0.000 Cl
ENDBRANCH  12  14
BRANCH  11  16
ATOM     16  C   UNL     1       2.740   7.102  19.033  0.00  0.00    +0.000 C 
BRANCH  16  17
ATOM     17  C   UNL     1       2.181   7.505  17.663  0.00  0.00    +0.000 C 
BRANCH  17  19
ATOM     18  C   UNL     1       1.331   9.648  18.154  0.00  0.00    +0.000 C 
ATOM     19  O   UNL     1       2.317   8.909  17.441  0.00  0.00    +0.000 OA
ENDBRANCH  17  19
ENDBRANCH  16  17
ENDBRANCH  11  16
ENDBRANCH   1  11
TORSDOF 6
ENDMDL
MODEL 8
REMARK VINA RESULT:      -5.7      1.210      1.294
REMARK  Name = 
REMARK  10 active torsions:
REMARK  status: ('A' for Active; 'I' for Inactive)
REMARK    1  A    between atoms: C_1  and  O_2
REMARK    2  A    between atoms: O_2  and  C_3
REMARK    3  A    between atoms: C_3  and  C_4
REMARK    4  A    between atoms: C_4  and  N_5
REMARK    5  A    between atoms: N_5  and  C_10
REMARK    6  A    between atoms: C_6  and  C_8
REMARK    7  A    between atoms: C_10  and  C_14
REMARK    8  A    between atoms: C_11  and  C_12
REMARK    9  A    between atoms: C_11  and  C_13
REMARK   10  A    between atoms: C_17  and  C_18
REMARK                            x       y       z     vdW  Elec       q    Type
REMARK                         _______ _______ _______ _____ _____    ______ ____
ROOT
ATOM      1  C   UNL     1       4.236   5.479  17.490  0.00  0.00    +0.000 C 
ATOM      2  C   UNL     1       3.407   6.488  17.864  0.00  0.00    +0.000 C 
ATOM      3  C   UNL     1       3.570   7.915  17.381  0.00  0.00    +0.000 C 
ATOM      4  C   UNL     1       2.216   6.369  18.790  0.00  0.00    +0.000 C 
ENDROOT
BRANCH   1   5
ATOM      5  C   UNL     1       4.086   4.131  17.969  0.00  0.00    +0.000 A 
ATOM      6  C   UNL     1       3.413   3.057  17.385  0.00  0.00    +0.000 A 
ATOM      7  C   UNL     1       3.513   1.942  18.251  0.00  0.00    +0.000 A 
ATOM      8  C   UNL     1       4.281   2.358  19.309  0.00  0.00    +0.000 A 
ATOM      9  C   UNL     1       4.769   1.706  20.538  0.00  0.00    +0.000 C 
ATOM     10  O   UNL     1       4.647   3.653  19.136  0.00  0.00    +0.000 OA
ENDBRANCH   1   5
BRANCH   1  11
ATOM     11  N   UNL     1       5.325   5.712  16.653  0.00  0.00    +0.000 N 
ATOM     12  C   UNL     1       6.624   5.987  17.122  0.00  0.00    +0.000 C 
ATOM     13  O   UNL     1       7.596   6.013  16.365  0.00  0.00    +0.000 OA
BRANCH  12  14
ATOM     14  C   UNL     1       6.754   6.218  18.627  0.00  0.00    +0.000 C 
ATOM     15 CL   UNL     1       8.262   5.526  19.273  0.00  0.00    +0.000 Cl
ENDBRANCH  12  14
BRANCH  11  16
ATOM     16  C   UNL     1       5.148   5.396  15.220  0.00  0.00    +0.000 C 
BRANCH  16  17
ATOM     17  C   UNL     1       5.760   4.062  14.776  0.00  0.00    +0.000 C 
BRANCH  17  19
ATOM     18  C   UNL     1       6.168   3.432  12.541  0.00  0.00    +0.000 C 
ATOM     19  O   UNL     1       6.601   4.233  13.635  0.00  0.00    +0.000 OA
ENDBRANCH  17  19
ENDBRANCH  16  17
ENDBRANCH  11  16
ENDBRANCH   1  11
TORSDOF 6
ENDMDL
MODEL 9
REMARK VINA RESULT:      -5.7      2.612      5.123
REMARK  Name = 
REMARK  10 active torsions:
REMARK  status: ('A' for Active; 'I' for Inactive)
REMARK    1  A    between atoms: C_1  and  O_2
REMARK    2  A    between atoms: O_2  and  C_3
REMARK    3  A    between atoms: C_3  and  C_4
REMARK    4  A    between atoms: C_4  and  N_5
REMARK    5  A    between atoms: N_5  and  C_10
REMARK    6  A    between atoms: C_6  and  C_8
REMARK    7  A    between atoms: C_10  and  C_14
REMARK    8  A    between atoms: C_11  and  C_12
REMARK    9  A    between atoms: C_11  and  C_13
REMARK   10  A    between atoms: C_17  and  C_18
REMARK                            x       y       z     vdW  Elec       q    Type
REMARK                         _______ _______ _______ _____ _____    ______ ____
ROOT
ATOM      1  C   UNL     1       3.790   5.064  18.152  0.00  0.00    +0.000 C 
ATOM      2  C   UNL     1       2.844   5.896  18.658  0.00  0.00    +0.000 C 
ATOM      3  C   UNL     1       2.114   5.625  19.957  0.00  0.00    +0.000 C 
ATOM      4  C   UNL     1       2.371   7.194  18.039  0.00  0.00    +0.000 C 
ENDROOT
BRANCH   1   5
ATOM      5  C   UNL     1       4.464   5.320  16.907  0.00  0.00    +0.000 A 
ATOM      6  C   UNL     1       4.858   6.537  16.349  0.00  0.00    +0.000 A 
ATOM      7  C   UNL     1       5.453   6.283  15.091  0.00  0.00    +0.000 A 
ATOM      8  C   UNL     1       5.446   4.918  14.944  0.00  0.00    +0.000 A 
ATOM      9  C   UNL     1       5.914   4.000  13.889  0.00  0.00    +0.000 C 
ATOM     10  O   UNL     1       4.882   4.337  16.033  0.00  0.00    +0.000 OA
ENDBRANCH   1   5
BRANCH   1  11
ATOM     11  N   UNL     1       4.125   3.875  18.794  0.00  0.00    +0.000 N 
ATOM     12  C   UNL     1       3.450   2.657  18.582  0.00  0.00    +0.000 C 
ATOM     13  O   UNL     1       3.877   1.591  19.027  0.00  0.00    +0.000 OA
BRANCH  12  14
ATOM     14  C   UNL     1       2.177   2.739  17.741  0.00  0.00    +0.000 C 
ATOM     15 CL   UNL     1       0.719   2.449  18.720  0.00  0.00    +0.000 Cl
ENDBRANCH  12  14
BRANCH  11  16
ATOM     16  C   UNL     1       5.408   3.848  19.528  0.00  0.00    +0.000 C 
BRANCH  16  17
ATOM     17  C   UNL     1       6.151   5.188  19.573  0.00  0.00    +0.000 C 
BRANCH  17  19
ATOM     18  C   UNL     1       7.850   6.403  18.479  0.00  0.00    +0.000 C 
ATOM     19  O   UNL     1       7.395   5.114  18.876  0.00  0.00    +0.000 OA
ENDBRANCH  17  19
ENDBRANCH  16  17
ENDBRANCH  11  16
ENDBRANCH   1  11
TORSDOF 6
ENDMDL
