MODEL 1
REMARK VINA RESULT:      -7.0      0.000      0.000
REMARK  Name = 
REMARK  5 active torsions:
REMARK  status: ('A' for Active; 'I' for Inactive)
REMARK    1  A    between atoms: C_1  and  N_2
REMARK    2  A    between atoms: N_5  and  C_6
REMARK    3  A    between atoms: C_6  and  C_7
REMARK    4  A    between atoms: C_14  and  C_16
REMARK    5  A    between atoms: N_20  and  C_21
REMARK                            x       y       z     vdW  Elec       q    Type
REMARK                         _______ _______ _______ _____ _____    ______ ____
ROOT
ATOM      1  C   UNL     1       2.734   7.840  18.368  0.00  0.00    +0.000 A 
ATOM      2  C   UNL     1       2.013   8.900  17.868  0.00  0.00    +0.000 A 
ATOM      3  N   UNL     1       1.149   9.226  18.862  0.00  0.00    +0.000 N 
ATOM      4  C   UNL     1       1.323   8.358  19.911  0.00  0.00    +0.000 A 
ATOM      5  N   UNL     1       2.282   7.499  19.631  0.00  0.00    +0.000 NA
ATOM      6  C   UNL     1       0.483   8.428  21.153  0.00  0.00    +0.000 C 
ATOM      7  N   UNL     1      -0.250   9.702  21.217  0.00  0.00    +0.000 N 
ATOM      8  C   UNL     1      -0.254  10.394  22.432  0.00  0.00    +0.000 C 
ATOM      9  O   UNL     1       0.394   9.973  23.389  0.00  0.00    +0.000 OA
ATOM     10  C   UNL     1      -0.838  10.139  19.944  0.00  0.00    +0.000 C 
ATOM     11  C   UNL     1       0.231  10.338  18.879  0.00  0.00    +0.000 C 
ENDROOT
BRANCH   8  12
ATOM     12  C   UNL     1      -1.012  11.636  22.546  0.00  0.00    +0.000 A 
ATOM     13  C   UNL     1      -2.225  11.903  23.173  0.00  0.00    +0.000 A 
ATOM     14  C   UNL     1      -2.578  13.249  22.934  0.00  0.00    +0.000 A 
ATOM     15  C   UNL     1      -1.518  13.828  22.284  0.00  0.00    +0.000 A 
ATOM     16  N   UNL     1      -0.558  12.866  22.091  0.00  0.00    +0.000 N 
ATOM     17  C   UNL     1       0.724  13.122  21.466  0.00  0.00    +0.000 C 
ENDBRANCH   8  12
BRANCH   1  18
ATOM     18  C   UNL     1       3.883   7.108  17.743  0.00  0.00    +0.000 C 
BRANCH  18  23
ATOM     19  C   UNL     1       7.069   4.271  15.612  0.00  0.00    +0.000 C 
ATOM     20  N   UNL     1       6.138   4.353  16.733  0.00  0.00    +0.000 NA
ATOM     21  C   UNL     1       4.751   4.499  16.253  0.00  0.00    +0.000 C 
ATOM     22  C   UNL     1       3.748   4.672  17.418  0.00  0.00    +0.000 C 
ATOM     23  N   UNL     1       4.066   5.776  18.355  0.00  0.00    +0.000 NA
ATOM     24  C   UNL     1       5.469   5.608  18.792  0.00  0.00    +0.000 C 
ATOM     25  C   UNL     1       6.488   5.462  17.636  0.00  0.00    +0.000 C 
ENDBRANCH  18  23
ENDBRANCH   1  18
TORSDOF 3
ENDMDL
MODEL 2
REMARK VINA RESULT:      -6.9      5.646      8.934
REMARK  Name = 
REMARK  5 active torsions:
REMARK  status: ('A' for Active; 'I' for Inactive)
REMARK    1  A    between atoms: C_1  and  N_2
REMARK    2  A    between atoms: N_5  and  C_6
REMARK    3  A    between atoms: C_6  and  C_7
REMARK    4  A    between atoms: C_14  and  C_16
REMARK    5  A    between atoms: N_20  and  C_21
REMARK                            x       y       z     vdW  Elec       q    Type
REMARK                         _______ _______ _______ _____ _____    ______ ____
ROOT
ATOM      1  C   UNL     1       8.539   8.999  18.454  0.00  0.00    +0.000 A 
ATOM      2  C   UNL     1       7.524   8.996  17.524  0.00  0.00    +0.000 A 
ATOM      3  N   UNL     1       7.042   7.728  17.548  0.00  0.00    +0.000 N 
ATOM      4  C   UNL     1       7.774   6.985  18.440  0.00  0.00    +0.000 A 
ATOM      5  N   UNL     1       8.698   7.738  19.002  0.00  0.00    +0.000 NA
ATOM      6  C   UNL     1       7.514   5.524  18.665  0.00  0.00    +0.000 C 
ATOM      7  N   UNL     1       6.215   5.131  18.097  0.00  0.00    +0.000 N 
ATOM      8  C   UNL     1       5.375   4.333  18.878  0.00  0.00    +0.000 C 
ATOM      9  O   UNL     1       5.694   4.032  20.028  0.00  0.00    +0.000 OA
ATOM     10  C   UNL     1       5.922   5.702  16.776  0.00  0.00    +0.000 C 
ATOM     11  C   UNL     1       5.902   7.224  16.822  0.00  0.00    +0.000 C 
ENDROOT
BRANCH   8  12
ATOM     12  C   UNL     1       4.099   3.883  18.328  0.00  0.00    +0.000 A 
ATOM     13  C   UNL     1       3.727   2.653  17.795  0.00  0.00    +0.000 A 
ATOM     14  C   UNL     1       2.399   2.741  17.323  0.00  0.00    +0.000 A 
ATOM     15  C   UNL     1       1.927   3.975  17.694  0.00  0.00    +0.000 A 
ATOM     16  N   UNL     1       2.939   4.644  18.337  0.00  0.00    +0.000 N 
ATOM     17  C   UNL     1       2.795   5.969  18.904  0.00  0.00    +0.000 C 
ENDBRANCH   8  12
BRANCH   1  18
ATOM     18  C   UNL     1       9.388  10.145  18.913  0.00  0.00    +0.000 C 
BRANCH  18  23
ATOM     19  C   UNL     1      10.990  14.423  20.282  0.00  0.00    +0.000 C 
ATOM     20  N   UNL     1      10.602  13.635  19.118  0.00  0.00    +0.000 NA
ATOM     21  C   UNL     1       9.179  13.253  19.193  0.00  0.00    +0.000 C 
ATOM     22  C   UNL     1       8.757  12.347  18.012  0.00  0.00    +0.000 C 
ATOM     23  N   UNL     1       9.587  11.132  17.832  0.00  0.00    +0.000 NA
ATOM     24  C   UNL     1      11.004  11.554  17.786  0.00  0.00    +0.000 C 
ATOM     25  C   UNL     1      11.448  12.439  18.977  0.00  0.00    +0.000 C 
ENDBRANCH  18  23
ENDBRANCH   1  18
TORSDOF 3
ENDMDL
MODEL 3
REMARK VINA RESULT:      -6.8      1.802      9.138
REMARK  Name = 
REMARK  5 active torsions:
REMARK  status: ('A' for Active; 'I' for Inactive)
REMARK    1  A    between atoms: C_1  and  N_2
REMARK    2  A    between atoms: N_5  and  C_6
REMARK    3  A    between atoms: C_6  and  C_7
REMARK    4  A    between atoms: C_14  and  C_16
REMARK    5  A    between atoms: N_20  and  C_21
REMARK                            x       y       z     vdW  Elec       q    Type
REMARK                         _______ _______ _______ _____ _____    ______ ____
ROOT
ATOM      1  C   UNL     1      -0.326  10.760  20.300  0.00  0.00    +0.000 A 
ATOM      2  C   UNL     1       0.083  10.512  19.009  0.00  0.00    +0.000 A 
ATOM      3  N   UNL     1       0.891   9.426  19.109  0.00  0.00    +0.000 N 
ATOM      4  C   UNL     1       0.991   9.060  20.428  0.00  0.00    +0.000 A 
ATOM      5  N   UNL     1       0.262   9.862  21.176  0.00  0.00    +0.000 NA
ATOM      6  C   UNL     1       1.852   7.915  20.874  0.00  0.00    +0.000 C 
ATOM      7  N   UNL     1       2.249   7.081  19.729  0.00  0.00    +0.000 N 
ATOM      8  C   UNL     1       2.146   5.694  19.862  0.00  0.00    +0.000 C 
ATOM      9  O   UNL     1       1.673   5.201  20.886  0.00  0.00    +0.000 OA
ATOM     10  C   UNL     1       2.644   7.832  18.529  0.00  0.00    +0.000 C 
ATOM     11  C   UNL     1       1.505   8.704  18.022  0.00  0.00    +0.000 C 
ENDROOT
BRANCH   8  12
ATOM     12  C   UNL     1       2.578   4.834  18.764  0.00  0.00    +0.000 A 
ATOM     13  C   UNL     1       1.848   4.240  17.740  0.00  0.00    +0.000 A 
ATOM     14  C   UNL     1       2.714   3.435  16.968  0.00  0.00    +0.000 A 
ATOM     15  C   UNL     1       3.985   3.651  17.441  0.00  0.00    +0.000 A 
ATOM     16  N   UNL     1       3.904   4.528  18.494  0.00  0.00    +0.000 N 
ATOM     17  C   UNL     1       5.057   5.020  19.222  0.00  0.00    +0.000 C 
ENDBRANCH   8  12
BRANCH   1  18
ATOM     18  C   UNL     1      -1.289  11.794  20.798  0.00  0.00    +0.000 C 
BRANCH  18  23
ATOM     19  C   UNL     1      -4.301  14.917  22.778  0.00  0.00    +0.000 C 
ATOM     20  N   UNL     1      -3.108  14.117  23.033  0.00  0.00    +0.000 NA
ATOM     21  C   UNL     1      -2.002  14.525  22.145  0.00  0.00    +0.000 C 
ATOM     22  C   UNL     1      -0.748  13.639  22.334  0.00  0.00    +0.000 C 
ATOM     23  N   UNL     1      -0.986  12.183  22.190  0.00  0.00    +0.000 NA
ATOM     24  C   UNL     1      -2.114  11.820  23.074  0.00  0.00    +0.000 C 
ATOM     25  C   UNL     1      -3.387  12.679  22.877  0.00  0.00    +0.000 C 
ENDBRANCH  18  23
ENDBRANCH   1  18
TORSDOF 3
ENDMDL
MODEL 4
REMARK VINA RESULT:      -6.7      2.713      3.291
REMARK  Name = 
REMARK  5 active torsions:
REMARK  status: ('A' for Active; 'I' for Inactive)
REMARK    1  A    between atoms: C_1  and  N_2
REMARK    2  A    between atoms: N_5  and  C_6
REMARK    3  A    between atoms: C_6  and  C_7
REMARK    4  A    between atoms: C_14  and  C_16
REMARK    5  A    between atoms: N_20  and  C_21
REMARK                            x       y       z     vdW  Elec       q    Type
REMARK                         _______ _______ _______ _____ _____    ______ ____
ROOT
ATOM      1  C   UNL     1       2.219   7.019  19.860  0.00  0.00    +0.000 A 
ATOM      2  C   UNL     1       2.313   7.789  18.723  0.00  0.00    +0.000 A 
ATOM      3  N   UNL     1       1.580   8.897  18.997  0.00  0.00    +0.000 N 
ATOM      4  C   UNL     1       1.031   8.774  20.249  0.00  0.00    +0.000 A 
ATOM      5  N   UNL     1       1.402   7.634  20.794  0.00  0.00    +0.000 NA
ATOM      6  C   UNL     1       0.127   9.821  20.830  0.00  0.00    +0.000 C 
ATOM      7  N   UNL     1       0.210  11.071  20.058  0.00  0.00    +0.000 N 
ATOM      8  C   UNL     1       0.328  12.271  20.765  0.00  0.00    +0.000 C 
ATOM      9  O   UNL     1       0.427  12.262  21.992  0.00  0.00    +0.000 OA
ATOM     10  C   UNL     1       0.235  10.893  18.600  0.00  0.00    +0.000 C 
ATOM     11  C   UNL     1       1.435  10.065  18.163  0.00  0.00    +0.000 C 
ENDROOT
BRANCH   8  12
ATOM     12  C   UNL     1       0.364  13.533  20.034  0.00  0.00    +0.000 A 
ATOM     13  C   UNL     1      -0.665  14.391  19.658  0.00  0.00    +0.000 A 
ATOM     14  C   UNL     1      -0.124  15.448  18.894  0.00  0.00    +0.000 A 
ATOM     15  C   UNL     1       1.241  15.303  18.926  0.00  0.00    +0.000 A 
ATOM     16  N   UNL     1       1.533  14.174  19.650  0.00  0.00    +0.000 N 
ATOM     17  C   UNL     1       2.882  13.723  19.928  0.00  0.00    +0.000 C 
ENDBRANCH   8  12
BRANCH   1  18
ATOM     18  C   UNL     1       2.885   5.713  20.168  0.00  0.00    +0.000 C 
BRANCH  18  23
ATOM     19  C   UNL     1       3.638   1.360  18.372  0.00  0.00    +0.000 C 
ATOM     20  N   UNL     1       2.751   2.135  19.232  0.00  0.00    +0.000 NA
ATOM     21  C   UNL     1       2.087   3.210  18.470  0.00  0.00    +0.000 C 
ATOM     22  C   UNL     1       1.203   4.102  19.373  0.00  0.00    +0.000 C 
ATOM     23  N   UNL     1       1.896   4.683  20.547  0.00  0.00    +0.000 NA
ATOM     24  C   UNL     1       2.567   3.579  21.269  0.00  0.00    +0.000 C 
ATOM     25  C   UNL     1       3.479   2.695  20.383  0.00  0.00    +0.000 C 
ENDBRANCH  18  23
ENDBRANCH   1  18
TORSDOF 3
ENDMDL
MODEL 5
REMARK VINA RESULT:      -6.7      5.602      8.691
REMARK  Name = 
REMARK  5 active torsions:
REMARK  status: ('A' for Active; 'I' for Inactive)
REMARK    1  A    between atoms: C_1  and  N_2
REMARK    2  A    between atoms: N_5  and  C_6
REMARK    3  A    between atoms: C_6  and  C_7
REMARK    4  A    between atoms: C_14  and  C_16
REMARK    5  A    between atoms: N_20  and  C_21
REMARK                            x       y       z     vdW  Elec       q    Type
REMARK                         _______ _______ _______ _____ _____    ______ ____
ROOT
ATOM      1  C   UNL     1       8.409   8.569  18.289  0.00  0.00    +0.000 A 
ATOM      2  C   UNL     1       7.286   8.674  17.499  0.00  0.00    +0.000 A 
ATOM      3  N   UNL     1       6.736   7.433  17.520  0.00  0.00    +0.000 N 
ATOM      4  C   UNL     1       7.530   6.602  18.270  0.00  0.00    +0.000 A 
ATOM      5  N   UNL     1       8.560   7.271  18.746  0.00  0.00    +0.000 NA
ATOM      6  C   UNL     1       7.214   5.146  18.450  0.00  0.00    +0.000 C 
ATOM      7  N   UNL     1       5.833   4.855  18.036  0.00  0.00    +0.000 N 
ATOM      8  C   UNL     1       5.052   4.057  18.876  0.00  0.00    +0.000 C 
ATOM      9  O   UNL     1       5.495   3.673  19.958  0.00  0.00    +0.000 OA
ATOM     10  C   UNL     1       5.410   5.518  16.795  0.00  0.00    +0.000 C 
ATOM     11  C   UNL     1       5.486   7.033  16.922  0.00  0.00    +0.000 C 
ENDROOT
BRANCH   8  12
ATOM     12  C   UNL     1       3.693   3.707  18.473  0.00  0.00    +0.000 A 
ATOM     13  C   UNL     1       3.198   2.564  17.853  0.00  0.00    +0.000 A 
ATOM     14  C   UNL     1       1.820   2.739  17.602  0.00  0.00    +0.000 A 
ATOM     15  C   UNL     1       1.457   3.924  18.191  0.00  0.00    +0.000 A 
ATOM     16  N   UNL     1       2.577   4.484  18.752  0.00  0.00    +0.000 N 
ATOM     17  C   UNL     1       2.570   5.727  19.496  0.00  0.00    +0.000 C 
ENDBRANCH   8  12
BRANCH   1  18
ATOM     18  C   UNL     1       9.375   9.640  18.694  0.00  0.00    +0.000 C 
BRANCH  18  23
ATOM     19  C   UNL     1      12.150  13.434  19.499  0.00  0.00    +0.000 C 
ATOM     20  N   UNL     1      10.763  12.982  19.467  0.00  0.00    +0.000 NA
ATOM     21  C   UNL     1      10.528  11.935  20.479  0.00  0.00    +0.000 C 
ATOM     22  C   UNL     1       9.087  11.377  20.413  0.00  0.00    +0.000 C 
ATOM     23  N   UNL     1       8.670  10.879  19.080  0.00  0.00    +0.000 NA
ATOM     24  C   UNL     1       8.945  11.946  18.093  0.00  0.00    +0.000 C 
ATOM     25  C   UNL     1      10.392  12.495  18.127  0.00  0.00    +0.000 C 
ENDBRANCH  18  23
ENDBRANCH   1  18
TORSDOF 3
ENDMDL
MODEL 6
REMARK VINA RESULT:      -6.7      2.781      8.609
REMARK  Name = 
REMARK  5 active torsions:
REMARK  status: ('A' for Active; 'I' for Inactive)
REMARK    1  A    between atoms: C_1  and  N_2
REMARK    2  A    between atoms: N_5  and  C_6
REMARK    3  A    between atoms: C_6  and  C_7
REMARK    4  A    between atoms: C_14  and  C_16
REMARK    5  A    between atoms: N_20  and  C_21
REMARK                            x       y       z     vdW  Elec       q    Type
REMARK                         _______ _______ _______ _____ _____    ______ ____
ROOT
ATOM      1  C   UNL     1       1.062  10.284  18.974  0.00  0.00    +0.000 A 
ATOM      2  C   UNL     1       1.841   9.725  17.986  0.00  0.00    +0.000 A 
ATOM      3  N   UNL     1       2.155   8.491  18.455  0.00  0.00    +0.000 N 
ATOM      4  C   UNL     1       1.612   8.334  19.705  0.00  0.00    +0.000 A 
ATOM      5  N   UNL     1       0.944   9.417  20.047  0.00  0.00    +0.000 NA
ATOM      6  C   UNL     1       1.818   7.087  20.514  0.00  0.00    +0.000 C 
ATOM      7  N   UNL     1       2.343   6.000  19.673  0.00  0.00    +0.000 N 
ATOM      8  C   UNL     1       1.762   4.735  19.800  0.00  0.00    +0.000 C 
ATOM      9  O   UNL     1       0.797   4.566  20.545  0.00  0.00    +0.000 OA
ATOM     10  C   UNL     1       3.391   6.405  18.726  0.00  0.00    +0.000 C 
ATOM     11  C   UNL     1       2.881   7.460  17.755  0.00  0.00    +0.000 C 
ENDROOT
BRANCH   8  12
ATOM     12  C   UNL     1       2.291   3.621  19.018  0.00  0.00    +0.000 A 
ATOM     13  C   UNL     1       2.201   3.349  17.656  0.00  0.00    +0.000 A 
ATOM     14  C   UNL     1       2.814   2.104  17.397  0.00  0.00    +0.000 A 
ATOM     15  C   UNL     1       3.390   1.693  18.573  0.00  0.00    +0.000 A 
ATOM     16  N   UNL     1       3.111   2.630  19.536  0.00  0.00    +0.000 N 
ATOM     17  C   UNL     1       3.592   2.550  20.901  0.00  0.00    +0.000 C 
ENDBRANCH   8  12
BRANCH   1  18
ATOM     18  C   UNL     1       0.364  11.610  18.981  0.00  0.00    +0.000 C 
BRANCH  18  23
ATOM     19  C   UNL     1       1.236  16.287  18.648  0.00  0.00    +0.000 C 
ATOM     20  N   UNL     1       1.063  15.192  19.597  0.00  0.00    +0.000 NA
ATOM     21  C   UNL     1       2.110  14.169  19.415  0.00  0.00    +0.000 C 
ATOM     22  C   UNL     1       1.905  12.954  20.351  0.00  0.00    +0.000 C 
ATOM     23  N   UNL     1       0.570  12.317  20.262  0.00  0.00    +0.000 NA
ATOM     24  C   UNL     1      -0.449  13.377  20.425  0.00  0.00    +0.000 C 
ATOM     25  C   UNL     1      -0.274  14.587  19.474  0.00  0.00    +0.000 C 
ENDBRANCH  18  23
ENDBRANCH   1  18
TORSDOF 3
ENDMDL
MODEL 7
REMARK VINA RESULT:      -6.6      1.488      2.338
REMARK  Name = 
REMARK  5 active torsions:
REMARK  status: ('A' for Active; 'I' for Inactive)
REMARK    1  A    between atoms: C_1  and  N_2
REMARK    2  A    between atoms: N_5  and  C_6
REMARK    3  A    between atoms: C_6  and  C_7
REMARK    4  A    between atoms: C_14  and  C_16
REMARK    5  A    between atoms: N_20  and  C_21
REMARK                            x       y       z     vdW  Elec       q    Type
REMARK                         _______ _______ _______ _____ _____    ______ ____
ROOT
ATOM      1  C   UNL     1       2.301   7.303  19.411  0.00  0.00    +0.000 A 
ATOM      2  C   UNL     1       2.112   8.460  18.689  0.00  0.00    +0.000 A 
ATOM      3  N   UNL     1       1.207   9.169  19.411  0.00  0.00    +0.000 N 
ATOM      4  C   UNL     1       0.839   8.439  20.512  0.00  0.00    +0.000 A 
ATOM      5  N   UNL     1       1.489   7.293  20.532  0.00  0.00    +0.000 NA
ATOM      6  C   UNL     1      -0.186   8.933  21.491  0.00  0.00    +0.000 C 
ATOM      7  N   UNL     1      -0.442  10.369  21.300  0.00  0.00    +0.000 N 
ATOM      8  C   UNL     1      -0.487  11.183  22.436  0.00  0.00    +0.000 C 
ATOM      9  O   UNL     1      -0.251  10.711  23.548  0.00  0.00    +0.000 OA
ATOM     10  C   UNL     1      -0.546  10.794  19.898  0.00  0.00    +0.000 C 
ATOM     11  C   UNL     1       0.738  10.505  19.134  0.00  0.00    +0.000 C 
ENDROOT
BRANCH   8  12
ATOM     12  C   UNL     1      -0.787  12.604  22.288  0.00  0.00    +0.000 A 
ATOM     13  C   UNL     1       0.036  13.672  21.945  0.00  0.00    +0.000 A 
ATOM     14  C   UNL     1      -0.713  14.867  22.012  0.00  0.00    +0.000 A 
ATOM     15  C   UNL     1      -2.014  14.507  22.260  0.00  0.00    +0.000 A 
ATOM     16  N   UNL     1      -2.063  13.140  22.382  0.00  0.00    +0.000 N 
ATOM     17  C   UNL     1      -3.285  12.396  22.610  0.00  0.00    +0.000 C 
ENDBRANCH   8  12
BRANCH   1  18
ATOM     18  C   UNL     1       3.246   6.172  19.141  0.00  0.00    +0.000 C 
BRANCH  18  23
ATOM     19  C   UNL     1       3.622   1.436  18.731  0.00  0.00    +0.000 C 
ATOM     20  N   UNL     1       3.356   2.659  17.982  0.00  0.00    +0.000 NA
ATOM     21  C   UNL     1       4.528   3.555  18.005  0.00  0.00    +0.000 C 
ATOM     22  C   UNL     1       4.248   4.897  17.290  0.00  0.00    +0.000 C 
ATOM     23  N   UNL     1       3.056   5.629  17.780  0.00  0.00    +0.000 NA
ATOM     24  C   UNL     1       1.912   4.692  17.765  0.00  0.00    +0.000 C 
ATOM     25  C   UNL     1       2.167   3.355  18.503  0.00  0.00    +0.000 C 
ENDBRANCH  18  23
ENDBRANCH   1  18
TORSDOF 3
ENDMDL
MODEL 8
REMARK VINA RESULT:      -6.6      2.642      3.383
REMARK  Name = 
REMARK  5 active torsions:
REMARK  status: ('A' for Active; 'I' for Inactive)
REMARK    1  A    between atoms: C_1  and  N_2
REMARK    2  A    between atoms: N_5  and  C_6
REMARK    3  A    between atoms: C_6  and  C_7
REMARK    4  A    between atoms: C_14  and  C_16
REMARK    5  A    between atoms: N_20  and  C_21
REMARK                            x       y       z     vdW  Elec       q    Type
REMARK                         _______ _______ _______ _____ _____    ______ ____
ROOT
ATOM      1  C   UNL     1       2.272   6.927  19.771  0.00  0.00    +0.000 A 
ATOM      2  C   UNL     1       2.361   7.687  18.626  0.00  0.00    +0.000 A 
ATOM      3  N   UNL     1       1.671   8.820  18.914  0.00  0.00    +0.000 N 
ATOM      4  C   UNL     1       1.153   8.722  20.180  0.00  0.00    +0.000 A 
ATOM      5  N   UNL     1       1.501   7.573  20.723  0.00  0.00    +0.000 NA
ATOM      6  C   UNL     1       0.299   9.801  20.778  0.00  0.00    +0.000 C 
ATOM      7  N   UNL     1       0.402  11.043  19.997  0.00  0.00    +0.000 N 
ATOM      8  C   UNL     1       0.578  12.242  20.693  0.00  0.00    +0.000 C 
ATOM      9  O   UNL     1       0.709  12.237  21.917  0.00  0.00    +0.000 OA
ATOM     10  C   UNL     1       0.382  10.857  18.539  0.00  0.00    +0.000 C 
ATOM     11  C   UNL     1       1.542   9.987  18.076  0.00  0.00    +0.000 C 
ENDROOT
BRANCH   8  12
ATOM     12  C   UNL     1       0.635  13.499  19.953  0.00  0.00    +0.000 A 
ATOM     13  C   UNL     1       1.681  14.089  19.249  0.00  0.00    +0.000 A 
ATOM     14  C   UNL     1       1.258  15.348  18.771  0.00  0.00    +0.000 A 
ATOM     15  C   UNL     1      -0.078  15.457  19.066  0.00  0.00    +0.000 A 
ATOM     16  N   UNL     1      -0.460  14.324  19.739  0.00  0.00    +0.000 N 
ATOM     17  C   UNL     1      -1.817  14.068  20.180  0.00  0.00    +0.000 C 
ENDBRANCH   8  12
BRANCH   1  18
ATOM     18  C   UNL     1       2.904   5.602  20.069  0.00  0.00    +0.000 C 
BRANCH  18  23
ATOM     19  C   UNL     1       3.741   1.238  18.338  0.00  0.00    +0.000 C 
ATOM     20  N   UNL     1       2.804   2.022  19.135  0.00  0.00    +0.000 NA
ATOM     21  C   UNL     1       2.202   3.100  18.327  0.00  0.00    +0.000 C 
ATOM     22  C   UNL     1       1.266   4.002  19.167  0.00  0.00    +0.000 C 
ATOM     23  N   UNL     1       1.884   4.580  20.384  0.00  0.00    +0.000 NA
ATOM     24  C   UNL     1       2.495   3.473  21.151  0.00  0.00    +0.000 C 
ATOM     25  C   UNL     1       3.458   2.579  20.331  0.00  0.00    +0.000 C 
ENDBRANCH  18  23
ENDBRANCH   1  18
TORSDOF 3
ENDMDL
MODEL 9
REMARK VINA RESULT:      -6.5      2.801      8.718
REMARK  Name = 
REMARK  5 active torsions:
REMARK  status: ('A' for Active; 'I' for Inactive)
REMARK    1  A    between atoms: C_1  and  N_2
REMARK    2  A    between atoms: N_5  and  C_6
REMARK    3  A    between atoms: C_6  and  C_7
REMARK    4  A    between atoms: C_14  and  C_16
REMARK    5  A    between atoms: N_20  and  C_21
REMARK                            x       y       z     vdW  Elec       q    Type
REMARK                         _______ _______ _______ _____ _____    ______ ____
ROOT
ATOM      1  C   UNL     1       0.804  10.273  19.294  0.00  0.00    +0.000 A 
ATOM      2  C   UNL     1       1.545   9.789  18.239  0.00  0.00    +0.000 A 
ATOM      3  N   UNL     1       1.935   8.551  18.636  0.00  0.00    +0.000 N 
ATOM      4  C   UNL     1       1.473   8.320  19.907  0.00  0.00    +0.000 A 
ATOM      5  N   UNL     1       0.783   9.359  20.333  0.00  0.00    +0.000 NA
ATOM      6  C   UNL     1       1.776   7.050  20.648  0.00  0.00    +0.000 C 
ATOM      7  N   UNL     1       2.294   6.022  19.732  0.00  0.00    +0.000 N 
ATOM      8  C   UNL     1       1.772   4.729  19.837  0.00  0.00    +0.000 C 
ATOM      9  O   UNL     1       0.860   4.489  20.628  0.00  0.00    +0.000 OA
ATOM     10  C   UNL     1       3.267   6.510  18.746  0.00  0.00    +0.000 C 
ATOM     11  C   UNL     1       2.659   7.581  17.852  0.00  0.00    +0.000 C 
ENDROOT
BRANCH   8  12
ATOM     12  C   UNL     1       2.298   3.672  18.978  0.00  0.00    +0.000 A 
ATOM     13  C   UNL     1       2.146   3.456  17.612  0.00  0.00    +0.000 A 
ATOM     14  C   UNL     1       2.788   2.248  17.265  0.00  0.00    +0.000 A 
ATOM     15  C   UNL     1       3.441   1.808  18.389  0.00  0.00    +0.000 A 
ATOM     16  N   UNL     1       3.180   2.691  19.407  0.00  0.00    +0.000 N 
ATOM     17  C   UNL     1       3.736   2.570  20.740  0.00  0.00    +0.000 C 
ENDBRANCH   8  12
BRANCH   1  18
ATOM     18  C   UNL     1       0.055  11.567  19.398  0.00  0.00    +0.000 C 
BRANCH  18  23
ATOM     19  C   UNL     1      -0.376  15.554  21.979  0.00  0.00    +0.000 C 
ATOM     20  N   UNL     1       0.325  14.963  20.844  0.00  0.00    +0.000 NA
ATOM     21  C   UNL     1      -0.622  14.597  19.774  0.00  0.00    +0.000 C 
ATOM     22  C   UNL     1       0.082  13.891  18.591  0.00  0.00    +0.000 C 
ATOM     23  N   UNL     1       0.889  12.706  18.963  0.00  0.00    +0.000 NA
ATOM     24  C   UNL     1       1.806  13.106  20.053  0.00  0.00    +0.000 C 
ATOM     25  C   UNL     1       1.112  13.789  21.257  0.00  0.00    +0.000 C 
ENDBRANCH  18  23
ENDBRANCH   1  18
TORSDOF 3
ENDMDL
