MODEL 1
REMARK VINA RESULT:      -5.6      0.000      0.000
REMARK  Name = 
REMARK  4 active torsions:
REMARK  status: ('A' for Active; 'I' for Inactive)
REMARK    1  A    between atoms: C_1  and  C_2
REMARK    2  A    between atoms: C_2  and  N_3
REMARK    3  A    between atoms: N_3  and  C_4
REMARK    4  A    between atoms: C_4  and  C_5
REMARK                            x       y       z     vdW  Elec       q    Type
REMARK                         _______ _______ _______ _____ _____    ______ ____
ROOT
ATOM      1  N   UNL     1       5.496   6.126  18.044  0.00  0.00    +0.000 NA
ATOM      2  H   UNL     1       5.200   7.056  18.345  0.00  0.00    +0.000 HD
ENDROOT
BRANCH   1   4
ATOM      3  C   UNL     1       7.613   7.401  17.480  0.00  0.00    +0.000 C 
ATOM      4  C   UNL     1       6.827   6.106  17.403  0.00  0.00    +0.000 C 
ATOM      5  C   UNL     1       7.598   4.855  17.889  0.00  0.00    +0.000 C 
ATOM      6  O   UNL     1       7.862   4.461  16.512  0.00  0.00    +0.000 OA
ATOM      7  C   UNL     1       6.788   5.336  16.064  0.00  0.00    +0.000 C 
ENDBRANCH   1   4
BRANCH   1   8
ATOM      8  C   UNL     1       4.459   5.576  17.168  0.00  0.00    +0.000 C 
BRANCH   8   9
ATOM      9  C   UNL     1       3.357   4.979  17.992  0.00  0.00    +0.000 A 
ATOM     10  C   UNL     1       2.612   3.841  17.740  0.00  0.00    +0.000 A 
ATOM     11  C   UNL     1       1.645   3.596  18.754  0.00  0.00    +0.000 A 
ATOM     12 CL   UNL     1       0.577   2.263  18.711  0.00  0.00    +0.000 Cl
ATOM     13  C   UNL     1       1.676   4.545  19.746  0.00  0.00    +0.000 A 
ATOM     14  S   UNL     1       2.872   5.734  19.456  0.00  0.00    +0.000 S 
ENDBRANCH   8   9
ENDBRANCH   1   8
TORSDOF 3
ENDMDL
MODEL 2
REMARK VINA RESULT:      -5.6      1.342      1.380
REMARK  Name = 
REMARK  4 active torsions:
REMARK  status: ('A' for Active; 'I' for Inactive)
REMARK    1  A    between atoms: C_1  and  C_2
REMARK    2  A    between atoms: C_2  and  N_3
REMARK    3  A    between atoms: N_3  and  C_4
REMARK    4  A    between atoms: C_4  and  C_5
REMARK                            x       y       z     vdW  Elec       q    Type
REMARK                         _______ _______ _______ _____ _____    ______ ____
ROOT
ATOM      1  N   UNL     1       5.414   5.958  17.950  0.00  0.00    +0.000 NA
ATOM      2  H   UNL     1       4.724   6.469  17.397  0.00  0.00    +0.000 HD
ENDROOT
BRANCH   1   4
ATOM      3  C   UNL     1       7.523   7.313  17.574  0.00  0.00    +0.000 C 
ATOM      4  C   UNL     1       6.779   6.006  17.386  0.00  0.00    +0.000 C 
ATOM      5  C   UNL     1       7.556   4.750  17.850  0.00  0.00    +0.000 C 
ATOM      6  O   UNL     1       7.907   4.436  16.472  0.00  0.00    +0.000 OA
ATOM      7  C   UNL     1       6.836   5.307  16.009  0.00  0.00    +0.000 C 
ENDBRANCH   1   4
BRANCH   1   8
ATOM      8  C   UNL     1       4.940   4.582  18.116  0.00  0.00    +0.000 C 
BRANCH   8   9
ATOM      9  C   UNL     1       3.830   4.542  19.125  0.00  0.00    +0.000 A 
ATOM     10  C   UNL     1       3.366   3.462  19.852  0.00  0.00    +0.000 A 
ATOM     11  C   UNL     1       2.287   3.813  20.709  0.00  0.00    +0.000 A 
ATOM     12 CL   UNL     1       1.508   2.684  21.728  0.00  0.00    +0.000 Cl
ATOM     13  C   UNL     1       1.957   5.143  20.615  0.00  0.00    +0.000 A 
ATOM     14  S   UNL     1       2.949   5.969  19.491  0.00  0.00    +0.000 S 
ENDBRANCH   8   9
ENDBRANCH   1   8
TORSDOF 3
ENDMDL
MODEL 3
REMARK VINA RESULT:      -5.5      2.147      2.421
REMARK  Name = 
REMARK  4 active torsions:
REMARK  status: ('A' for Active; 'I' for Inactive)
REMARK    1  A    between atoms: C_1  and  C_2
REMARK    2  A    between atoms: C_2  and  N_3
REMARK    3  A    between atoms: N_3  and  C_4
REMARK    4  A    between atoms: C_4  and  C_5
REMARK                            x       y       z     vdW  Elec       q    Type
REMARK                         _______ _______ _______ _____ _____    ______ ____
ROOT
ATOM      1  N   UNL     1       5.071   3.685  16.850  0.00  0.00    +0.000 NA
ATOM      2  H   UNL     1       5.504   2.772  16.700  0.00  0.00    +0.000 HD
ENDROOT
BRANCH   1   4
ATOM      3  C   UNL     1       5.044   6.129  16.179  0.00  0.00    +0.000 C 
ATOM      4  C   UNL     1       5.749   4.787  16.137  0.00  0.00    +0.000 C 
ATOM      5  C   UNL     1       7.234   4.827  16.574  0.00  0.00    +0.000 C 
ATOM      6  O   UNL     1       7.662   4.790  15.181  0.00  0.00    +0.000 OA
ATOM      7  C   UNL     1       6.346   4.300  14.798  0.00  0.00    +0.000 C 
ENDBRANCH   1   4
BRANCH   1   8
ATOM      8  C   UNL     1       5.005   3.928  18.294  0.00  0.00    +0.000 C 
BRANCH   8   9
ATOM      9  C   UNL     1       3.748   3.332  18.855  0.00  0.00    +0.000 A 
ATOM     10  C   UNL     1       3.274   3.385  20.153  0.00  0.00    +0.000 A 
ATOM     11  C   UNL     1       2.043   2.688  20.306  0.00  0.00    +0.000 A 
ATOM     12 CL   UNL     1       1.220   2.581  21.799  0.00  0.00    +0.000 Cl
ATOM     13  C   UNL     1       1.613   2.125  19.130  0.00  0.00    +0.000 A 
ATOM     14  S   UNL     1       2.693   2.435  17.840  0.00  0.00    +0.000 S 
ENDBRANCH   8   9
ENDBRANCH   1   8
TORSDOF 3
ENDMDL
MODEL 4
REMARK VINA RESULT:      -5.5      1.628      1.731
REMARK  Name = 
REMARK  4 active torsions:
REMARK  status: ('A' for Active; 'I' for Inactive)
REMARK    1  A    between atoms: C_1  and  C_2
REMARK    2  A    between atoms: C_2  and  N_3
REMARK    3  A    between atoms: N_3  and  C_4
REMARK    4  A    between atoms: C_4  and  C_5
REMARK                            x       y       z     vdW  Elec       q    Type
REMARK                         _______ _______ _______ _____ _____    ______ ____
ROOT
ATOM      1  N   UNL     1       4.912   5.519  16.950  0.00  0.00    +0.000 NA
ATOM      2  H   UNL     1       4.402   6.090  16.273  0.00  0.00    +0.000 HD
ENDROOT
BRANCH   1   4
ATOM      3  C   UNL     1       6.805   7.174  17.270  0.00  0.00    +0.000 C 
ATOM      4  C   UNL     1       6.370   5.758  16.947  0.00  0.00    +0.000 C 
ATOM      5  C   UNL     1       7.057   4.664  17.800  0.00  0.00    +0.000 C 
ATOM      6  O   UNL     1       7.959   4.348  16.700  0.00  0.00    +0.000 OA
ATOM      7  C   UNL     1       7.053   5.016  15.776  0.00  0.00    +0.000 C 
ENDBRANCH   1   4
BRANCH   1   8
ATOM      8  C   UNL     1       4.588   4.113  16.699  0.00  0.00    +0.000 C 
BRANCH   8   9
ATOM      9  C   UNL     1       3.599   3.626  17.716  0.00  0.00    +0.000 A 
ATOM     10  C   UNL     1       2.731   4.367  18.497  0.00  0.00    +0.000 A 
ATOM     11  C   UNL     1       1.947   3.548  19.357  0.00  0.00    +0.000 A 
ATOM     12 CL   UNL     1       0.788   4.185  20.439  0.00  0.00    +0.000 Cl
ATOM     13  C   UNL     1       2.237   2.213  19.212  0.00  0.00    +0.000 A 
ATOM     14  S   UNL     1       3.453   1.946  18.039  0.00  0.00    +0.000 S 
ENDBRANCH   8   9
ENDBRANCH   1   8
TORSDOF 3
ENDMDL
MODEL 5
REMARK VINA RESULT:      -5.5      1.531      1.666
REMARK  Name = 
REMARK  4 active torsions:
REMARK  status: ('A' for Active; 'I' for Inactive)
REMARK    1  A    between atoms: C_1  and  C_2
REMARK    2  A    between atoms: C_2  and  N_3
REMARK    3  A    between atoms: N_3  and  C_4
REMARK    4  A    between atoms: C_4  and  C_5
REMARK                            x       y       z     vdW  Elec       q    Type
REMARK                         _______ _______ _______ _____ _____    ______ ____
ROOT
ATOM      1  N   UNL     1       5.255   6.298  17.555  0.00  0.00    +0.000 NA
ATOM      2  H   UNL     1       4.969   7.148  17.066  0.00  0.00    +0.000 HD
ENDROOT
BRANCH   1   4
ATOM      3  C   UNL     1       7.511   7.451  17.497  0.00  0.00    +0.000 C 
ATOM      4  C   UNL     1       6.716   6.182  17.738  0.00  0.00    +0.000 C 
ATOM      5  C   UNL     1       6.997   5.496  19.097  0.00  0.00    +0.000 C 
ATOM      6  O   UNL     1       7.852   4.513  18.443  0.00  0.00    +0.000 OA
ATOM      7  C   UNL     1       7.246   4.850  17.162  0.00  0.00    +0.000 C 
ENDBRANCH   1   4
BRANCH   1   8
ATOM      8  C   UNL     1       4.702   5.147  16.836  0.00  0.00    +0.000 C 
BRANCH   8   9
ATOM      9  C   UNL     1       3.736   4.411  17.715  0.00  0.00    +0.000 A 
ATOM     10  C   UNL     1       2.787   4.930  18.577  0.00  0.00    +0.000 A 
ATOM     11  C   UNL     1       2.058   3.911  19.252  0.00  0.00    +0.000 A 
ATOM     12 CL   UNL     1       0.822   4.251  20.381  0.00  0.00    +0.000 Cl
ATOM     13  C   UNL     1       2.467   2.651  18.891  0.00  0.00    +0.000 A 
ATOM     14  S   UNL     1       3.730   2.694  17.738  0.00  0.00    +0.000 S 
ENDBRANCH   8   9
ENDBRANCH   1   8
TORSDOF 3
ENDMDL
MODEL 6
REMARK VINA RESULT:      -5.4      3.714      5.567
REMARK  Name = 
REMARK  4 active torsions:
REMARK  status: ('A' for Active; 'I' for Inactive)
REMARK    1  A    between atoms: C_1  and  C_2
REMARK    2  A    between atoms: C_2  and  N_3
REMARK    3  A    between atoms: N_3  and  C_4
REMARK    4  A    between atoms: C_4  and  C_5
REMARK                            x       y       z     vdW  Elec       q    Type
REMARK                         _______ _______ _______ _____ _____    ______ ____
ROOT
ATOM      1  N   UNL     1       3.801   3.191  18.991  0.00  0.00    +0.000 NA
ATOM      2  H   UNL     1       3.902   2.695  18.103  0.00  0.00    +0.000 HD
ENDROOT
BRANCH   1   4
ATOM      3  C   UNL     1       1.618   3.988  17.979  0.00  0.00    +0.000 C 
ATOM      4  C   UNL     1       2.440   3.717  19.224  0.00  0.00    +0.000 C 
ATOM      5  C   UNL     1       1.736   2.831  20.280  0.00  0.00    +0.000 C 
ATOM      6  O   UNL     1       1.414   4.007  21.078  0.00  0.00    +0.000 OA
ATOM      7  C   UNL     1       2.435   4.761  20.363  0.00  0.00    +0.000 C 
ENDBRANCH   1   4
BRANCH   1   8
ATOM      8  C   UNL     1       4.812   4.250  19.042  0.00  0.00    +0.000 C 
BRANCH   8   9
ATOM      9  C   UNL     1       5.528   4.337  17.727  0.00  0.00    +0.000 A 
ATOM     10  C   UNL     1       5.043   4.060  16.462  0.00  0.00    +0.000 A 
ATOM     11  C   UNL     1       6.028   4.252  15.453  0.00  0.00    +0.000 A 
ATOM     12 CL   UNL     1       5.719   3.985  13.794  0.00  0.00    +0.000 Cl
ATOM     13  C   UNL     1       7.230   4.667  15.971  0.00  0.00    +0.000 A 
ATOM     14  S   UNL     1       7.173   4.826  17.673  0.00  0.00    +0.000 S 
ENDBRANCH   8   9
ENDBRANCH   1   8
TORSDOF 3
ENDMDL
MODEL 7
REMARK VINA RESULT:      -5.4      1.970      2.216
REMARK  Name = 
REMARK  4 active torsions:
REMARK  status: ('A' for Active; 'I' for Inactive)
REMARK    1  A    between atoms: C_1  and  C_2
REMARK    2  A    between atoms: C_2  and  N_3
REMARK    3  A    between atoms: N_3  and  C_4
REMARK    4  A    between atoms: C_4  and  C_5
REMARK                            x       y       z     vdW  Elec       q    Type
REMARK                         _______ _______ _______ _____ _____    ______ ____
ROOT
ATOM      1  N   UNL     1       6.227   4.229  17.682  0.00  0.00    +0.000 NA
ATOM      2  H   UNL     1       7.046   3.681  17.950  0.00  0.00    +0.000 HD
ENDROOT
BRANCH   1   4
ATOM      3  C   UNL     1       7.366   6.477  17.416  0.00  0.00    +0.000 C 
ATOM      4  C   UNL     1       6.540   5.368  16.795  0.00  0.00    +0.000 C 
ATOM      5  C   UNL     1       7.098   4.822  15.458  0.00  0.00    +0.000 C 
ATOM      6  O   UNL     1       6.118   5.600  14.711  0.00  0.00    +0.000 OA
ATOM      7  C   UNL     1       5.322   5.744  15.922  0.00  0.00    +0.000 C 
ENDBRANCH   1   4
BRANCH   1   8
ATOM      8  C   UNL     1       5.544   4.660  18.904  0.00  0.00    +0.000 C 
BRANCH   8   9
ATOM      9  C   UNL     1       4.275   3.880  19.084  0.00  0.00    +0.000 A 
ATOM     10  C   UNL     1       3.397   3.897  20.151  0.00  0.00    +0.000 A 
ATOM     11  C   UNL     1       2.302   3.008  19.963  0.00  0.00    +0.000 A 
ATOM     12 CL   UNL     1       1.057   2.815  21.117  0.00  0.00    +0.000 Cl
ATOM     13  C   UNL     1       2.373   2.340  18.765  0.00  0.00    +0.000 A 
ATOM     14  S   UNL     1       3.760   2.784  17.867  0.00  0.00    +0.000 S 
ENDBRANCH   8   9
ENDBRANCH   1   8
TORSDOF 3
ENDMDL
MODEL 8
REMARK VINA RESULT:      -5.4      1.801      2.282
REMARK  Name = 
REMARK  4 active torsions:
REMARK  status: ('A' for Active; 'I' for Inactive)
REMARK    1  A    between atoms: C_1  and  C_2
REMARK    2  A    between atoms: C_2  and  N_3
REMARK    3  A    between atoms: N_3  and  C_4
REMARK    4  A    between atoms: C_4  and  C_5
REMARK                            x       y       z     vdW  Elec       q    Type
REMARK                         _______ _______ _______ _____ _____    ______ ____
ROOT
ATOM      1  N   UNL     1       5.229   3.875  17.436  0.00  0.00    +0.000 NA
ATOM      2  H   UNL     1       5.526   2.918  17.632  0.00  0.00    +0.000 HD
ENDROOT
BRANCH   1   4
ATOM      3  C   UNL     1       5.623   4.067  14.939  0.00  0.00    +0.000 C 
ATOM      4  C   UNL     1       5.986   4.517  16.341  0.00  0.00    +0.000 C 
ATOM      5  C   UNL     1       5.963   6.051  16.550  0.00  0.00    +0.000 C 
ATOM      6  O   UNL     1       7.416   6.103  16.449  0.00  0.00    +0.000 OA
ATOM      7  C   UNL     1       7.477   4.672  16.712  0.00  0.00    +0.000 C 
ENDBRANCH   1   4
BRANCH   1   8
ATOM      8  C   UNL     1       5.310   4.645  18.680  0.00  0.00    +0.000 C 
BRANCH   8   9
ATOM      9  C   UNL     1       4.004   4.570  19.413  0.00  0.00    +0.000 A 
ATOM     10  C   UNL     1       3.453   3.494  20.084  0.00  0.00    +0.000 A 
ATOM     11  C   UNL     1       2.186   3.804  20.652  0.00  0.00    +0.000 A 
ATOM     12 CL   UNL     1       1.265   2.671  21.538  0.00  0.00    +0.000 Cl
ATOM     13  C   UNL     1       1.805   5.100  20.401  0.00  0.00    +0.000 A 
ATOM     14  S   UNL     1       2.975   5.943  19.480  0.00  0.00    +0.000 S 
ENDBRANCH   8   9
ENDBRANCH   1   8
TORSDOF 3
ENDMDL
MODEL 9
REMARK VINA RESULT:      -5.3      3.558      5.624
REMARK  Name = 
REMARK  4 active torsions:
REMARK  status: ('A' for Active; 'I' for Inactive)
REMARK    1  A    between atoms: C_1  and  C_2
REMARK    2  A    between atoms: C_2  and  N_3
REMARK    3  A    between atoms: N_3  and  C_4
REMARK    4  A    between atoms: C_4  and  C_5
REMARK                            x       y       z     vdW  Elec       q    Type
REMARK                         _______ _______ _______ _____ _____    ______ ____
ROOT
ATOM      1  N   UNL     1       2.726   4.380  18.948  0.00  0.00    +0.000 NA
ATOM      2  H   UNL     1       2.208   5.260  18.937  0.00  0.00    +0.000 HD
ENDROOT
BRANCH   1   4
ATOM      3  C   UNL     1       1.309   2.279  18.914  0.00  0.00    +0.000 C 
ATOM      4  C   UNL     1       2.063   3.313  19.726  0.00  0.00    +0.000 C 
ATOM      5  C   UNL     1       3.079   2.724  20.734  0.00  0.00    +0.000 C 
ATOM      6  O   UNL     1       2.144   2.940  21.830  0.00  0.00    +0.000 OA
ATOM      7  C   UNL     1       1.405   3.883  21.003  0.00  0.00    +0.000 C 
ENDBRANCH   1   4
BRANCH   1   8
ATOM      8  C   UNL     1       4.080   4.650  19.436  0.00  0.00    +0.000 C 
BRANCH   8   9
ATOM      9  C   UNL     1       5.053   4.606  18.296  0.00  0.00    +0.000 A 
ATOM     10  C   UNL     1       4.837   4.192  16.994  0.00  0.00    +0.000 A 
ATOM     11  C   UNL     1       6.011   4.286  16.196  0.00  0.00    +0.000 A 
ATOM     12 CL   UNL     1       6.048   3.843  14.547  0.00  0.00    +0.000 Cl
ATOM     13  C   UNL     1       7.086   4.766  16.905  0.00  0.00    +0.000 A 
ATOM     14  S   UNL     1       6.680   5.102  18.532  0.00  0.00    +0.000 S 
ENDBRANCH   8   9
ENDBRANCH   1   8
TORSDOF 3
ENDMDL
