MODEL 1
REMARK VINA RESULT:      -7.5      0.000      0.000
REMARK  Name = 
REMARK  8 active torsions:
REMARK  status: ('A' for Active; 'I' for Inactive)
REMARK    1  A    between atoms: C_1  and  C_2
REMARK    2  A    between atoms: C_2  and  C_3
REMARK    3  A    between atoms: C_10  and  S_11
REMARK    4  A    between atoms: S_11  and  C_12
REMARK    5  A    between atoms: C_12  and  C_13
REMARK    6  A    between atoms: N_15  and  C_16
REMARK    7  A    between atoms: C_16  and  C_17
REMARK    8  A    between atoms: N_22  and  C_23
REMARK                            x       y       z     vdW  Elec       q    Type
REMARK                         _______ _______ _______ _____ _____    ______ ____
ROOT
ATOM      1  C   UNL     1       5.778   5.884  15.221  0.00  0.00    +0.000 C 
ATOM      2  C   UNL     1       5.356   5.757  16.695  0.00  0.00    +0.000 C 
ATOM      3  C   UNL     1       6.517   6.249  17.576  0.00  0.00    +0.000 C 
ATOM      4  C   UNL     1       4.070   6.585  16.935  0.00  0.00    +0.000 C 
ATOM      5  C   UNL     1       3.409   6.356  18.275  0.00  0.00    +0.000 A 
ATOM      6  C   UNL     1       3.606   5.214  19.038  0.00  0.00    +0.000 A 
ATOM      7  S   UNL     1       2.716   5.259  20.501  0.00  0.00    +0.000 S 
ATOM      8  C   UNL     1       2.033   6.773  20.126  0.00  0.00    +0.000 A 
ATOM      9  N   UNL     1       1.175   7.387  20.976  0.00  0.00    +0.000 NA
ATOM     10  C   UNL     1       0.717   8.538  20.572  0.00  0.00    +0.000 A 
ATOM     11  N   UNL     1       1.056   9.142  19.345  0.00  0.00    +0.000 N 
ATOM     12  C   UNL     1       1.970   8.533  18.468  0.00  0.00    +0.000 A 
ATOM     13  O   UNL     1       2.314   8.992  17.379  0.00  0.00    +0.000 OA
ATOM     14  C   UNL     1       2.480   7.249  18.918  0.00  0.00    +0.000 A 
ATOM     15  C   UNL     1       4.498   4.046  18.752  0.00  0.00    +0.000 C 
ATOM     16  S   UNL     1       5.026   3.966  17.010  0.00  0.00    +0.000 S 
ENDROOT
BRANCH  11  17
ATOM     17  C   UNL     1       0.521  10.402  18.932  0.00  0.00    +0.000 A 
ATOM     18  C   UNL     1       1.303  11.564  18.966  0.00  0.00    +0.000 A 
ATOM     19  C   UNL     1       0.785  12.774  18.502  0.00  0.00    +0.000 A 
ATOM     20  C   UNL     1      -0.523  12.835  18.021  0.00  0.00    +0.000 A 
ATOM     21  C   UNL     1      -1.323  11.694  18.030  0.00  0.00    +0.000 A 
ATOM     22  C   UNL     1      -0.808  10.484  18.494  0.00  0.00    +0.000 A 
ENDBRANCH  11  17
BRANCH  10  23
ATOM     23  S   UNL     1      -0.349   9.411  21.676  0.00  0.00    +0.000 S 
BRANCH  23  24
ATOM     24  C   UNL     1       0.563  10.915  22.090  0.00  0.00    +0.000 C 
BRANCH  24  25
ATOM     25  C   UNL     1      -0.318  12.150  22.023  0.00  0.00    +0.000 C 
ATOM     26  O   UNL     1       0.122  13.282  22.203  0.00  0.00    +0.000 OA
ATOM     27  N   UNL     1      -1.627  11.900  21.689  0.00  0.00    +0.000 N 
ATOM     28  H   UNL     1      -1.926  10.939  21.563  0.00  0.00    +0.000 HD
BRANCH  27  29
ATOM     29  C   UNL     1      -2.612  12.941  21.540  0.00  0.00    +0.000 C 
BRANCH  29  30
ATOM     30  C   UNL     1      -3.562  12.923  22.679  0.00  0.00    +0.000 A 
ATOM     31  C   UNL     1      -3.607  12.202  23.856  0.00  0.00    +0.000 A 
ATOM     32  C   UNL     1      -4.709  12.700  24.590  0.00  0.00    +0.000 A 
ATOM     33  C   UNL     1      -5.279  13.677  23.808  0.00  0.00    +0.000 A 
ATOM     34  O   UNL     1      -4.596  13.813  22.640  0.00  0.00    +0.000 OA
ENDBRANCH  29  30
ENDBRANCH  27  29
ENDBRANCH  24  25
ENDBRANCH  23  24
ENDBRANCH  10  23
TORSDOF 6
ENDMDL
MODEL 2
REMARK VINA RESULT:      -7.5      0.930      1.271
REMARK  Name = 
REMARK  8 active torsions:
REMARK  status: ('A' for Active; 'I' for Inactive)
REMARK    1  A    between atoms: C_1  and  C_2
REMARK    2  A    between atoms: C_2  and  C_3
REMARK    3  A    between atoms: C_10  and  S_11
REMARK    4  A    between atoms: S_11  and  C_12
REMARK    5  A    between atoms: C_12  and  C_13
REMARK    6  A    between atoms: N_15  and  C_16
REMARK    7  A    between atoms: C_16  and  C_17
REMARK    8  A    between atoms: N_22  and  C_23
REMARK                            x       y       z     vdW  Elec       q    Type
REMARK                         _______ _______ _______ _____ _____    ______ ____
ROOT
ATOM      1  C   UNL     1       5.876   5.967  15.491  0.00  0.00    +0.000 C 
ATOM      2  C   UNL     1       5.378   5.823  16.939  0.00  0.00    +0.000 C 
ATOM      3  C   UNL     1       6.486   6.317  17.885  0.00  0.00    +0.000 C 
ATOM      4  C   UNL     1       4.074   6.637  17.119  0.00  0.00    +0.000 C 
ATOM      5  C   UNL     1       3.345   6.388  18.420  0.00  0.00    +0.000 A 
ATOM      6  C   UNL     1       3.512   5.241  19.182  0.00  0.00    +0.000 A 
ATOM      7  S   UNL     1       2.546   5.264  20.595  0.00  0.00    +0.000 S 
ATOM      8  C   UNL     1       1.869   6.774  20.199  0.00  0.00    +0.000 A 
ATOM      9  N   UNL     1       0.962   7.373  21.007  0.00  0.00    +0.000 NA
ATOM     10  C   UNL     1       0.514   8.523  20.591  0.00  0.00    +0.000 A 
ATOM     11  N   UNL     1       0.912   9.143  19.389  0.00  0.00    +0.000 N 
ATOM     12  C   UNL     1       1.878   8.550  18.556  0.00  0.00    +0.000 A 
ATOM     13  O   UNL     1       2.274   9.023  17.491  0.00  0.00    +0.000 OA
ATOM     14  C   UNL     1       2.375   7.266  19.021  0.00  0.00    +0.000 A 
ATOM     15  C   UNL     1       4.430   4.084  18.932  0.00  0.00    +0.000 C 
ATOM     16  S   UNL     1       5.049   4.026  17.219  0.00  0.00    +0.000 S 
ENDROOT
BRANCH  11  17
ATOM     17  C   UNL     1       0.388  10.401  18.960  0.00  0.00    +0.000 A 
ATOM     18  C   UNL     1       1.135  11.579  19.095  0.00  0.00    +0.000 A 
ATOM     19  C   UNL     1       0.634  12.790  18.616  0.00  0.00    +0.000 A 
ATOM     20  C   UNL     1      -0.625  12.835  18.017  0.00  0.00    +0.000 A 
ATOM     21  C   UNL     1      -1.396  11.678  17.924  0.00  0.00    +0.000 A 
ATOM     22  C   UNL     1      -0.897  10.467  18.402  0.00  0.00    +0.000 A 
ENDBRANCH  11  17
BRANCH  10  23
ATOM     23  S   UNL     1      -0.616   9.376  21.644  0.00  0.00    +0.000 S 
BRANCH  23  24
ATOM     24  C   UNL     1       0.353  10.728  22.349  0.00  0.00    +0.000 C 
BRANCH  24  25
ATOM     25  C   UNL     1      -0.393  12.049  22.298  0.00  0.00    +0.000 C 
ATOM     26  O   UNL     1       0.175  13.118  22.091  0.00  0.00    +0.000 OA
ATOM     27  N   UNL     1      -1.755  11.941  22.443  0.00  0.00    +0.000 N 
ATOM     28  H   UNL     1      -2.158  11.028  22.621  0.00  0.00    +0.000 HD
BRANCH  27  29
ATOM     29  C   UNL     1      -2.643  13.075  22.389  0.00  0.00    +0.000 C 
BRANCH  29  30
ATOM     30  C   UNL     1      -3.795  12.787  21.499  0.00  0.00    +0.000 A 
ATOM     31  C   UNL     1      -3.938  12.748  20.126  0.00  0.00    +0.000 A 
ATOM     32  C   UNL     1      -5.261  12.316  19.873  0.00  0.00    +0.000 A 
ATOM     33  C   UNL     1      -5.848  12.141  21.104  0.00  0.00    +0.000 A 
ATOM     34  O   UNL     1      -4.970  12.434  22.099  0.00  0.00    +0.000 OA
ENDBRANCH  29  30
ENDBRANCH  27  29
ENDBRANCH  24  25
ENDBRANCH  23  24
ENDBRANCH  10  23
TORSDOF 6
ENDMDL
MODEL 3
REMARK VINA RESULT:      -7.4      0.915      1.488
REMARK  Name = 
REMARK  8 active torsions:
REMARK  status: ('A' for Active; 'I' for Inactive)
REMARK    1  A    between atoms: C_1  and  C_2
REMARK    2  A    between atoms: C_2  and  C_3
REMARK    3  A    between atoms: C_10  and  S_11
REMARK    4  A    between atoms: S_11  and  C_12
REMARK    5  A    between atoms: C_12  and  C_13
REMARK    6  A    between atoms: N_15  and  C_16
REMARK    7  A    between atoms: C_16  and  C_17
REMARK    8  A    between atoms: N_22  and  C_23
REMARK                            x       y       z     vdW  Elec       q    Type
REMARK                         _______ _______ _______ _____ _____    ______ ____
ROOT
ATOM      1  C   UNL     1       5.687   5.937  15.282  0.00  0.00    +0.000 C 
ATOM      2  C   UNL     1       5.265   5.834  16.757  0.00  0.00    +0.000 C 
ATOM      3  C   UNL     1       6.430   6.332  17.630  0.00  0.00    +0.000 C 
ATOM      4  C   UNL     1       3.985   6.673  16.986  0.00  0.00    +0.000 C 
ATOM      5  C   UNL     1       3.324   6.467  18.330  0.00  0.00    +0.000 A 
ATOM      6  C   UNL     1       3.514   5.336  19.109  0.00  0.00    +0.000 A 
ATOM      7  S   UNL     1       2.625   5.407  20.572  0.00  0.00    +0.000 S 
ATOM      8  C   UNL     1       1.951   6.919  20.175  0.00  0.00    +0.000 A 
ATOM      9  N   UNL     1       1.098   7.550  21.017  0.00  0.00    +0.000 NA
ATOM     10  C   UNL     1       0.646   8.698  20.597  0.00  0.00    +0.000 A 
ATOM     11  N   UNL     1       0.988   9.283  19.361  0.00  0.00    +0.000 N 
ATOM     12  C   UNL     1       1.898   8.655  18.492  0.00  0.00    +0.000 A 
ATOM     13  O   UNL     1       2.244   9.097  17.396  0.00  0.00    +0.000 OA
ATOM     14  C   UNL     1       2.400   7.375  18.961  0.00  0.00    +0.000 A 
ATOM     15  C   UNL     1       4.400   4.158  18.839  0.00  0.00    +0.000 C 
ATOM     16  S   UNL     1       4.925   4.050  17.098  0.00  0.00    +0.000 S 
ENDROOT
BRANCH  11  17
ATOM     17  C   UNL     1       0.460  10.539  18.930  0.00  0.00    +0.000 A 
ATOM     18  C   UNL     1      -0.862  10.651  18.478  0.00  0.00    +0.000 A 
ATOM     19  C   UNL     1      -1.380  11.895  18.118  0.00  0.00    +0.000 A 
ATOM     20  C   UNL     1      -0.576  13.033  18.189  0.00  0.00    +0.000 A 
ATOM     21  C   UNL     1       0.754  12.923  18.590  0.00  0.00    +0.000 A 
ATOM     22  C   UNL     1       1.275  11.680  18.949  0.00  0.00    +0.000 A 
ENDBRANCH  11  17
BRANCH  10  23
ATOM     23  S   UNL     1      -0.413   9.594  21.688  0.00  0.00    +0.000 S 
BRANCH  23  24
ATOM     24  C   UNL     1       0.446  11.157  21.971  0.00  0.00    +0.000 C 
BRANCH  24  25
ATOM     25  C   UNL     1      -0.518  12.285  22.295  0.00  0.00    +0.000 C 
ATOM     26  O   UNL     1      -0.238  13.465  22.106  0.00  0.00    +0.000 OA
ATOM     27  N   UNL     1      -1.743  11.872  22.760  0.00  0.00    +0.000 N 
ATOM     28  H   UNL     1      -1.905  10.881  22.902  0.00  0.00    +0.000 HD
BRANCH  27  29
ATOM     29  C   UNL     1      -2.807  12.786  23.090  0.00  0.00    +0.000 C 
BRANCH  29  30
ATOM     30  C   UNL     1      -3.864  12.748  22.049  0.00  0.00    +0.000 A 
ATOM     31  C   UNL     1      -5.234  12.916  22.093  0.00  0.00    +0.000 A 
ATOM     32  C   UNL     1      -5.688  12.863  20.754  0.00  0.00    +0.000 A 
ATOM     33  C   UNL     1      -4.571  12.645  19.981  0.00  0.00    +0.000 A 
ATOM     34  O   UNL     1      -3.460  12.563  20.758  0.00  0.00    +0.000 OA
ENDBRANCH  29  30
ENDBRANCH  27  29
ENDBRANCH  24  25
ENDBRANCH  23  24
ENDBRANCH  10  23
TORSDOF 6
ENDMDL
MODEL 4
REMARK VINA RESULT:      -7.4      3.582      8.235
REMARK  Name = 
REMARK  8 active torsions:
REMARK  status: ('A' for Active; 'I' for Inactive)
REMARK    1  A    between atoms: C_1  and  C_2
REMARK    2  A    between atoms: C_2  and  C_3
REMARK    3  A    between atoms: C_10  and  S_11
REMARK    4  A    between atoms: S_11  and  C_12
REMARK    5  A    between atoms: C_12  and  C_13
REMARK    6  A    between atoms: N_15  and  C_16
REMARK    7  A    between atoms: C_16  and  C_17
REMARK    8  A    between atoms: N_22  and  C_23
REMARK                            x       y       z     vdW  Elec       q    Type
REMARK                         _______ _______ _______ _____ _____    ______ ____
ROOT
ATOM      1  C   UNL     1       2.172  17.968  16.938  0.00  0.00    +0.000 C 
ATOM      2  C   UNL     1       2.317  17.181  18.251  0.00  0.00    +0.000 C 
ATOM      3  C   UNL     1       1.610  17.967  19.368  0.00  0.00    +0.000 C 
ATOM      4  C   UNL     1       1.707  15.769  18.076  0.00  0.00    +0.000 C 
ATOM      5  C   UNL     1       1.999  14.808  19.205  0.00  0.00    +0.000 A 
ATOM      6  C   UNL     1       3.066  14.957  20.079  0.00  0.00    +0.000 A 
ATOM      7  S   UNL     1       3.121  13.703  21.244  0.00  0.00    +0.000 S 
ATOM      8  C   UNL     1       1.756  12.929  20.585  0.00  0.00    +0.000 A 
ATOM      9  N   UNL     1       1.265  11.788  21.126  0.00  0.00    +0.000 NA
ATOM     10  C   UNL     1       0.220  11.290  20.527  0.00  0.00    +0.000 A 
ATOM     11  N   UNL     1      -0.391  11.858  19.391  0.00  0.00    +0.000 N 
ATOM     12  C   UNL     1       0.086  13.060  18.839  0.00  0.00    +0.000 A 
ATOM     13  O   UNL     1      -0.387  13.616  17.849  0.00  0.00    +0.000 OA
ATOM     14  C   UNL     1       1.252  13.613  19.507  0.00  0.00    +0.000 A 
ATOM     15  C   UNL     1       4.078  16.060  20.132  0.00  0.00    +0.000 C 
ATOM     16  S   UNL     1       4.127  17.052  18.604  0.00  0.00    +0.000 S 
ENDROOT
BRANCH  11  17
ATOM     17  C   UNL     1      -1.529  11.273  18.755  0.00  0.00    +0.000 A 
ATOM     18  C   UNL     1      -1.383  10.231  17.829  0.00  0.00    +0.000 A 
ATOM     19  C   UNL     1      -2.508   9.630  17.263  0.00  0.00    +0.000 A 
ATOM     20  C   UNL     1      -3.784  10.080  17.601  0.00  0.00    +0.000 A 
ATOM     21  C   UNL     1      -3.937  11.149  18.482  0.00  0.00    +0.000 A 
ATOM     22  C   UNL     1      -2.814  11.751  19.050  0.00  0.00    +0.000 A 
ENDBRANCH  11  17
BRANCH  10  23
ATOM     23  S   UNL     1      -0.500   9.843  21.236  0.00  0.00    +0.000 S 
BRANCH  23  24
ATOM     24  C   UNL     1       0.910   8.808  21.685  0.00  0.00    +0.000 C 
BRANCH  24  25
ATOM     25  C   UNL     1       1.497   8.094  20.480  0.00  0.00    +0.000 C 
ATOM     26  O   UNL     1       1.491   8.586  19.356  0.00  0.00    +0.000 OA
ATOM     27  N   UNL     1       2.084   6.885  20.764  0.00  0.00    +0.000 N 
ATOM     28  H   UNL     1       2.045   6.531  21.715  0.00  0.00    +0.000 HD
BRANCH  27  29
ATOM     29  C   UNL     1       2.728   6.070  19.765  0.00  0.00    +0.000 C 
BRANCH  29  30
ATOM     30  C   UNL     1       2.014   4.779  19.610  0.00  0.00    +0.000 A 
ATOM     31  C   UNL     1       1.223   4.032  20.460  0.00  0.00    +0.000 A 
ATOM     32  C   UNL     1       0.742   2.937  19.704  0.00  0.00    +0.000 A 
ATOM     33  C   UNL     1       1.286   3.073  18.448  0.00  0.00    +0.000 A 
ATOM     34  O   UNL     1       2.068   4.182  18.382  0.00  0.00    +0.000 OA
ENDBRANCH  29  30
ENDBRANCH  27  29
ENDBRANCH  24  25
ENDBRANCH  23  24
ENDBRANCH  10  23
TORSDOF 6
ENDMDL
MODEL 5
REMARK VINA RESULT:      -7.1      3.044      5.029
REMARK  Name = 
REMARK  8 active torsions:
REMARK  status: ('A' for Active; 'I' for Inactive)
REMARK    1  A    between atoms: C_1  and  C_2
REMARK    2  A    between atoms: C_2  and  C_3
REMARK    3  A    between atoms: C_10  and  S_11
REMARK    4  A    between atoms: S_11  and  C_12
REMARK    5  A    between atoms: C_12  and  C_13
REMARK    6  A    between atoms: N_15  and  C_16
REMARK    7  A    between atoms: C_16  and  C_17
REMARK    8  A    between atoms: N_22  and  C_23
REMARK                            x       y       z     vdW  Elec       q    Type
REMARK                         _______ _______ _______ _____ _____    ______ ____
ROOT
ATOM      1  C   UNL     1       1.911   2.818  21.402  0.00  0.00    +0.000 C 
ATOM      2  C   UNL     1       2.133   3.729  20.183  0.00  0.00    +0.000 C 
ATOM      3  C   UNL     1       1.145   3.311  19.080  0.00  0.00    +0.000 C 
ATOM      4  C   UNL     1       1.928   5.206  20.599  0.00  0.00    +0.000 C 
ATOM      5  C   UNL     1       2.352   6.221  19.563  0.00  0.00    +0.000 A 
ATOM      6  C   UNL     1       3.257   5.945  18.549  0.00  0.00    +0.000 A 
ATOM      7  S   UNL     1       3.527   7.304  17.542  0.00  0.00    +0.000 S 
ATOM      8  C   UNL     1       2.476   8.283  18.456  0.00  0.00    +0.000 A 
ATOM      9  N   UNL     1       2.249   9.576  18.120  0.00  0.00    +0.000 NA
ATOM     10  C   UNL     1       1.430  10.221  18.901  0.00  0.00    +0.000 A 
ATOM     11  N   UNL     1       0.801   9.659  20.030  0.00  0.00    +0.000 N 
ATOM     12  C   UNL     1       1.000   8.310  20.372  0.00  0.00    +0.000 A 
ATOM     13  O   UNL     1       0.493   7.748  21.342  0.00  0.00    +0.000 OA
ATOM     14  C   UNL     1       1.915   7.592  19.501  0.00  0.00    +0.000 A 
ATOM     15  C   UNL     1       3.941   4.648  18.239  0.00  0.00    +0.000 C 
ATOM     16  S   UNL     1       3.873   3.463  19.620  0.00  0.00    +0.000 S 
ENDROOT
BRANCH  11  17
ATOM     17  C   UNL     1      -0.083  10.405  20.871  0.00  0.00    +0.000 A 
ATOM     18  C   UNL     1       0.009  10.325  22.267  0.00  0.00    +0.000 A 
ATOM     19  C   UNL     1      -0.821  11.105  23.073  0.00  0.00    +0.000 A 
ATOM     20  C   UNL     1      -1.762  11.954  22.490  0.00  0.00    +0.000 A 
ATOM     21  C   UNL     1      -1.894  12.003  21.103  0.00  0.00    +0.000 A 
ATOM     22  C   UNL     1      -1.065  11.223  20.296  0.00  0.00    +0.000 A 
ENDBRANCH  11  17
BRANCH  10  23
ATOM     23  S   UNL     1       1.045  11.888  18.464  0.00  0.00    +0.000 S 
BRANCH  23  24
ATOM     24  C   UNL     1       2.647  12.642  18.105  0.00  0.00    +0.000 C 
BRANCH  24  25
ATOM     25  C   UNL     1       2.738  14.061  18.636  0.00  0.00    +0.000 C 
ATOM     26  O   UNL     1       3.749  14.747  18.511  0.00  0.00    +0.000 OA
ATOM     27  N   UNL     1       1.582  14.531  19.212  0.00  0.00    +0.000 N 
ATOM     28  H   UNL     1       0.786  13.907  19.292  0.00  0.00    +0.000 HD
BRANCH  27  29
ATOM     29  C   UNL     1       1.454  15.864  19.743  0.00  0.00    +0.000 C 
BRANCH  29  30
ATOM     30  C   UNL     1       0.939  16.789  18.704  0.00  0.00    +0.000 A 
ATOM     31  C   UNL     1       1.559  17.610  17.783  0.00  0.00    +0.000 A 
ATOM     32  C   UNL     1       0.531  18.176  16.993  0.00  0.00    +0.000 A 
ATOM     33  C   UNL     1      -0.651  17.682  17.494  0.00  0.00    +0.000 A 
ATOM     34  O   UNL     1      -0.416  16.846  18.539  0.00  0.00    +0.000 OA
ENDBRANCH  29  30
ENDBRANCH  27  29
ENDBRANCH  24  25
ENDBRANCH  23  24
ENDBRANCH  10  23
TORSDOF 6
ENDMDL
MODEL 6
REMARK VINA RESULT:      -7.0      3.547     10.480
REMARK  Name = 
REMARK  8 active torsions:
REMARK  status: ('A' for Active; 'I' for Inactive)
REMARK    1  A    between atoms: C_1  and  C_2
REMARK    2  A    between atoms: C_2  and  C_3
REMARK    3  A    between atoms: C_10  and  S_11
REMARK    4  A    between atoms: S_11  and  C_12
REMARK    5  A    between atoms: C_12  and  C_13
REMARK    6  A    between atoms: N_15  and  C_16
REMARK    7  A    between atoms: C_16  and  C_17
REMARK    8  A    between atoms: N_22  and  C_23
REMARK                            x       y       z     vdW  Elec       q    Type
REMARK                         _______ _______ _______ _____ _____    ______ ____
ROOT
ATOM      1  C   UNL     1      -1.769  11.709  22.165  0.00  0.00    +0.000 C 
ATOM      2  C   UNL     1      -0.539  11.607  21.248  0.00  0.00    +0.000 C 
ATOM      3  C   UNL     1       0.684  12.138  22.015  0.00  0.00    +0.000 C 
ATOM      4  C   UNL     1      -0.340  10.135  20.813  0.00  0.00    +0.000 C 
ATOM      5  C   UNL     1       0.682   9.929  19.718  0.00  0.00    +0.000 A 
ATOM      6  C   UNL     1       1.074  10.930  18.842  0.00  0.00    +0.000 A 
ATOM      7  S   UNL     1       2.245  10.377  17.720  0.00  0.00    +0.000 S 
ATOM      8  C   UNL     1       2.220   8.800  18.358  0.00  0.00    +0.000 A 
ATOM      9  N   UNL     1       3.009   7.823  17.849  0.00  0.00    +0.000 NA
ATOM     10  C   UNL     1       2.894   6.657  18.420  0.00  0.00    +0.000 A 
ATOM     11  N   UNL     1       2.022   6.380  19.492  0.00  0.00    +0.000 N 
ATOM     12  C   UNL     1       1.223   7.391  20.053  0.00  0.00    +0.000 A 
ATOM     13  O   UNL     1       0.435   7.229  20.984  0.00  0.00    +0.000 OA
ATOM     14  C   UNL     1       1.350   8.690  19.415  0.00  0.00    +0.000 A 
ATOM     15  C   UNL     1       0.641  12.364  18.812  0.00  0.00    +0.000 C 
ATOM     16  S   UNL     1      -0.878  12.666  19.771  0.00  0.00    +0.000 S 
ENDROOT
BRANCH  11  17
ATOM     17  C   UNL     1       1.916   5.083  20.083  0.00  0.00    +0.000 A 
ATOM     18  C   UNL     1       2.601   4.769  21.264  0.00  0.00    +0.000 A 
ATOM     19  C   UNL     1       2.439   3.519  21.862  0.00  0.00    +0.000 A 
ATOM     20  C   UNL     1       1.607   2.567  21.272  0.00  0.00    +0.000 A 
ATOM     21  C   UNL     1       0.960   2.853  20.071  0.00  0.00    +0.000 A 
ATOM     22  C   UNL     1       1.122   4.102  19.472  0.00  0.00    +0.000 A 
ENDBRANCH  11  17
BRANCH  10  23
ATOM     23  S   UNL     1       3.953   5.369  17.839  0.00  0.00    +0.000 S 
BRANCH  23  24
ATOM     24  C   UNL     1       5.007   6.169  16.610  0.00  0.00    +0.000 C 
BRANCH  24  25
ATOM     25  C   UNL     1       5.966   5.188  15.959  0.00  0.00    +0.000 C 
ATOM     26  O   UNL     1       6.484   4.264  16.580  0.00  0.00    +0.000 OA
ATOM     27  N   UNL     1       6.157   5.385  14.613  0.00  0.00    +0.000 N 
ATOM     28  H   UNL     1       5.704   6.174  14.164  0.00  0.00    +0.000 HD
BRANCH  27  29
ATOM     29  C   UNL     1       7.001   4.540  13.807  0.00  0.00    +0.000 C 
BRANCH  29  30
ATOM     30  C   UNL     1       6.181   3.718  12.884  0.00  0.00    +0.000 A 
ATOM     31  C   UNL     1       4.840   3.727  12.554  0.00  0.00    +0.000 A 
ATOM     32  C   UNL     1       4.671   2.762  11.533  0.00  0.00    +0.000 A 
ATOM     33  C   UNL     1       5.912   2.212  11.319  0.00  0.00    +0.000 A 
ATOM     34  O   UNL     1       6.835   2.778  12.141  0.00  0.00    +0.000 OA
ENDBRANCH  29  30
ENDBRANCH  27  29
ENDBRANCH  24  25
ENDBRANCH  23  24
ENDBRANCH  10  23
TORSDOF 6
ENDMDL
MODEL 7
REMARK VINA RESULT:      -6.9      3.157      5.143
REMARK  Name = 
REMARK  8 active torsions:
REMARK  status: ('A' for Active; 'I' for Inactive)
REMARK    1  A    between atoms: C_1  and  C_2
REMARK    2  A    between atoms: C_2  and  C_3
REMARK    3  A    between atoms: C_10  and  S_11
REMARK    4  A    between atoms: S_11  and  C_12
REMARK    5  A    between atoms: C_12  and  C_13
REMARK    6  A    between atoms: N_15  and  C_16
REMARK    7  A    between atoms: C_16  and  C_17
REMARK    8  A    between atoms: N_22  and  C_23
REMARK                            x       y       z     vdW  Elec       q    Type
REMARK                         _______ _______ _______ _____ _____    ______ ____
ROOT
ATOM      1  C   UNL     1       2.606   2.816  20.794  0.00  0.00    +0.000 C 
ATOM      2  C   UNL     1       2.652   3.799  19.613  0.00  0.00    +0.000 C 
ATOM      3  C   UNL     1       1.588   3.374  18.586  0.00  0.00    +0.000 C 
ATOM      4  C   UNL     1       2.400   5.237  20.128  0.00  0.00    +0.000 C 
ATOM      5  C   UNL     1       2.659   6.328  19.115  0.00  0.00    +0.000 A 
ATOM      6  C   UNL     1       3.476   6.163  18.006  0.00  0.00    +0.000 A 
ATOM      7  S   UNL     1       3.563   7.586  17.057  0.00  0.00    +0.000 S 
ATOM      8  C   UNL     1       2.549   8.447  18.119  0.00  0.00    +0.000 A 
ATOM      9  N   UNL     1       2.213   9.737  17.879  0.00  0.00    +0.000 NA
ATOM     10  C   UNL     1       1.436  10.287  18.769  0.00  0.00    +0.000 A 
ATOM     11  N   UNL     1       0.956   9.630  19.920  0.00  0.00    +0.000 N 
ATOM     12  C   UNL     1       1.269   8.281  20.165  0.00  0.00    +0.000 A 
ATOM     13  O   UNL     1       0.894   7.639  21.145  0.00  0.00    +0.000 OA
ATOM     14  C   UNL     1       2.136   7.669  19.172  0.00  0.00    +0.000 A 
ATOM     15  C   UNL     1       4.202   4.932  17.561  0.00  0.00    +0.000 C 
ATOM     16  S   UNL     1       4.342   3.676  18.874  0.00  0.00    +0.000 S 
ENDROOT
BRANCH  11  17
ATOM     17  C   UNL     1       0.115  10.273  20.880  0.00  0.00    +0.000 A 
ATOM     18  C   UNL     1      -0.812  11.249  20.490  0.00  0.00    +0.000 A 
ATOM     19  C   UNL     1      -1.668  11.823  21.431  0.00  0.00    +0.000 A 
ATOM     20  C   UNL     1      -1.589  11.440  22.770  0.00  0.00    +0.000 A 
ATOM     21  C   UNL     1      -0.637  10.507  23.175  0.00  0.00    +0.000 A 
ATOM     22  C   UNL     1       0.220   9.932  22.236  0.00  0.00    +0.000 A 
ENDBRANCH  11  17
BRANCH  10  23
ATOM     23  S   UNL     1       0.911  11.945  18.465  0.00  0.00    +0.000 S 
BRANCH  23  24
ATOM     24  C   UNL     1       2.204  12.971  19.199  0.00  0.00    +0.000 C 
BRANCH  24  25
ATOM     25  C   UNL     1       1.680  14.333  19.618  0.00  0.00    +0.000 C 
ATOM     26  O   UNL     1       0.693  14.466  20.336  0.00  0.00    +0.000 OA
ATOM     27  N   UNL     1       2.432  15.394  19.176  0.00  0.00    +0.000 N 
ATOM     28  H   UNL     1       3.231  15.214  18.578  0.00  0.00    +0.000 HD
BRANCH  27  29
ATOM     29  C   UNL     1       2.122  16.764  19.497  0.00  0.00    +0.000 C 
BRANCH  29  30
ATOM     30  C   UNL     1       1.317  17.380  18.413  0.00  0.00    +0.000 A 
ATOM     31  C   UNL     1      -0.030  17.649  18.277  0.00  0.00    +0.000 A 
ATOM     32  C   UNL     1      -0.181  18.341  17.052  0.00  0.00    +0.000 A 
ATOM     33  C   UNL     1       1.079  18.433  16.509  0.00  0.00    +0.000 A 
ATOM     34  O   UNL     1       1.995  17.844  17.322  0.00  0.00    +0.000 OA
ENDBRANCH  29  30
ENDBRANCH  27  29
ENDBRANCH  24  25
ENDBRANCH  23  24
ENDBRANCH  10  23
TORSDOF 6
ENDMDL
MODEL 8
REMARK VINA RESULT:      -6.9      3.514      5.885
REMARK  Name = 
REMARK  8 active torsions:
REMARK  status: ('A' for Active; 'I' for Inactive)
REMARK    1  A    between atoms: C_1  and  C_2
REMARK    2  A    between atoms: C_2  and  C_3
REMARK    3  A    between atoms: C_10  and  S_11
REMARK    4  A    between atoms: S_11  and  C_12
REMARK    5  A    between atoms: C_12  and  C_13
REMARK    6  A    between atoms: N_15  and  C_16
REMARK    7  A    between atoms: C_16  and  C_17
REMARK    8  A    between atoms: N_22  and  C_23
REMARK                            x       y       z     vdW  Elec       q    Type
REMARK                         _______ _______ _______ _____ _____    ______ ____
ROOT
ATOM      1  C   UNL     1       2.050   2.734  21.358  0.00  0.00    +0.000 C 
ATOM      2  C   UNL     1       2.225   3.659  20.142  0.00  0.00    +0.000 C 
ATOM      3  C   UNL     1       1.205   3.245  19.067  0.00  0.00    +0.000 C 
ATOM      4  C   UNL     1       2.024   5.130  20.579  0.00  0.00    +0.000 C 
ATOM      5  C   UNL     1       2.407   6.159  19.540  0.00  0.00    +0.000 A 
ATOM      6  C   UNL     1       3.281   5.899  18.494  0.00  0.00    +0.000 A 
ATOM      7  S   UNL     1       3.507   7.270  17.493  0.00  0.00    +0.000 S 
ATOM      8  C   UNL     1       2.480   8.232  18.450  0.00  0.00    +0.000 A 
ATOM      9  N   UNL     1       2.234   9.527  18.135  0.00  0.00    +0.000 NA
ATOM     10  C   UNL     1       1.436  10.158  18.949  0.00  0.00    +0.000 A 
ATOM     11  N   UNL     1       0.848   9.581  20.092  0.00  0.00    +0.000 N 
ATOM     12  C   UNL     1       1.068   8.230  20.414  0.00  0.00    +0.000 A 
ATOM     13  O   UNL     1       0.597   7.654  21.394  0.00  0.00    +0.000 OA
ATOM     14  C   UNL     1       1.959   7.527  19.506  0.00  0.00    +0.000 A 
ATOM     15  C   UNL     1       3.962   4.611  18.149  0.00  0.00    +0.000 C 
ATOM     16  S   UNL     1       3.948   3.411  19.520  0.00  0.00    +0.000 S 
ENDROOT
BRANCH  11  17
ATOM     17  C   UNL     1      -0.013  10.311  20.969  0.00  0.00    +0.000 A 
ATOM     18  C   UNL     1      -0.931  11.244  20.467  0.00  0.00    +0.000 A 
ATOM     19  C   UNL     1      -1.806  11.904  21.330  0.00  0.00    +0.000 A 
ATOM     20  C   UNL     1      -1.756  11.652  22.702  0.00  0.00    +0.000 A 
ATOM     21  C   UNL     1      -0.813  10.763  23.214  0.00  0.00    +0.000 A 
ATOM     22  C   UNL     1       0.063  10.103  22.353  0.00  0.00    +0.000 A 
ENDBRANCH  11  17
BRANCH  10  23
ATOM     23  S   UNL     1       1.026  11.826  18.541  0.00  0.00    +0.000 S 
BRANCH  23  24
ATOM     24  C   UNL     1       2.615  12.611  18.194  0.00  0.00    +0.000 C 
BRANCH  24  25
ATOM     25  C   UNL     1       2.513  14.125  18.192  0.00  0.00    +0.000 C 
ATOM     26  O   UNL     1       1.585  14.723  18.729  0.00  0.00    +0.000 OA
ATOM     27  N   UNL     1       3.569  14.768  17.593  0.00  0.00    +0.000 N 
ATOM     28  H   UNL     1       4.299  14.212  17.160  0.00  0.00    +0.000 HD
BRANCH  27  29
ATOM     29  C   UNL     1       3.677  16.202  17.519  0.00  0.00    +0.000 C 
BRANCH  29  30
ATOM     30  C   UNL     1       4.545  16.713  18.608  0.00  0.00    +0.000 A 
ATOM     31  C   UNL     1       5.913  16.711  18.802  0.00  0.00    +0.000 A 
ATOM     32  C   UNL     1       6.151  17.439  19.992  0.00  0.00    +0.000 A 
ATOM     33  C   UNL     1       4.915  17.820  20.460  0.00  0.00    +0.000 A 
ATOM     34  O   UNL     1       3.932  17.376  19.633  0.00  0.00    +0.000 OA
ENDBRANCH  29  30
ENDBRANCH  27  29
ENDBRANCH  24  25
ENDBRANCH  23  24
ENDBRANCH  10  23
TORSDOF 6
ENDMDL
MODEL 9
REMARK VINA RESULT:      -6.9      2.834      4.465
REMARK  Name = 
REMARK  8 active torsions:
REMARK  status: ('A' for Active; 'I' for Inactive)
REMARK    1  A    between atoms: C_1  and  C_2
REMARK    2  A    between atoms: C_2  and  C_3
REMARK    3  A    between atoms: C_10  and  S_11
REMARK    4  A    between atoms: S_11  and  C_12
REMARK    5  A    between atoms: C_12  and  C_13
REMARK    6  A    between atoms: N_15  and  C_16
REMARK    7  A    between atoms: C_16  and  C_17
REMARK    8  A    between atoms: N_22  and  C_23
REMARK                            x       y       z     vdW  Elec       q    Type
REMARK                         _______ _______ _______ _____ _____    ______ ____
ROOT
ATOM      1  C   UNL     1       1.820   2.882  21.575  0.00  0.00    +0.000 C 
ATOM      2  C   UNL     1       2.126   3.677  20.295  0.00  0.00    +0.000 C 
ATOM      3  C   UNL     1       1.170   3.201  19.187  0.00  0.00    +0.000 C 
ATOM      4  C   UNL     1       1.959   5.191  20.576  0.00  0.00    +0.000 C 
ATOM      5  C   UNL     1       2.463   6.099  19.478  0.00  0.00    +0.000 A 
ATOM      6  C   UNL     1       3.399   5.707  18.532  0.00  0.00    +0.000 A 
ATOM      7  S   UNL     1       3.761   6.965  17.428  0.00  0.00    +0.000 S 
ATOM      8  C   UNL     1       2.710   8.054  18.208  0.00  0.00    +0.000 A 
ATOM      9  N   UNL     1       2.546   9.320  17.755  0.00  0.00    +0.000 NA
ATOM     10  C   UNL     1       1.719  10.056  18.442  0.00  0.00    +0.000 A 
ATOM     11  N   UNL     1       1.024   9.615  19.586  0.00  0.00    +0.000 N 
ATOM     12  C   UNL     1       1.158   8.294  20.048  0.00  0.00    +0.000 A 
ATOM     13  O   UNL     1       0.590   7.833  21.039  0.00  0.00    +0.000 OA
ATOM     14  C   UNL     1       2.081   7.474  19.282  0.00  0.00    +0.000 A 
ATOM     15  C   UNL     1       4.046   4.366  18.362  0.00  0.00    +0.000 C 
ATOM     16  S   UNL     1       3.876   3.306  19.834  0.00  0.00    +0.000 S 
ENDROOT
BRANCH  11  17
ATOM     17  C   UNL     1       0.134  10.458  20.321  0.00  0.00    +0.000 A 
ATOM     18  C   UNL     1       0.417  10.829  21.642  0.00  0.00    +0.000 A 
ATOM     19  C   UNL     1      -0.431  11.703  22.325  0.00  0.00    +0.000 A 
ATOM     20  C   UNL     1      -1.576  12.194  21.699  0.00  0.00    +0.000 A 
ATOM     21  C   UNL     1      -1.891  11.791  20.403  0.00  0.00    +0.000 A 
ATOM     22  C   UNL     1      -1.045  10.918  19.719  0.00  0.00    +0.000 A 
ENDBRANCH  11  17
BRANCH  10  23
ATOM     23  S   UNL     1       1.416  11.691  17.851  0.00  0.00    +0.000 S 
BRANCH  23  24
ATOM     24  C   UNL     1       2.591  12.724  18.754  0.00  0.00    +0.000 C 
BRANCH  24  25
ATOM     25  C   UNL     1       1.904  13.585  19.799  0.00  0.00    +0.000 C 
ATOM     26  O   UNL     1       2.368  13.750  20.924  0.00  0.00    +0.000 OA
ATOM     27  N   UNL     1       0.759  14.207  19.364  0.00  0.00    +0.000 N 
ATOM     28  H   UNL     1       0.426  14.019  18.424  0.00  0.00    +0.000 HD
BRANCH  27  29
ATOM     29  C   UNL     1      -0.018  15.093  20.193  0.00  0.00    +0.000 C 
BRANCH  29  30
ATOM     30  C   UNL     1      -0.210  16.400  19.516  0.00  0.00    +0.000 A 
ATOM     31  C   UNL     1      -0.417  16.757  18.199  0.00  0.00    +0.000 A 
ATOM     32  C   UNL     1      -0.627  18.155  18.189  0.00  0.00    +0.000 A 
ATOM     33  C   UNL     1      -0.514  18.567  19.497  0.00  0.00    +0.000 A 
ATOM     34  O   UNL     1      -0.251  17.510  20.310  0.00  0.00    +0.000 OA
ENDBRANCH  29  30
ENDBRANCH  27  29
ENDBRANCH  24  25
ENDBRANCH  23  24
ENDBRANCH  10  23
TORSDOF 6
ENDMDL
