MODEL 1
REMARK VINA RESULT:      -8.1      0.000      0.000
REMARK  Name = 
REMARK  3 active torsions:
REMARK  status: ('A' for Active; 'I' for Inactive)
REMARK    1  A    between atoms: C_2  and  C_3
REMARK    2  A    between atoms: C_2  and  C_4
REMARK    3  A    between atoms: C_12  and  C_13
REMARK                            x       y       z     vdW  Elec       q    Type
REMARK                         _______ _______ _______ _____ _____    ______ ____
ROOT
ATOM      1  C   UNL     1       6.665   5.501  17.143  0.00  0.00    +0.000 C 
ATOM      2  C   UNL     1       5.702   6.133  16.127  0.00  0.00    +0.000 C 
ATOM      3  C   UNL     1       4.679   7.007  16.847  0.00  0.00    +0.000 C 
ATOM      4  C   UNL     1       4.008   6.275  17.979  0.00  0.00    +0.000 A 
ATOM      5  C   UNL     1       2.854   6.820  18.532  0.00  0.00    +0.000 A 
ATOM      6  N   UNL     1       2.127   6.225  19.495  0.00  0.00    +0.000 NA
ATOM      7  C   UNL     1       2.554   5.013  19.916  0.00  0.00    +0.000 A 
ATOM      8  C   UNL     1       1.679   4.378  20.884  0.00  0.00    +0.000 A 
ATOM      9  C   UNL     1       1.975   3.150  21.312  0.00  0.00    +0.000 A 
ATOM     10  C   UNL     1       1.130   2.379  22.273  0.00  0.00    +0.000 C 
ATOM     11  O   UNL     1       3.127   2.470  20.865  0.00  0.00    +0.000 OA
ATOM     12  C   UNL     1       4.008   3.015  19.968  0.00  0.00    +0.000 A 
ATOM     13  O   UNL     1       4.980   2.375  19.585  0.00  0.00    +0.000 OA
ATOM     14  C   UNL     1       3.711   4.383  19.462  0.00  0.00    +0.000 A 
ATOM     15  C   UNL     1       4.500   5.062  18.505  0.00  0.00    +0.000 A 
ATOM     16  C   UNL     1       5.826   4.512  18.003  0.00  0.00    +0.000 C 
ENDROOT
BRANCH   1  18
ATOM     17  C   UNL     1       7.731   7.808  17.442  0.00  0.00    +0.000 C 
ATOM     18  C   UNL     1       7.487   6.565  17.890  0.00  0.00    +0.000 C 
ATOM     19  C   UNL     1       8.047   6.145  19.230  0.00  0.00    +0.000 C 
ENDBRANCH   1  18
TORSDOF 1
ENDMDL
MODEL 2
REMARK VINA RESULT:      -6.7      1.528      1.855
REMARK  Name = 
REMARK  3 active torsions:
REMARK  status: ('A' for Active; 'I' for Inactive)
REMARK    1  A    between atoms: C_2  and  C_3
REMARK    2  A    between atoms: C_2  and  C_4
REMARK    3  A    between atoms: C_12  and  C_13
REMARK                            x       y       z     vdW  Elec       q    Type
REMARK                         _______ _______ _______ _____ _____    ______ ____
ROOT
ATOM      1  C   UNL     1       5.647   4.407  15.440  0.00  0.00    +0.000 C 
ATOM      2  C   UNL     1       4.895   5.674  15.008  0.00  0.00    +0.000 C 
ATOM      3  C   UNL     1       4.757   6.631  16.189  0.00  0.00    +0.000 C 
ATOM      4  C   UNL     1       4.190   5.947  17.405  0.00  0.00    +0.000 A 
ATOM      5  C   UNL     1       3.725   6.734  18.454  0.00  0.00    +0.000 A 
ATOM      6  N   UNL     1       3.133   6.243  19.558  0.00  0.00    +0.000 NA
ATOM      7  C   UNL     1       2.973   4.901  19.615  0.00  0.00    +0.000 A 
ATOM      8  C   UNL     1       2.244   4.438  20.781  0.00  0.00    +0.000 A 
ATOM      9  C   UNL     1       1.974   3.138  20.899  0.00  0.00    +0.000 A 
ATOM     10  C   UNL     1       1.196   2.550  22.030  0.00  0.00    +0.000 C 
ATOM     11  O   UNL     1       2.400   2.205  19.931  0.00  0.00    +0.000 OA
ATOM     12  C   UNL     1       3.109   2.566  18.815  0.00  0.00    +0.000 A 
ATOM     13  O   UNL     1       3.433   1.724  17.986  0.00  0.00    +0.000 OA
ATOM     14  C   UNL     1       3.427   4.010  18.644  0.00  0.00    +0.000 A 
ATOM     15  C   UNL     1       4.114   4.543  17.529  0.00  0.00    +0.000 A 
ATOM     16  C   UNL     1       4.730   3.663  16.453  0.00  0.00    +0.000 C 
ENDROOT
BRANCH   1  18
ATOM     17  C   UNL     1       7.572   4.511  17.123  0.00  0.00    +0.000 C 
ATOM     18  C   UNL     1       7.085   4.719  15.887  0.00  0.00    +0.000 C 
ATOM     19  C   UNL     1       7.993   5.302  14.830  0.00  0.00    +0.000 C 
ENDBRANCH   1  18
TORSDOF 1
ENDMDL
MODEL 3
REMARK VINA RESULT:      -6.6      2.354      3.330
REMARK  Name = 
REMARK  3 active torsions:
REMARK  status: ('A' for Active; 'I' for Inactive)
REMARK    1  A    between atoms: C_2  and  C_3
REMARK    2  A    between atoms: C_2  and  C_4
REMARK    3  A    between atoms: C_12  and  C_13
REMARK                            x       y       z     vdW  Elec       q    Type
REMARK                         _______ _______ _______ _____ _____    ______ ____
ROOT
ATOM      1  C   UNL     1       5.223   4.283  18.026  0.00  0.00    +0.000 C 
ATOM      2  C   UNL     1       4.805   4.601  16.583  0.00  0.00    +0.000 C 
ATOM      3  C   UNL     1       4.706   6.111  16.386  0.00  0.00    +0.000 C 
ATOM      4  C   UNL     1       3.857   6.764  17.445  0.00  0.00    +0.000 A 
ATOM      5  C   UNL     1       3.424   8.069  17.238  0.00  0.00    +0.000 A 
ATOM      6  N   UNL     1       2.605   8.732  18.075  0.00  0.00    +0.000 NA
ATOM      7  C   UNL     1       2.172   8.055  19.164  0.00  0.00    +0.000 A 
ATOM      8  C   UNL     1       1.218   8.785  19.977  0.00  0.00    +0.000 A 
ATOM      9  C   UNL     1       0.679   8.181  21.036  0.00  0.00    +0.000 A 
ATOM     10  C   UNL     1      -0.344   8.813  21.922  0.00  0.00    +0.000 C 
ATOM     11  O   UNL     1       1.035   6.864  21.396  0.00  0.00    +0.000 OA
ATOM     12  C   UNL     1       1.943   6.121  20.687  0.00  0.00    +0.000 A 
ATOM     13  O   UNL     1       2.198   4.970  21.019  0.00  0.00    +0.000 OA
ATOM     14  C   UNL     1       2.564   6.759  19.493  0.00  0.00    +0.000 A 
ATOM     15  C   UNL     1       3.485   6.110  18.639  0.00  0.00    +0.000 A 
ATOM     16  C   UNL     1       4.050   4.731  18.944  0.00  0.00    +0.000 C 
ENDROOT
BRANCH   1  18
ATOM     17  C   UNL     1       6.935   5.554  19.441  0.00  0.00    +0.000 C 
ATOM     18  C   UNL     1       6.622   4.833  18.351  0.00  0.00    +0.000 C 
ATOM     19  C   UNL     1       7.705   4.518  17.345  0.00  0.00    +0.000 C 
ENDBRANCH   1  18
TORSDOF 1
ENDMDL
MODEL 4
REMARK VINA RESULT:      -6.5      2.640      5.979
REMARK  Name = 
REMARK  3 active torsions:
REMARK  status: ('A' for Active; 'I' for Inactive)
REMARK    1  A    between atoms: C_2  and  C_3
REMARK    2  A    between atoms: C_2  and  C_4
REMARK    3  A    between atoms: C_12  and  C_13
REMARK                            x       y       z     vdW  Elec       q    Type
REMARK                         _______ _______ _______ _____ _____    ______ ____
ROOT
ATOM      1  C   UNL     1       1.537   4.083  18.275  0.00  0.00    +0.000 C 
ATOM      2  C   UNL     1       2.107   2.765  17.731  0.00  0.00    +0.000 C 
ATOM      3  C   UNL     1       3.418   2.429  18.436  0.00  0.00    +0.000 C 
ATOM      4  C   UNL     1       4.381   3.586  18.417  0.00  0.00    +0.000 A 
ATOM      5  C   UNL     1       5.712   3.349  18.743  0.00  0.00    +0.000 A 
ATOM      6  N   UNL     1       6.678   4.285  18.693  0.00  0.00    +0.000 NA
ATOM      7  C   UNL     1       6.309   5.516  18.273  0.00  0.00    +0.000 A 
ATOM      8  C   UNL     1       7.408   6.455  18.146  0.00  0.00    +0.000 A 
ATOM      9  C   UNL     1       7.160   7.677  17.675  0.00  0.00    +0.000 A 
ATOM     10  C   UNL     1       8.214   8.714  17.460  0.00  0.00    +0.000 C 
ATOM     11  O   UNL     1       5.856   8.082  17.322  0.00  0.00    +0.000 OA
ATOM     12  C   UNL     1       4.768   7.257  17.433  0.00  0.00    +0.000 A 
ATOM     13  O   UNL     1       3.658   7.642  17.086  0.00  0.00    +0.000 OA
ATOM     14  C   UNL     1       5.003   5.881  17.951  0.00  0.00    +0.000 A 
ATOM     15  C   UNL     1       3.992   4.902  18.086  0.00  0.00    +0.000 A 
ATOM     16  C   UNL     1       2.522   5.210  17.849  0.00  0.00    +0.000 C 
ENDROOT
BRANCH   1  18
ATOM     17  C   UNL     1       0.681   2.891  20.371  0.00  0.00    +0.000 C 
ATOM     18  C   UNL     1       1.186   3.981  19.769  0.00  0.00    +0.000 C 
ATOM     19  C   UNL     1       1.443   5.221  20.593  0.00  0.00    +0.000 C 
ENDBRANCH   1  18
TORSDOF 1
ENDMDL
MODEL 5
REMARK VINA RESULT:      -6.2      3.595      5.782
REMARK  Name = 
REMARK  3 active torsions:
REMARK  status: ('A' for Active; 'I' for Inactive)
REMARK    1  A    between atoms: C_2  and  C_3
REMARK    2  A    between atoms: C_2  and  C_4
REMARK    3  A    between atoms: C_12  and  C_13
REMARK                            x       y       z     vdW  Elec       q    Type
REMARK                         _______ _______ _______ _____ _____    ______ ____
ROOT
ATOM      1  C   UNL     1       3.492   4.559  18.116  0.00  0.00    +0.000 C 
ATOM      2  C   UNL     1       3.962   4.347  19.563  0.00  0.00    +0.000 C 
ATOM      3  C   UNL     1       2.841   4.701  20.536  0.00  0.00    +0.000 C 
ATOM      4  C   UNL     1       2.260   6.062  20.256  0.00  0.00    +0.000 A 
ATOM      5  C   UNL     1       1.453   6.652  21.223  0.00  0.00    +0.000 A 
ATOM      6  N   UNL     1       0.937   7.891  21.120  0.00  0.00    +0.000 NA
ATOM      7  C   UNL     1       1.259   8.591  20.009  0.00  0.00    +0.000 A 
ATOM      8  C   UNL     1       0.755   9.952  19.997  0.00  0.00    +0.000 A 
ATOM      9  C   UNL     1       1.073  10.749  18.977  0.00  0.00    +0.000 A 
ATOM     10  C   UNL     1       0.650  12.178  18.875  0.00  0.00    +0.000 C 
ATOM     11  O   UNL     1       1.865  10.292  17.902  0.00  0.00    +0.000 OA
ATOM     12  C   UNL     1       2.359   9.016  17.836  0.00  0.00    +0.000 A 
ATOM     13  O   UNL     1       3.068   8.672  16.898  0.00  0.00    +0.000 OA
ATOM     14  C   UNL     1       2.030   8.095  18.959  0.00  0.00    +0.000 A 
ATOM     15  C   UNL     1       2.498   6.764  19.055  0.00  0.00    +0.000 A 
ATOM     16  C   UNL     1       3.272   6.088  17.934  0.00  0.00    +0.000 C 
ENDROOT
BRANCH   1  18
ATOM     17  C   UNL     1       1.088   4.038  17.411  0.00  0.00    +0.000 C 
ATOM     18  C   UNL     1       2.322   3.629  17.752  0.00  0.00    +0.000 C 
ATOM     19  C   UNL     1       2.620   2.148  17.790  0.00  0.00    +0.000 C 
ENDBRANCH   1  18
TORSDOF 1
ENDMDL
MODEL 6
REMARK VINA RESULT:      -6.2      2.756      5.948
REMARK  Name = 
REMARK  3 active torsions:
REMARK  status: ('A' for Active; 'I' for Inactive)
REMARK    1  A    between atoms: C_2  and  C_3
REMARK    2  A    between atoms: C_2  and  C_4
REMARK    3  A    between atoms: C_12  and  C_13
REMARK                            x       y       z     vdW  Elec       q    Type
REMARK                         _______ _______ _______ _____ _____    ______ ____
ROOT
ATOM      1  C   UNL     1       2.494   3.373  17.438  0.00  0.00    +0.000 C 
ATOM      2  C   UNL     1       3.322   2.131  17.800  0.00  0.00    +0.000 C 
ATOM      3  C   UNL     1       4.164   2.407  19.043  0.00  0.00    +0.000 C 
ATOM      4  C   UNL     1       4.960   3.679  18.915  0.00  0.00    +0.000 A 
ATOM      5  C   UNL     1       5.992   3.911  19.818  0.00  0.00    +0.000 A 
ATOM      6  N   UNL     1       6.817   4.973  19.761  0.00  0.00    +0.000 NA
ATOM      7  C   UNL     1       6.623   5.838  18.740  0.00  0.00    +0.000 A 
ATOM      8  C   UNL     1       7.601   6.908  18.675  0.00  0.00    +0.000 A 
ATOM      9  C   UNL     1       7.539   7.777  17.666  0.00  0.00    +0.000 A 
ATOM     10  C   UNL     1       8.512   8.893  17.468  0.00  0.00    +0.000 C 
ATOM     11  O   UNL     1       6.533   7.693  16.679  0.00  0.00    +0.000 OA
ATOM     12  C   UNL     1       5.567   6.722  16.688  0.00  0.00    +0.000 A 
ATOM     13  O   UNL     1       4.731   6.670  15.794  0.00  0.00    +0.000 OA
ATOM     14  C   UNL     1       5.604   5.729  17.797  0.00  0.00    +0.000 A 
ATOM     15  C   UNL     1       4.702   4.647  17.921  0.00  0.00    +0.000 A 
ATOM     16  C   UNL     1       3.502   4.476  17.003  0.00  0.00    +0.000 C 
ENDROOT
BRANCH   1  18
ATOM     17  C   UNL     1       0.560   2.899  19.044  0.00  0.00    +0.000 C 
ATOM     18  C   UNL     1       1.488   3.732  18.544  0.00  0.00    +0.000 C 
ATOM     19  C   UNL     1       1.581   5.139  19.089  0.00  0.00    +0.000 C 
ENDBRANCH   1  18
TORSDOF 1
ENDMDL
MODEL 7
REMARK VINA RESULT:      -5.9      8.168      9.972
REMARK  Name = 
REMARK  3 active torsions:
REMARK  status: ('A' for Active; 'I' for Inactive)
REMARK    1  A    between atoms: C_2  and  C_3
REMARK    2  A    between atoms: C_2  and  C_4
REMARK    3  A    between atoms: C_12  and  C_13
REMARK                            x       y       z     vdW  Elec       q    Type
REMARK                         _______ _______ _______ _____ _____    ______ ____
ROOT
ATOM      1  C   UNL     1       0.527  11.625  19.837  0.00  0.00    +0.000 C 
ATOM      2  C   UNL     1       0.663  10.140  19.469  0.00  0.00    +0.000 C 
ATOM      3  C   UNL     1       0.074   9.887  18.084  0.00  0.00    +0.000 C 
ATOM      4  C   UNL     1      -1.320  10.442  17.953  0.00  0.00    +0.000 A 
ATOM      5  C   UNL     1      -2.099  10.037  16.875  0.00  0.00    +0.000 A 
ATOM      6  N   UNL     1      -3.379  10.407  16.690  0.00  0.00    +0.000 NA
ATOM      7  C   UNL     1      -3.924  11.203  17.638  0.00  0.00    +0.000 A 
ATOM      8  C   UNL     1      -5.332  11.490  17.436  0.00  0.00    +0.000 A 
ATOM      9  C   UNL     1      -5.981  12.211  18.350  0.00  0.00    +0.000 A 
ATOM     10  C   UNL     1      -7.437  12.535  18.274  0.00  0.00    +0.000 C 
ATOM     11  O   UNL     1      -5.324  12.719  19.491  0.00  0.00    +0.000 OA
ATOM     12  C   UNL     1      -3.994  12.505  19.738  0.00  0.00    +0.000 A 
ATOM     13  O   UNL     1      -3.473  12.941  20.757  0.00  0.00    +0.000 OA
ATOM     14  C   UNL     1      -3.234  11.700  18.742  0.00  0.00    +0.000 A 
ATOM     15  C   UNL     1      -1.868  11.360  18.875  0.00  0.00    +0.000 A 
ATOM     16  C   UNL     1      -0.994  11.914  19.989  0.00  0.00    +0.000 C 
ENDROOT
BRANCH   1  18
ATOM     17  C   UNL     1       2.446  12.166  18.234  0.00  0.00    +0.000 C 
ATOM     18  C   UNL     1       1.325  12.526  18.880  0.00  0.00    +0.000 C 
ATOM     19  C   UNL     1       0.775  13.919  18.674  0.00  0.00    +0.000 C 
ENDBRANCH   1  18
TORSDOF 1
ENDMDL
MODEL 8
REMARK VINA RESULT:      -5.8      9.247     10.943
REMARK  Name = 
REMARK  3 active torsions:
REMARK  status: ('A' for Active; 'I' for Inactive)
REMARK    1  A    between atoms: C_2  and  C_3
REMARK    2  A    between atoms: C_2  and  C_4
REMARK    3  A    between atoms: C_12  and  C_13
REMARK                            x       y       z     vdW  Elec       q    Type
REMARK                         _______ _______ _______ _____ _____    ______ ____
ROOT
ATOM      1  C   UNL     1      10.628  12.256  17.671  0.00  0.00    +0.000 C 
ATOM      2  C   UNL     1      11.589  13.343  17.169  0.00  0.00    +0.000 C 
ATOM      3  C   UNL     1      11.567  14.541  18.116  0.00  0.00    +0.000 C 
ATOM      4  C   UNL     1      10.165  15.017  18.389  0.00  0.00    +0.000 A 
ATOM      5  C   UNL     1       9.990  16.265  18.978  0.00  0.00    +0.000 A 
ATOM      6  N   UNL     1       8.789  16.829  19.205  0.00  0.00    +0.000 NA
ATOM      7  C   UNL     1       7.704  16.128  18.805  0.00  0.00    +0.000 A 
ATOM      8  C   UNL     1       6.445  16.825  18.987  0.00  0.00    +0.000 A 
ATOM      9  C   UNL     1       5.321  16.248  18.563  0.00  0.00    +0.000 A 
ATOM     10  C   UNL     1       3.973  16.885  18.657  0.00  0.00    +0.000 C 
ATOM     11  O   UNL     1       5.327  14.970  17.966  0.00  0.00    +0.000 OA
ATOM     12  C   UNL     1       6.474  14.244  17.779  0.00  0.00    +0.000 A 
ATOM     13  O   UNL     1       6.435  13.150  17.230  0.00  0.00    +0.000 OA
ATOM     14  C   UNL     1       7.753  14.856  18.236  0.00  0.00    +0.000 A 
ATOM     15  C   UNL     1       9.021  14.252  18.077  0.00  0.00    +0.000 A 
ATOM     16  C   UNL     1       9.190  12.835  17.550  0.00  0.00    +0.000 C 
ENDROOT
BRANCH   1  18
ATOM     17  C   UNL     1      12.321  11.622  19.482  0.00  0.00    +0.000 C 
ATOM     18  C   UNL     1      11.054  11.704  19.042  0.00  0.00    +0.000 C 
ATOM     19  C   UNL     1       9.934  11.227  19.938  0.00  0.00    +0.000 C 
ENDBRANCH   1  18
TORSDOF 1
ENDMDL
MODEL 9
REMARK VINA RESULT:      -5.7      5.372      7.236
REMARK  Name = 
REMARK  3 active torsions:
REMARK  status: ('A' for Active; 'I' for Inactive)
REMARK    1  A    between atoms: C_2  and  C_3
REMARK    2  A    between atoms: C_2  and  C_4
REMARK    3  A    between atoms: C_12  and  C_13
REMARK                            x       y       z     vdW  Elec       q    Type
REMARK                         _______ _______ _______ _____ _____    ______ ____
ROOT
ATOM      1  C   UNL     1       0.056  12.753  18.864  0.00  0.00    +0.000 C 
ATOM      2  C   UNL     1      -1.277  12.502  19.583  0.00  0.00    +0.000 C 
ATOM      3  C   UNL     1      -1.029  11.830  20.930  0.00  0.00    +0.000 C 
ATOM      4  C   UNL     1      -0.146  10.617  20.802  0.00  0.00    +0.000 A 
ATOM      5  C   UNL     1      -0.072   9.732  21.872  0.00  0.00    +0.000 A 
ATOM      6  N   UNL     1       0.623   8.580  21.850  0.00  0.00    +0.000 NA
ATOM      7  C   UNL     1       1.262   8.279  20.696  0.00  0.00    +0.000 A 
ATOM      8  C   UNL     1       1.914   6.983  20.699  0.00  0.00    +0.000 A 
ATOM      9  C   UNL     1       2.516   6.561  19.586  0.00  0.00    +0.000 A 
ATOM     10  C   UNL     1       3.182   5.231  19.454  0.00  0.00    +0.000 C 
ATOM     11  O   UNL     1       2.552   7.356  18.420  0.00  0.00    +0.000 OA
ATOM     12  C   UNL     1       1.975   8.596  18.350  0.00  0.00    +0.000 A 
ATOM     13  O   UNL     1       2.006   9.238  17.307  0.00  0.00    +0.000 OA
ATOM     14  C   UNL     1       1.289   9.102  19.572  0.00  0.00    +0.000 A 
ATOM     15  C   UNL     1       0.614  10.342  19.644  0.00  0.00    +0.000 A 
ATOM     16  C   UNL     1       0.649  11.358  18.514  0.00  0.00    +0.000 C 
ENDROOT
BRANCH   1  18
ATOM     17  C   UNL     1       2.222  13.474  20.020  0.00  0.00    +0.000 C 
ATOM     18  C   UNL     1       0.955  13.724  19.648  0.00  0.00    +0.000 C 
ATOM     19  C   UNL     1       0.332  15.053  20.011  0.00  0.00    +0.000 C 
ENDBRANCH   1  18
TORSDOF 1
ENDMDL
