MODEL 1
REMARK VINA RESULT:      -8.2      0.000      0.000
REMARK  Name = 
REMARK  3 active torsions:
REMARK  status: ('A' for Active; 'I' for Inactive)
REMARK    1  A    between atoms: C_1  and  C_2
REMARK    2  A    between atoms: C_4  and  C_5
REMARK    3  A    between atoms: C_10  and  C_12
REMARK                            x       y       z     vdW  Elec       q    Type
REMARK                         _______ _______ _______ _____ _____    ______ ____
ROOT
ATOM      1  C   UNL     1       7.343   5.835  16.680  0.00  0.00    +0.000 C 
ATOM      2  C   UNL     1       7.799   4.747  17.676  0.00  0.00    +0.000 C 
ATOM      3  C   UNL     1       6.680   4.217  18.572  0.00  0.00    +0.000 C 
ATOM      4  C   UNL     1       5.932   5.383  19.211  0.00  0.00    +0.000 C 
ATOM      5  N   UNL     1       5.306   6.159  18.145  0.00  0.00    +0.000 N 
ATOM      6  C   UNL     1       3.934   6.409  17.951  0.00  0.00    +0.000 C 
ATOM      7  O   UNL     1       3.542   7.121  17.027  0.00  0.00    +0.000 OA
ATOM      8  C   UNL     1       6.276   6.798  17.246  0.00  0.00    +0.000 C 
ENDROOT
BRANCH   6   9
ATOM      9  C   UNL     1       2.903   5.803  18.854  0.00  0.00    +0.000 A 
ATOM     10  C   UNL     1       2.360   6.556  19.907  0.00  0.00    +0.000 A 
ATOM     11  C   UNL     1       1.318   6.058  20.690  0.00  0.00    +0.000 A 
ATOM     12  C   UNL     1       0.881   4.751  20.507  0.00  0.00    +0.000 A 
ATOM     13  C   UNL     1       1.505   3.942  19.560  0.00  0.00    +0.000 A 
ATOM     14  C   UNL     1       2.495   4.462  18.707  0.00  0.00    +0.000 A 
ATOM     15  O   UNL     1       3.085   3.681  17.741  0.00  0.00    +0.000 OA
ATOM     16  C   UNL     1       2.451   2.412  17.562  0.00  0.00    +0.000 C 
ATOM     17  C   UNL     1       2.047   1.798  18.890  0.00  0.00    +0.000 C 
ATOM     18  O   UNL     1       1.083   2.635  19.534  0.00  0.00    +0.000 OA
ENDBRANCH   6   9
BRANCH   1  22
ATOM     19  C   UNL     1       5.170   3.405  12.926  0.00  0.00    +0.000 C 
ATOM     20  C   UNL     1       6.000   4.232  13.816  0.00  0.00    +0.000 A 
ATOM     21  N   UNL     1       5.856   4.518  15.092  0.00  0.00    +0.000 NA
ATOM     22  C   UNL     1       6.960   5.298  15.336  0.00  0.00    +0.000 A 
ATOM     23  N   UNL     1       7.765   5.473  14.276  0.00  0.00    +0.000 NA
ATOM     24  O   UNL     1       7.121   4.774  13.260  0.00  0.00    +0.000 OA
ENDBRANCH   1  22
TORSDOF 2
ENDMDL
MODEL 2
REMARK VINA RESULT:      -6.7      8.848     11.427
REMARK  Name = 
REMARK  3 active torsions:
REMARK  status: ('A' for Active; 'I' for Inactive)
REMARK    1  A    between atoms: C_1  and  C_2
REMARK    2  A    between atoms: C_4  and  C_5
REMARK    3  A    between atoms: C_10  and  C_12
REMARK                            x       y       z     vdW  Elec       q    Type
REMARK                         _______ _______ _______ _____ _____    ______ ____
ROOT
ATOM      1  C   UNL     1      10.412  11.306  20.006  0.00  0.00    +0.000 C 
ATOM      2  C   UNL     1       9.785  11.859  21.304  0.00  0.00    +0.000 C 
ATOM      3  C   UNL     1       9.378  13.331  21.219  0.00  0.00    +0.000 C 
ATOM      4  C   UNL     1      10.540  14.158  20.678  0.00  0.00    +0.000 C 
ATOM      5  N   UNL     1      10.824  13.706  19.319  0.00  0.00    +0.000 N 
ATOM      6  C   UNL     1      10.763  14.456  18.130  0.00  0.00    +0.000 C 
ATOM      7  O   UNL     1      11.072  13.958  17.048  0.00  0.00    +0.000 OA
ATOM      8  C   UNL     1      11.306  12.320  19.259  0.00  0.00    +0.000 C 
ENDROOT
BRANCH   6   9
ATOM      9  C   UNL     1      10.302  15.882  18.138  0.00  0.00    +0.000 A 
ATOM     10  C   UNL     1      11.239  16.924  18.045  0.00  0.00    +0.000 A 
ATOM     11  C   UNL     1      10.832  18.254  17.935  0.00  0.00    +0.000 A 
ATOM     12  C   UNL     1       9.483  18.574  18.034  0.00  0.00    +0.000 A 
ATOM     13  C   UNL     1       8.551  17.566  18.268  0.00  0.00    +0.000 A 
ATOM     14  C   UNL     1       8.941  16.214  18.292  0.00  0.00    +0.000 A 
ATOM     15  O   UNL     1       8.020  15.210  18.480  0.00  0.00    +0.000 OA
ATOM     16  C   UNL     1       6.664  15.657  18.424  0.00  0.00    +0.000 C 
ATOM     17  C   UNL     1       6.486  16.989  19.129  0.00  0.00    +0.000 C 
ATOM     18  O   UNL     1       7.261  17.992  18.467  0.00  0.00    +0.000 OA
ENDBRANCH   6   9
BRANCH   1  22
ATOM     19  C   UNL     1       7.589   8.027  17.556  0.00  0.00    +0.000 C 
ATOM     20  C   UNL     1       8.283   9.205  18.101  0.00  0.00    +0.000 A 
ATOM     21  N   UNL     1       9.101   9.312  19.126  0.00  0.00    +0.000 NA
ATOM     22  C   UNL     1       9.424  10.647  19.094  0.00  0.00    +0.000 A 
ATOM     23  N   UNL     1       8.857  11.335  18.091  0.00  0.00    +0.000 NA
ATOM     24  O   UNL     1       8.087  10.379  17.436  0.00  0.00    +0.000 OA
ENDBRANCH   1  22
TORSDOF 2
ENDMDL
MODEL 3
REMARK VINA RESULT:      -6.6      2.478      4.160
REMARK  Name = 
REMARK  3 active torsions:
REMARK  status: ('A' for Active; 'I' for Inactive)
REMARK    1  A    between atoms: C_1  and  C_2
REMARK    2  A    between atoms: C_4  and  C_5
REMARK    3  A    between atoms: C_10  and  C_12
REMARK                            x       y       z     vdW  Elec       q    Type
REMARK                         _______ _______ _______ _____ _____    ______ ____
ROOT
ATOM      1  C   UNL     1       6.868   5.731  16.427  0.00  0.00    +0.000 C 
ATOM      2  C   UNL     1       5.687   6.267  15.589  0.00  0.00    +0.000 C 
ATOM      3  C   UNL     1       4.317   6.031  16.225  0.00  0.00    +0.000 C 
ATOM      4  C   UNL     1       4.184   4.569  16.640  0.00  0.00    +0.000 C 
ATOM      5  N   UNL     1       5.190   4.294  17.660  0.00  0.00    +0.000 N 
ATOM      6  C   UNL     1       4.981   3.872  18.987  0.00  0.00    +0.000 C 
ATOM      7  O   UNL     1       5.929   3.634  19.735  0.00  0.00    +0.000 OA
ATOM      8  C   UNL     1       6.567   4.406  17.161  0.00  0.00    +0.000 C 
ENDROOT
BRANCH   6   9
ATOM      9  C   UNL     1       3.597   3.717  19.540  0.00  0.00    +0.000 A 
ATOM     10  C   UNL     1       3.023   2.441  19.650  0.00  0.00    +0.000 A 
ATOM     11  C   UNL     1       1.784   2.256  20.266  0.00  0.00    +0.000 A 
ATOM     12  C   UNL     1       1.047   3.360  20.677  0.00  0.00    +0.000 A 
ATOM     13  C   UNL     1       1.538   4.643  20.447  0.00  0.00    +0.000 A 
ATOM     14  C   UNL     1       2.823   4.836  19.908  0.00  0.00    +0.000 A 
ATOM     15  O   UNL     1       3.333   6.100  19.719  0.00  0.00    +0.000 OA
ATOM     16  C   UNL     1       2.541   7.133  20.310  0.00  0.00    +0.000 C 
ATOM     17  C   UNL     1       1.058   6.878  20.118  0.00  0.00    +0.000 C 
ATOM     18  O   UNL     1       0.687   5.667  20.781  0.00  0.00    +0.000 OA
ENDBRANCH   6   9
BRANCH   1  22
ATOM     19  C   UNL     1       8.768   9.889  18.381  0.00  0.00    +0.000 C 
ATOM     20  C   UNL     1       8.269   8.537  18.080  0.00  0.00    +0.000 A 
ATOM     21  N   UNL     1       7.624   8.084  17.028  0.00  0.00    +0.000 NA
ATOM     22  C   UNL     1       7.472   6.754  17.337  0.00  0.00    +0.000 A 
ATOM     23  N   UNL     1       8.014   6.390  18.511  0.00  0.00    +0.000 NA
ATOM     24  O   UNL     1       8.533   7.579  19.012  0.00  0.00    +0.000 OA
ENDBRANCH   1  22
TORSDOF 2
ENDMDL
MODEL 4
REMARK VINA RESULT:      -6.4      2.449      3.679
REMARK  Name = 
REMARK  3 active torsions:
REMARK  status: ('A' for Active; 'I' for Inactive)
REMARK    1  A    between atoms: C_1  and  C_2
REMARK    2  A    between atoms: C_4  and  C_5
REMARK    3  A    between atoms: C_10  and  C_12
REMARK                            x       y       z     vdW  Elec       q    Type
REMARK                         _______ _______ _______ _____ _____    ______ ____
ROOT
ATOM      1  C   UNL     1       7.208   6.210  16.671  0.00  0.00    +0.000 C 
ATOM      2  C   UNL     1       6.153   6.673  15.643  0.00  0.00    +0.000 C 
ATOM      3  C   UNL     1       4.711   6.565  16.140  0.00  0.00    +0.000 C 
ATOM      4  C   UNL     1       4.465   5.173  16.713  0.00  0.00    +0.000 C 
ATOM      5  N   UNL     1       5.338   4.996  17.869  0.00  0.00    +0.000 N 
ATOM      6  C   UNL     1       4.964   4.754  19.204  0.00  0.00    +0.000 C 
ATOM      7  O   UNL     1       5.811   4.581  20.080  0.00  0.00    +0.000 OA
ATOM      8  C   UNL     1       6.765   4.999  17.522  0.00  0.00    +0.000 C 
ENDROOT
BRANCH   6   9
ATOM      9  C   UNL     1       3.521   4.716  19.608  0.00  0.00    +0.000 A 
ATOM     10  C   UNL     1       2.994   5.726  20.428  0.00  0.00    +0.000 A 
ATOM     11  C   UNL     1       1.631   5.778  20.725  0.00  0.00    +0.000 A 
ATOM     12  C   UNL     1       0.793   4.754  20.303  0.00  0.00    +0.000 A 
ATOM     13  C   UNL     1       1.325   3.670  19.608  0.00  0.00    +0.000 A 
ATOM     14  C   UNL     1       2.679   3.651  19.228  0.00  0.00    +0.000 A 
ATOM     15  O   UNL     1       3.202   2.605  18.504  0.00  0.00    +0.000 OA
ATOM     16  C   UNL     1       2.213   1.695  18.014  0.00  0.00    +0.000 C 
ATOM     17  C   UNL     1       1.133   1.437  19.047  0.00  0.00    +0.000 C 
ATOM     18  O   UNL     1       0.441   2.654  19.337  0.00  0.00    +0.000 OA
ENDBRANCH   6   9
BRANCH   1  22
ATOM     19  C   UNL     1       8.873  10.582  18.354  0.00  0.00    +0.000 C 
ATOM     20  C   UNL     1       8.451   9.188  18.140  0.00  0.00    +0.000 A 
ATOM     21  N   UNL     1       7.831   8.634  17.121  0.00  0.00    +0.000 NA
ATOM     22  C   UNL     1       7.755   7.320  17.513  0.00  0.00    +0.000 A 
ATOM     23  N   UNL     1       8.317   7.060  18.705  0.00  0.00    +0.000 NA
ATOM     24  O   UNL     1       8.769   8.305  19.128  0.00  0.00    +0.000 OA
ENDBRANCH   1  22
TORSDOF 2
ENDMDL
MODEL 5
REMARK VINA RESULT:      -6.2      9.515     10.884
REMARK  Name = 
REMARK  3 active torsions:
REMARK  status: ('A' for Active; 'I' for Inactive)
REMARK    1  A    between atoms: C_1  and  C_2
REMARK    2  A    between atoms: C_4  and  C_5
REMARK    3  A    between atoms: C_10  and  C_12
REMARK                            x       y       z     vdW  Elec       q    Type
REMARK                         _______ _______ _______ _____ _____    ______ ____
ROOT
ATOM      1  C   UNL     1      11.282  13.331  18.394  0.00  0.00    +0.000 C 
ATOM      2  C   UNL     1      10.420  12.227  17.743  0.00  0.00    +0.000 C 
ATOM      3  C   UNL     1       9.193  11.832  18.565  0.00  0.00    +0.000 C 
ATOM      4  C   UNL     1       9.606  11.543  20.005  0.00  0.00    +0.000 C 
ATOM      5  N   UNL     1      10.136  12.775  20.580  0.00  0.00    +0.000 N 
ATOM      6  C   UNL     1       9.649  13.488  21.692  0.00  0.00    +0.000 C 
ATOM      7  O   UNL     1      10.222  14.498  22.100  0.00  0.00    +0.000 OA
ATOM      8  C   UNL     1      11.372  13.232  19.933  0.00  0.00    +0.000 C 
ENDROOT
BRANCH   6   9
ATOM      9  C   UNL     1       8.405  13.052  22.406  0.00  0.00    +0.000 A 
ATOM     10  C   UNL     1       8.449  11.967  23.295  0.00  0.00    +0.000 A 
ATOM     11  C   UNL     1       7.335  11.613  24.059  0.00  0.00    +0.000 A 
ATOM     12  C   UNL     1       6.125  12.265  23.857  0.00  0.00    +0.000 A 
ATOM     13  C   UNL     1       6.026  13.249  22.877  0.00  0.00    +0.000 A 
ATOM     14  C   UNL     1       7.163  13.674  22.165  0.00  0.00    +0.000 A 
ATOM     15  O   UNL     1       7.083  14.677  21.226  0.00  0.00    +0.000 OA
ATOM     16  C   UNL     1       5.825  15.356  21.218  0.00  0.00    +0.000 C 
ATOM     17  C   UNL     1       4.669  14.390  21.396  0.00  0.00    +0.000 C 
ATOM     18  O   UNL     1       4.765  13.752  22.672  0.00  0.00    +0.000 OA
ENDBRANCH   6   9
BRANCH   1  22
ATOM     19  C   UNL     1       9.400  17.915  17.986  0.00  0.00    +0.000 C 
ATOM     20  C   UNL     1      10.090  16.623  17.836  0.00  0.00    +0.000 A 
ATOM     21  N   UNL     1      10.209  15.620  18.677  0.00  0.00    +0.000 NA
ATOM     22  C   UNL     1      10.931  14.714  17.939  0.00  0.00    +0.000 A 
ATOM     23  N   UNL     1      11.229  15.119  16.694  0.00  0.00    +0.000 NA
ATOM     24  O   UNL     1      10.680  16.395  16.628  0.00  0.00    +0.000 OA
ENDBRANCH   1  22
TORSDOF 2
ENDMDL
MODEL 6
REMARK VINA RESULT:      -6.1      8.894     11.476
REMARK  Name = 
REMARK  3 active torsions:
REMARK  status: ('A' for Active; 'I' for Inactive)
REMARK    1  A    between atoms: C_1  and  C_2
REMARK    2  A    between atoms: C_4  and  C_5
REMARK    3  A    between atoms: C_10  and  C_12
REMARK                            x       y       z     vdW  Elec       q    Type
REMARK                         _______ _______ _______ _____ _____    ______ ____
ROOT
ATOM      1  C   UNL     1       1.134  14.184  21.002  0.00  0.00    +0.000 C 
ATOM      2  C   UNL     1       0.908  15.194  19.856  0.00  0.00    +0.000 C 
ATOM      3  C   UNL     1      -0.125  14.741  18.824  0.00  0.00    +0.000 C 
ATOM      4  C   UNL     1       0.194  13.323  18.361  0.00  0.00    +0.000 C 
ATOM      5  N   UNL     1       0.078  12.433  19.512  0.00  0.00    +0.000 N 
ATOM      6  C   UNL     1      -0.796  11.341  19.674  0.00  0.00    +0.000 C 
ATOM      7  O   UNL     1      -0.759  10.643  20.687  0.00  0.00    +0.000 OA
ATOM      8  C   UNL     1       1.072  12.706  20.558  0.00  0.00    +0.000 C 
ENDROOT
BRANCH   6   9
ATOM      9  C   UNL     1      -1.813  11.003  18.627  0.00  0.00    +0.000 A 
ATOM     10  C   UNL     1      -1.443  10.239  17.509  0.00  0.00    +0.000 A 
ATOM     11  C   UNL     1      -2.392   9.812  16.579  0.00  0.00    +0.000 A 
ATOM     12  C   UNL     1      -3.709  10.243  16.689  0.00  0.00    +0.000 A 
ATOM     13  C   UNL     1      -4.065  11.118  17.713  0.00  0.00    +0.000 A 
ATOM     14  C   UNL     1      -3.136  11.482  18.705  0.00  0.00    +0.000 A 
ATOM     15  O   UNL     1      -3.492  12.310  19.745  0.00  0.00    +0.000 OA
ATOM     16  C   UNL     1      -4.896  12.564  19.821  0.00  0.00    +0.000 C 
ATOM     17  C   UNL     1      -5.502  12.772  18.446  0.00  0.00    +0.000 C 
ATOM     18  O   UNL     1      -5.357  11.579  17.670  0.00  0.00    +0.000 OA
ENDBRANCH   6   9
BRANCH   1  22
ATOM     19  C   UNL     1      -2.538  14.302  24.353  0.00  0.00    +0.000 C 
ATOM     20  C   UNL     1      -1.306  14.454  23.561  0.00  0.00    +0.000 A 
ATOM     21  N   UNL     1      -0.924  13.847  22.458  0.00  0.00    +0.000 NA
ATOM     22  C   UNL     1       0.288  14.444  22.210  0.00  0.00    +0.000 A 
ATOM     23  N   UNL     1       0.636  15.390  23.096  0.00  0.00    +0.000 NA
ATOM     24  O   UNL     1      -0.419  15.389  24.003  0.00  0.00    +0.000 OA
ENDBRANCH   1  22
TORSDOF 2
ENDMDL
MODEL 7
REMARK VINA RESULT:      -6.1      7.913     10.846
REMARK  Name = 
REMARK  3 active torsions:
REMARK  status: ('A' for Active; 'I' for Inactive)
REMARK    1  A    between atoms: C_1  and  C_2
REMARK    2  A    between atoms: C_4  and  C_5
REMARK    3  A    between atoms: C_10  and  C_12
REMARK                            x       y       z     vdW  Elec       q    Type
REMARK                         _______ _______ _______ _____ _____    ______ ____
ROOT
ATOM      1  C   UNL     1      -0.443  10.648  20.348  0.00  0.00    +0.000 C 
ATOM      2  C   UNL     1      -1.358  11.008  19.158  0.00  0.00    +0.000 C 
ATOM      3  C   UNL     1      -0.874  12.207  18.342  0.00  0.00    +0.000 C 
ATOM      4  C   UNL     1      -0.563  13.375  19.274  0.00  0.00    +0.000 C 
ATOM      5  N   UNL     1       0.532  12.975  20.152  0.00  0.00    +0.000 N 
ATOM      6  C   UNL     1       1.805  13.566  20.269  0.00  0.00    +0.000 C 
ATOM      7  O   UNL     1       2.626  13.151  21.087  0.00  0.00    +0.000 OA
ATOM      8  C   UNL     1       0.178  11.873  21.056  0.00  0.00    +0.000 C 
ENDROOT
BRANCH   6   9
ATOM      9  C   UNL     1       2.210  14.709  19.388  0.00  0.00    +0.000 A 
ATOM     10  C   UNL     1       3.062  14.486  18.295  0.00  0.00    +0.000 A 
ATOM     11  C   UNL     1       3.363  15.508  17.393  0.00  0.00    +0.000 A 
ATOM     12  C   UNL     1       2.911  16.799  17.638  0.00  0.00    +0.000 A 
ATOM     13  C   UNL     1       2.183  17.068  18.794  0.00  0.00    +0.000 A 
ATOM     14  C   UNL     1       1.799  16.029  19.662  0.00  0.00    +0.000 A 
ATOM     15  O   UNL     1       1.042  16.280  20.783  0.00  0.00    +0.000 OA
ATOM     16  C   UNL     1       0.527  17.612  20.841  0.00  0.00    +0.000 C 
ATOM     17  C   UNL     1       1.554  18.628  20.377  0.00  0.00    +0.000 C 
ATOM     18  O   UNL     1       1.882  18.390  19.006  0.00  0.00    +0.000 OA
ENDBRANCH   6   9
BRANCH   1  22
ATOM     19  C   UNL     1       2.760   7.619  18.049  0.00  0.00    +0.000 C 
ATOM     20  C   UNL     1       1.899   8.362  18.983  0.00  0.00    +0.000 A 
ATOM     21  N   UNL     1       1.151   9.426  18.788  0.00  0.00    +0.000 NA
ATOM     22  C   UNL     1       0.583   9.606  20.025  0.00  0.00    +0.000 A 
ATOM     23  N   UNL     1       0.937   8.690  20.940  0.00  0.00    +0.000 NA
ATOM     24  O   UNL     1       1.823   7.868  20.251  0.00  0.00    +0.000 OA
ENDBRANCH   1  22
TORSDOF 2
ENDMDL
MODEL 8
REMARK VINA RESULT:      -6.0      1.498      2.790
REMARK  Name = 
REMARK  3 active torsions:
REMARK  status: ('A' for Active; 'I' for Inactive)
REMARK    1  A    between atoms: C_1  and  C_2
REMARK    2  A    between atoms: C_4  and  C_5
REMARK    3  A    between atoms: C_10  and  C_12
REMARK                            x       y       z     vdW  Elec       q    Type
REMARK                         _______ _______ _______ _____ _____    ______ ____
ROOT
ATOM      1  C   UNL     1       7.345   5.705  16.702  0.00  0.00    +0.000 C 
ATOM      2  C   UNL     1       7.818   4.781  17.845  0.00  0.00    +0.000 C 
ATOM      3  C   UNL     1       6.698   4.335  18.786  0.00  0.00    +0.000 C 
ATOM      4  C   UNL     1       5.896   5.548  19.247  0.00  0.00    +0.000 C 
ATOM      5  N   UNL     1       5.266   6.147  18.074  0.00  0.00    +0.000 N 
ATOM      6  C   UNL     1       3.891   6.316  17.826  0.00  0.00    +0.000 C 
ATOM      7  O   UNL     1       3.494   6.880  16.807  0.00  0.00    +0.000 OA
ATOM      8  C   UNL     1       6.232   6.694  17.113  0.00  0.00    +0.000 C 
ENDROOT
BRANCH   6   9
ATOM      9  C   UNL     1       2.862   5.799  18.786  0.00  0.00    +0.000 A 
ATOM     10  C   UNL     1       2.529   4.435  18.792  0.00  0.00    +0.000 A 
ATOM     11  C   UNL     1       1.661   3.907  19.749  0.00  0.00    +0.000 A 
ATOM     12  C   UNL     1       1.021   4.756  20.643  0.00  0.00    +0.000 A 
ATOM     13  C   UNL     1       1.231   6.131  20.560  0.00  0.00    +0.000 A 
ATOM     14  C   UNL     1       2.170   6.663  19.658  0.00  0.00    +0.000 A 
ATOM     15  O   UNL     1       2.415   8.016  19.600  0.00  0.00    +0.000 OA
ATOM     16  C   UNL     1       1.804   8.756  20.660  0.00  0.00    +0.000 C 
ATOM     17  C   UNL     1       0.405   8.251  20.958  0.00  0.00    +0.000 C 
ATOM     18  O   UNL     1       0.466   6.895  21.406  0.00  0.00    +0.000 OA
ENDBRANCH   6   9
BRANCH   1  22
ATOM     19  C   UNL     1       6.979   4.227  11.969  0.00  0.00    +0.000 C 
ATOM     20  C   UNL     1       6.898   4.427  13.425  0.00  0.00    +0.000 A 
ATOM     21  N   UNL     1       7.559   5.250  14.208  0.00  0.00    +0.000 NA
ATOM     22  C   UNL     1       7.010   4.976  15.438  0.00  0.00    +0.000 A 
ATOM     23  N   UNL     1       6.041   4.047  15.421  0.00  0.00    +0.000 NA
ATOM     24  O   UNL     1       5.974   3.672  14.084  0.00  0.00    +0.000 OA
ENDBRANCH   1  22
TORSDOF 2
ENDMDL
MODEL 9
REMARK VINA RESULT:      -6.0      1.724      1.898
REMARK  Name = 
REMARK  3 active torsions:
REMARK  status: ('A' for Active; 'I' for Inactive)
REMARK    1  A    between atoms: C_1  and  C_2
REMARK    2  A    between atoms: C_4  and  C_5
REMARK    3  A    between atoms: C_10  and  C_12
REMARK                            x       y       z     vdW  Elec       q    Type
REMARK                         _______ _______ _______ _____ _____    ______ ____
ROOT
ATOM      1  C   UNL     1       6.491   6.291  16.233  0.00  0.00    +0.000 C 
ATOM      2  C   UNL     1       7.553   6.017  17.321  0.00  0.00    +0.000 C 
ATOM      3  C   UNL     1       6.996   5.345  18.577  0.00  0.00    +0.000 C 
ATOM      4  C   UNL     1       5.770   6.107  19.070  0.00  0.00    +0.000 C 
ATOM      5  N   UNL     1       4.740   6.024  18.039  0.00  0.00    +0.000 N 
ATOM      6  C   UNL     1       3.456   5.457  18.146  0.00  0.00    +0.000 C 
ATOM      7  O   UNL     1       2.665   5.493  17.204  0.00  0.00    +0.000 OA
ATOM      8  C   UNL     1       5.112   6.704  16.792  0.00  0.00    +0.000 C 
ENDROOT
BRANCH   6   9
ATOM      9  C   UNL     1       3.015   4.773  19.404  0.00  0.00    +0.000 A 
ATOM     10  C   UNL     1       2.099   5.401  20.262  0.00  0.00    +0.000 A 
ATOM     11  C   UNL     1       1.584   4.742  21.379  0.00  0.00    +0.000 A 
ATOM     12  C   UNL     1       2.068   3.485  21.721  0.00  0.00    +0.000 A 
ATOM     13  C   UNL     1       3.080   2.905  20.961  0.00  0.00    +0.000 A 
ATOM     14  C   UNL     1       3.542   3.522  19.785  0.00  0.00    +0.000 A 
ATOM     15  O   UNL     1       4.511   2.935  19.005  0.00  0.00    +0.000 OA
ATOM     16  C   UNL     1       4.818   1.591  19.385  0.00  0.00    +0.000 C 
ATOM     17  C   UNL     1       4.861   1.434  20.893  0.00  0.00    +0.000 C 
ATOM     18  O   UNL     1       3.573   1.718  21.445  0.00  0.00    +0.000 OA
ENDBRANCH   6   9
BRANCH   1  22
ATOM     19  C   UNL     1       6.860   3.505  12.131  0.00  0.00    +0.000 C 
ATOM     20  C   UNL     1       6.575   4.097  13.448  0.00  0.00    +0.000 A 
ATOM     21  N   UNL     1       7.063   5.177  14.019  0.00  0.00    +0.000 NA
ATOM     22  C   UNL     1       6.381   5.202  15.212  0.00  0.00    +0.000 A 
ATOM     23  N   UNL     1       5.497   4.204  15.369  0.00  0.00    +0.000 NA
ATOM     24  O   UNL     1       5.633   3.462  14.201  0.00  0.00    +0.000 OA
ENDBRANCH   1  22
TORSDOF 2
ENDMDL
