MODEL 1
REMARK VINA RESULT:      -7.7      0.000      0.000
REMARK  Name = 
REMARK  7 active torsions:
REMARK  status: ('A' for Active; 'I' for Inactive)
REMARK    1  A    between atoms: C_1  and  C_2
REMARK    2  A    between atoms: C_4  and  C_5
REMARK    3  A    between atoms: C_5  and  C_6
REMARK    4  A    between atoms: C_6  and  O_8
REMARK    5  A    between atoms: C_9  and  N_10
REMARK    6  A    between atoms: C_11  and  C_12
REMARK    7  A    between atoms: C_12  and  C_14
REMARK                            x       y       z     vdW  Elec       q    Type
REMARK                         _______ _______ _______ _____ _____    ______ ____
ROOT
ATOM      1  C   UNL     1       2.717   8.163  17.821  0.00  0.00    +0.000 C 
ATOM      2  C   UNL     1       3.173   6.741  17.959  0.00  0.00    +0.000 A 
ATOM      3  C   UNL     1       2.397   5.784  18.617  0.00  0.00    +0.000 A 
ATOM      4  C   UNL     1       2.843   4.452  18.814  0.00  0.00    +0.000 A 
ATOM      5  C   UNL     1       4.138   4.101  18.377  0.00  0.00    +0.000 A 
ATOM      6  C   UNL     1       4.913   5.069  17.683  0.00  0.00    +0.000 A 
ATOM      7  C   UNL     1       4.411   6.359  17.449  0.00  0.00    +0.000 A 
ENDROOT
BRANCH   5   8
ATOM      8  N   UNL     1       4.761   2.915  18.841  0.00  0.00    +0.000 N 
ATOM      9  H   UNL     1       4.380   2.076  18.394  0.00  0.00    +0.000 HD
ATOM     10  H   UNL     1       5.766   2.934  18.628  0.00  0.00    +0.000 HD
ENDBRANCH   5   8
BRANCH   6  11
ATOM     11  C   UNL     1       6.253   4.699  17.126  0.00  0.00    +0.000 C 
ATOM     12  O   UNL     1       7.190   4.460  17.887  0.00  0.00    +0.000 OA
BRANCH  11  13
ATOM     13  C   UNL     1       6.491   4.592  15.664  0.00  0.00    +0.000 A 
ATOM     14  C   UNL     1       5.658   3.758  14.900  0.00  0.00    +0.000 A 
ATOM     15  C   UNL     1       5.860   3.647  13.524  0.00  0.00    +0.000 A 
ATOM     16  C   UNL     1       6.889   4.363  12.922  0.00  0.00    +0.000 A 
ATOM     17  F   UNL     1       7.078   4.262  11.600  0.00  0.00    +0.000 F 
ATOM     18  C   UNL     1       7.730   5.180  13.671  0.00  0.00    +0.000 A 
ATOM     19  C   UNL     1       7.541   5.282  15.047  0.00  0.00    +0.000 A 
ENDBRANCH  11  13
ENDBRANCH   6  11
BRANCH   4  20
ATOM     20  C   UNL     1       1.890   3.557  19.592  0.00  0.00    +0.000 C 
BRANCH  20  21
ATOM     21  C   UNL     1       1.253   2.353  18.919  0.00  0.00    +0.000 C 
ATOM     22  O   UNL     1       0.123   2.265  18.478  0.00  0.00    +0.000 OA
BRANCH  21  23
ATOM     23  O   UNL     1       2.127   1.313  18.824  0.00  0.00    +0.000 OA
ATOM     24  H   UNL     1       2.995   1.471  19.243  0.00  0.00    +0.000 HD
ENDBRANCH  21  23
ENDBRANCH  20  21
ENDBRANCH   4  20
TORSDOF 6
ENDMDL
MODEL 2
REMARK VINA RESULT:      -7.6      1.170      1.389
REMARK  Name = 
REMARK  7 active torsions:
REMARK  status: ('A' for Active; 'I' for Inactive)
REMARK    1  A    between atoms: C_1  and  C_2
REMARK    2  A    between atoms: C_4  and  C_5
REMARK    3  A    between atoms: C_5  and  C_6
REMARK    4  A    between atoms: C_6  and  O_8
REMARK    5  A    between atoms: C_9  and  N_10
REMARK    6  A    between atoms: C_11  and  C_12
REMARK    7  A    between atoms: C_12  and  C_14
REMARK                            x       y       z     vdW  Elec       q    Type
REMARK                         _______ _______ _______ _____ _____    ______ ____
ROOT
ATOM      1  C   UNL     1       2.365   7.701  18.080  0.00  0.00    +0.000 C 
ATOM      2  C   UNL     1       2.928   6.313  18.174  0.00  0.00    +0.000 A 
ATOM      3  C   UNL     1       2.220   5.277  18.787  0.00  0.00    +0.000 A 
ATOM      4  C   UNL     1       2.764   3.976  18.943  0.00  0.00    +0.000 A 
ATOM      5  C   UNL     1       4.087   3.741  18.512  0.00  0.00    +0.000 A 
ATOM      6  C   UNL     1       4.794   4.790  17.865  0.00  0.00    +0.000 A 
ATOM      7  C   UNL     1       4.197   6.046  17.669  0.00  0.00    +0.000 A 
ENDROOT
BRANCH   5   8
ATOM      8  N   UNL     1       4.794   2.590  18.943  0.00  0.00    +0.000 N 
ATOM      9  H   UNL     1       5.764   2.585  18.617  0.00  0.00    +0.000 HD
ATOM     10  H   UNL     1       4.826   2.555  19.969  0.00  0.00    +0.000 HD
ENDBRANCH   5   8
BRANCH   6  11
ATOM     11  C   UNL     1       6.165   4.544  17.315  0.00  0.00    +0.000 C 
ATOM     12  O   UNL     1       7.110   4.362  18.080  0.00  0.00    +0.000 OA
BRANCH  11  13
ATOM     13  C   UNL     1       6.425   4.493  15.854  0.00  0.00    +0.000 A 
ATOM     14  C   UNL     1       5.610   3.683  15.046  0.00  0.00    +0.000 A 
ATOM     15  C   UNL     1       5.833   3.625  13.670  0.00  0.00    +0.000 A 
ATOM     16  C   UNL     1       6.864   4.371  13.111  0.00  0.00    +0.000 A 
ATOM     17  F   UNL     1       7.074   4.321  11.789  0.00  0.00    +0.000 F 
ATOM     18  C   UNL     1       7.688   5.166  13.902  0.00  0.00    +0.000 A 
ATOM     19  C   UNL     1       7.478   5.215  15.279  0.00  0.00    +0.000 A 
ENDBRANCH  11  13
ENDBRANCH   6  11
BRANCH   4  20
ATOM     20  C   UNL     1       1.873   2.983  19.674  0.00  0.00    +0.000 C 
BRANCH  20  21
ATOM     21  C   UNL     1       2.106   2.688  21.145  0.00  0.00    +0.000 C 
ATOM     22  O   UNL     1       3.172   2.503  21.703  0.00  0.00    +0.000 OA
BRANCH  21  23
ATOM     23  O   UNL     1       0.937   2.670  21.844  0.00  0.00    +0.000 OA
ATOM     24  H   UNL     1       0.973   3.121  22.710  0.00  0.00    +0.000 HD
ENDBRANCH  21  23
ENDBRANCH  20  21
ENDBRANCH   4  20
TORSDOF 6
ENDMDL
MODEL 3
REMARK VINA RESULT:      -7.5      0.928      1.585
REMARK  Name = 
REMARK  7 active torsions:
REMARK  status: ('A' for Active; 'I' for Inactive)
REMARK    1  A    between atoms: C_1  and  C_2
REMARK    2  A    between atoms: C_4  and  C_5
REMARK    3  A    between atoms: C_5  and  C_6
REMARK    4  A    between atoms: C_6  and  O_8
REMARK    5  A    between atoms: C_9  and  N_10
REMARK    6  A    between atoms: C_11  and  C_12
REMARK    7  A    between atoms: C_12  and  C_14
REMARK                            x       y       z     vdW  Elec       q    Type
REMARK                         _______ _______ _______ _____ _____    ______ ____
ROOT
ATOM      1  C   UNL     1       2.690   8.136  17.857  0.00  0.00    +0.000 C 
ATOM      2  C   UNL     1       3.123   6.701  17.822  0.00  0.00    +0.000 A 
ATOM      3  C   UNL     1       2.311   5.679  18.319  0.00  0.00    +0.000 A 
ATOM      4  C   UNL     1       2.734   4.325  18.355  0.00  0.00    +0.000 A 
ATOM      5  C   UNL     1       4.040   4.013  17.921  0.00  0.00    +0.000 A 
ATOM      6  C   UNL     1       4.852   5.051  17.390  0.00  0.00    +0.000 A 
ATOM      7  C   UNL     1       4.374   6.369  17.310  0.00  0.00    +0.000 A 
ENDROOT
BRANCH   5   8
ATOM      8  N   UNL     1       4.631   2.766  18.247  0.00  0.00    +0.000 N 
ATOM      9  H   UNL     1       4.571   2.557  19.247  0.00  0.00    +0.000 HD
ATOM     10  H   UNL     1       4.147   2.004  17.756  0.00  0.00    +0.000 HD
ENDBRANCH   5   8
BRANCH   6  11
ATOM     11  C   UNL     1       6.208   4.735  16.837  0.00  0.00    +0.000 C 
ATOM     12  O   UNL     1       7.161   4.581  17.599  0.00  0.00    +0.000 OA
BRANCH  11  13
ATOM     13  C   UNL     1       6.442   4.581  15.379  0.00  0.00    +0.000 A 
ATOM     14  C   UNL     1       7.534   5.241  14.792  0.00  0.00    +0.000 A 
ATOM     15  C   UNL     1       7.776   5.105  13.425  0.00  0.00    +0.000 A 
ATOM     16  C   UNL     1       6.929   4.316  12.654  0.00  0.00    +0.000 A 
ATOM     17  F   UNL     1       7.166   4.179  11.343  0.00  0.00    +0.000 F 
ATOM     18  C   UNL     1       5.835   3.669  13.221  0.00  0.00    +0.000 A 
ATOM     19  C   UNL     1       5.582   3.814  14.583  0.00  0.00    +0.000 A 
ENDBRANCH  11  13
ENDBRANCH   6  11
BRANCH   4  20
ATOM     20  C   UNL     1       1.741   3.352  18.972  0.00  0.00    +0.000 C 
BRANCH  20  21
ATOM     21  C   UNL     1       1.898   2.917  20.419  0.00  0.00    +0.000 C 
ATOM     22  O   UNL     1       2.928   2.621  20.994  0.00  0.00    +0.000 OA
BRANCH  21  23
ATOM     23  O   UNL     1       0.703   2.908  21.071  0.00  0.00    +0.000 OA
ATOM     24  H   UNL     1       0.489   3.738  21.540  0.00  0.00    +0.000 HD
ENDBRANCH  21  23
ENDBRANCH  20  21
ENDBRANCH   4  20
TORSDOF 6
ENDMDL
MODEL 4
REMARK VINA RESULT:      -7.5      0.857      1.095
REMARK  Name = 
REMARK  7 active torsions:
REMARK  status: ('A' for Active; 'I' for Inactive)
REMARK    1  A    between atoms: C_1  and  C_2
REMARK    2  A    between atoms: C_4  and  C_5
REMARK    3  A    between atoms: C_5  and  C_6
REMARK    4  A    between atoms: C_6  and  O_8
REMARK    5  A    between atoms: C_9  and  N_10
REMARK    6  A    between atoms: C_11  and  C_12
REMARK    7  A    between atoms: C_12  and  C_14
REMARK                            x       y       z     vdW  Elec       q    Type
REMARK                         _______ _______ _______ _____ _____    ______ ____
ROOT
ATOM      1  C   UNL     1       2.858   8.224  17.866  0.00  0.00    +0.000 C 
ATOM      2  C   UNL     1       3.167   6.769  17.673  0.00  0.00    +0.000 A 
ATOM      3  C   UNL     1       2.226   5.777  17.959  0.00  0.00    +0.000 A 
ATOM      4  C   UNL     1       2.524   4.394  17.845  0.00  0.00    +0.000 A 
ATOM      5  C   UNL     1       3.833   4.013  17.484  0.00  0.00    +0.000 A 
ATOM      6  C   UNL     1       4.779   5.025  17.167  0.00  0.00    +0.000 A 
ATOM      7  C   UNL     1       4.427   6.382  17.226  0.00  0.00    +0.000 A 
ENDROOT
BRANCH   5   8
ATOM      8  N   UNL     1       4.280   2.682  17.685  0.00  0.00    +0.000 N 
ATOM      9  H   UNL     1       5.123   2.639  18.264  0.00  0.00    +0.000 HD
ATOM     10  H   UNL     1       3.559   2.134  18.170  0.00  0.00    +0.000 HD
ENDBRANCH   5   8
BRANCH   6  11
ATOM     11  C   UNL     1       6.149   4.650  16.690  0.00  0.00    +0.000 C 
ATOM     12  O   UNL     1       7.031   4.382  17.505  0.00  0.00    +0.000 OA
BRANCH  11  13
ATOM     13  C   UNL     1       6.480   4.570  15.245  0.00  0.00    +0.000 A 
ATOM     14  C   UNL     1       5.741   3.702  14.425  0.00  0.00    +0.000 A 
ATOM     15  C   UNL     1       6.032   3.616  13.063  0.00  0.00    +0.000 A 
ATOM     16  C   UNL     1       7.056   4.391  12.531  0.00  0.00    +0.000 A 
ATOM     17  F   UNL     1       7.331   4.314  11.222  0.00  0.00    +0.000 F 
ATOM     18  C   UNL     1       7.806   5.243  13.336  0.00  0.00    +0.000 A 
ATOM     19  C   UNL     1       7.529   5.321  14.699  0.00  0.00    +0.000 A 
ENDBRANCH  11  13
ENDBRANCH   6  11
BRANCH   4  20
ATOM     20  C   UNL     1       1.396   3.453  18.241  0.00  0.00    +0.000 C 
BRANCH  20  21
ATOM     21  C   UNL     1       1.379   2.821  19.622  0.00  0.00    +0.000 C 
ATOM     22  O   UNL     1       2.134   1.972  20.056  0.00  0.00    +0.000 OA
BRANCH  21  23
ATOM     23  O   UNL     1       0.389   3.341  20.398  0.00  0.00    +0.000 OA
ATOM     24  H   UNL     1       0.515   4.278  20.646  0.00  0.00    +0.000 HD
ENDBRANCH  21  23
ENDBRANCH  20  21
ENDBRANCH   4  20
TORSDOF 6
ENDMDL
MODEL 5
REMARK VINA RESULT:      -7.5      1.421      1.912
REMARK  Name = 
REMARK  7 active torsions:
REMARK  status: ('A' for Active; 'I' for Inactive)
REMARK    1  A    between atoms: C_1  and  C_2
REMARK    2  A    between atoms: C_4  and  C_5
REMARK    3  A    between atoms: C_5  and  C_6
REMARK    4  A    between atoms: C_6  and  O_8
REMARK    5  A    between atoms: C_9  and  N_10
REMARK    6  A    between atoms: C_11  and  C_12
REMARK    7  A    between atoms: C_12  and  C_14
REMARK                            x       y       z     vdW  Elec       q    Type
REMARK                         _______ _______ _______ _____ _____    ______ ____
ROOT
ATOM      1  C   UNL     1       2.365   8.096  17.892  0.00  0.00    +0.000 C 
ATOM      2  C   UNL     1       3.309   6.930  17.913  0.00  0.00    +0.000 A 
ATOM      3  C   UNL     1       3.136   5.865  18.800  0.00  0.00    +0.000 A 
ATOM      4  C   UNL     1       4.056   4.787  18.878  0.00  0.00    +0.000 A 
ATOM      5  C   UNL     1       5.212   4.825  18.069  0.00  0.00    +0.000 A 
ATOM      6  C   UNL     1       5.369   5.896  17.148  0.00  0.00    +0.000 A 
ATOM      7  C   UNL     1       4.403   6.910  17.053  0.00  0.00    +0.000 A 
ENDROOT
BRANCH   5   8
ATOM      8  N   UNL     1       6.314   3.976  18.343  0.00  0.00    +0.000 N 
ATOM      9  H   UNL     1       7.067   4.084  17.658  0.00  0.00    +0.000 HD
ATOM     10  H   UNL     1       6.715   4.199  19.262  0.00  0.00    +0.000 HD
ENDBRANCH   5   8
BRANCH   6  11
ATOM     11  C   UNL     1       6.538   5.915  16.212  0.00  0.00    +0.000 C 
ATOM     12  O   UNL     1       7.548   6.554  16.503  0.00  0.00    +0.000 OA
BRANCH  11  13
ATOM     13  C   UNL     1       6.527   5.163  14.932  0.00  0.00    +0.000 A 
ATOM     14  C   UNL     1       7.560   5.383  14.005  0.00  0.00    +0.000 A 
ATOM     15  C   UNL     1       7.573   4.682  12.799  0.00  0.00    +0.000 A 
ATOM     16  C   UNL     1       6.558   3.772  12.524  0.00  0.00    +0.000 A 
ATOM     17  F   UNL     1       6.574   3.094  11.369  0.00  0.00    +0.000 F 
ATOM     18  C   UNL     1       5.522   3.556  13.427  0.00  0.00    +0.000 A 
ATOM     19  C   UNL     1       5.497   4.264  14.626  0.00  0.00    +0.000 A 
ENDBRANCH  11  13
ENDBRANCH   6  11
BRANCH   4  20
ATOM     20  C   UNL     1       3.737   3.738  19.932  0.00  0.00    +0.000 C 
BRANCH  20  21
ATOM     21  C   UNL     1       3.872   2.261  19.604  0.00  0.00    +0.000 C 
ATOM     22  O   UNL     1       3.101   1.573  18.963  0.00  0.00    +0.000 OA
BRANCH  21  23
ATOM     23  O   UNL     1       5.026   1.740  20.106  0.00  0.00    +0.000 OA
ATOM     24  H   UNL     1       4.901   0.990  20.719  0.00  0.00    +0.000 HD
ENDBRANCH  21  23
ENDBRANCH  20  21
ENDBRANCH   4  20
TORSDOF 6
ENDMDL
MODEL 6
REMARK VINA RESULT:      -7.4      1.268      1.408
REMARK  Name = 
REMARK  7 active torsions:
REMARK  status: ('A' for Active; 'I' for Inactive)
REMARK    1  A    between atoms: C_1  and  C_2
REMARK    2  A    between atoms: C_4  and  C_5
REMARK    3  A    between atoms: C_5  and  C_6
REMARK    4  A    between atoms: C_6  and  O_8
REMARK    5  A    between atoms: C_9  and  N_10
REMARK    6  A    between atoms: C_11  and  C_12
REMARK    7  A    between atoms: C_12  and  C_14
REMARK                            x       y       z     vdW  Elec       q    Type
REMARK                         _______ _______ _______ _____ _____    ______ ____
ROOT
ATOM      1  C   UNL     1       2.441   8.273  17.797  0.00  0.00    +0.000 C 
ATOM      2  C   UNL     1       3.329   7.067  17.867  0.00  0.00    +0.000 A 
ATOM      3  C   UNL     1       3.090   6.035  18.777  0.00  0.00    +0.000 A 
ATOM      4  C   UNL     1       3.958   4.919  18.903  0.00  0.00    +0.000 A 
ATOM      5  C   UNL     1       5.130   4.883  18.117  0.00  0.00    +0.000 A 
ATOM      6  C   UNL     1       5.355   5.921  17.173  0.00  0.00    +0.000 A 
ATOM      7  C   UNL     1       4.438   6.975  17.031  0.00  0.00    +0.000 A 
ENDROOT
BRANCH   5   8
ATOM      8  N   UNL     1       6.186   3.993  18.436  0.00  0.00    +0.000 N 
ATOM      9  H   UNL     1       6.458   3.411  17.639  0.00  0.00    +0.000 HD
ATOM     10  H   UNL     1       7.023   4.519  18.718  0.00  0.00    +0.000 HD
ENDBRANCH   5   8
BRANCH   6  11
ATOM     11  C   UNL     1       6.541   5.862  16.261  0.00  0.00    +0.000 C 
ATOM     12  O   UNL     1       7.590   6.420  16.581  0.00  0.00    +0.000 OA
BRANCH  11  13
ATOM     13  C   UNL     1       6.502   5.127  14.972  0.00  0.00    +0.000 A 
ATOM     14  C   UNL     1       5.435   4.248  14.722  0.00  0.00    +0.000 A 
ATOM     15  C   UNL     1       5.376   3.552  13.515  0.00  0.00    +0.000 A 
ATOM     16  C   UNL     1       6.378   3.734  12.569  0.00  0.00    +0.000 A 
ATOM     17  F   UNL     1       6.318   3.071  11.406  0.00  0.00    +0.000 F 
ATOM     18  C   UNL     1       7.448   4.590  12.810  0.00  0.00    +0.000 A 
ATOM     19  C   UNL     1       7.519   5.276  14.021  0.00  0.00    +0.000 A 
ENDBRANCH  11  13
ENDBRANCH   6  11
BRANCH   4  20
ATOM     20  C   UNL     1       3.570   3.913  19.976  0.00  0.00    +0.000 C 
BRANCH  20  21
ATOM     21  C   UNL     1       3.254   2.477  19.598  0.00  0.00    +0.000 C 
ATOM     22  O   UNL     1       2.156   1.980  19.433  0.00  0.00    +0.000 OA
BRANCH  21  23
ATOM     23  O   UNL     1       4.389   1.744  19.422  0.00  0.00    +0.000 OA
ATOM     24  H   UNL     1       4.832   1.476  20.251  0.00  0.00    +0.000 HD
ENDBRANCH  21  23
ENDBRANCH  20  21
ENDBRANCH   4  20
TORSDOF 6
ENDMDL
MODEL 7
REMARK VINA RESULT:      -7.4      0.812      1.022
REMARK  Name = 
REMARK  7 active torsions:
REMARK  status: ('A' for Active; 'I' for Inactive)
REMARK    1  A    between atoms: C_1  and  C_2
REMARK    2  A    between atoms: C_4  and  C_5
REMARK    3  A    between atoms: C_5  and  C_6
REMARK    4  A    between atoms: C_6  and  O_8
REMARK    5  A    between atoms: C_9  and  N_10
REMARK    6  A    between atoms: C_11  and  C_12
REMARK    7  A    between atoms: C_12  and  C_14
REMARK                            x       y       z     vdW  Elec       q    Type
REMARK                         _______ _______ _______ _____ _____    ______ ____
ROOT
ATOM      1  C   UNL     1       2.301   8.224  17.912  0.00  0.00    +0.000 C 
ATOM      2  C   UNL     1       3.041   6.943  18.156  0.00  0.00    +0.000 A 
ATOM      3  C   UNL     1       2.559   5.977  19.042  0.00  0.00    +0.000 A 
ATOM      4  C   UNL     1       3.279   4.789  19.334  0.00  0.00    +0.000 A 
ATOM      5  C   UNL     1       4.550   4.609  18.748  0.00  0.00    +0.000 A 
ATOM      6  C   UNL     1       5.024   5.580  17.826  0.00  0.00    +0.000 A 
ATOM      7  C   UNL     1       4.253   6.710  17.511  0.00  0.00    +0.000 A 
ENDROOT
BRANCH   5   8
ATOM      8  N   UNL     1       5.448   3.635  19.255  0.00  0.00    +0.000 N 
ATOM      9  H   UNL     1       4.993   2.991  19.908  0.00  0.00    +0.000 HD
ATOM     10  H   UNL     1       5.824   3.064  18.489  0.00  0.00    +0.000 HD
ENDBRANCH   5   8
BRANCH   6  11
ATOM     11  C   UNL     1       6.327   5.370  17.118  0.00  0.00    +0.000 C 
ATOM     12  O   UNL     1       7.387   5.541  17.719  0.00  0.00    +0.000 OA
BRANCH  11  13
ATOM     13  C   UNL     1       6.386   4.939  15.698  0.00  0.00    +0.000 A 
ATOM     14  C   UNL     1       5.345   4.149  15.183  0.00  0.00    +0.000 A 
ATOM     15  C   UNL     1       5.378   3.738  13.851  0.00  0.00    +0.000 A 
ATOM     16  C   UNL     1       6.447   4.114  13.044  0.00  0.00    +0.000 A 
ATOM     17  F   UNL     1       6.475   3.726  11.762  0.00  0.00    +0.000 F 
ATOM     18  C   UNL     1       7.491   4.884  13.546  0.00  0.00    +0.000 A 
ATOM     19  C   UNL     1       7.470   5.284  14.880  0.00  0.00    +0.000 A 
ENDBRANCH  11  13
ENDBRANCH   6  11
BRANCH   4  20
ATOM     20  C   UNL     1       2.628   3.871  20.357  0.00  0.00    +0.000 C 
BRANCH  20  21
ATOM     21  C   UNL     1       1.605   2.839  19.914  0.00  0.00    +0.000 C 
ATOM     22  O   UNL     1       1.801   1.843  19.245  0.00  0.00    +0.000 OA
BRANCH  21  23
ATOM     23  O   UNL     1       0.361   3.134  20.385  0.00  0.00    +0.000 OA
ATOM     24  H   UNL     1       0.322   3.317  21.344  0.00  0.00    +0.000 HD
ENDBRANCH  21  23
ENDBRANCH  20  21
ENDBRANCH   4  20
TORSDOF 6
ENDMDL
MODEL 8
REMARK VINA RESULT:      -7.2      3.142      6.521
REMARK  Name = 
REMARK  7 active torsions:
REMARK  status: ('A' for Active; 'I' for Inactive)
REMARK    1  A    between atoms: C_1  and  C_2
REMARK    2  A    between atoms: C_4  and  C_5
REMARK    3  A    between atoms: C_5  and  C_6
REMARK    4  A    between atoms: C_6  and  O_8
REMARK    5  A    between atoms: C_9  and  N_10
REMARK    6  A    between atoms: C_11  and  C_12
REMARK    7  A    between atoms: C_12  and  C_14
REMARK                            x       y       z     vdW  Elec       q    Type
REMARK                         _______ _______ _______ _____ _____    ______ ____
ROOT
ATOM      1  C   UNL     1       5.953   4.011  13.608  0.00  0.00    +0.000 C 
ATOM      2  C   UNL     1       5.778   4.221  15.083  0.00  0.00    +0.000 A 
ATOM      3  C   UNL     1       6.872   4.418  15.929  0.00  0.00    +0.000 A 
ATOM      4  C   UNL     1       6.728   4.551  17.335  0.00  0.00    +0.000 A 
ATOM      5  C   UNL     1       5.440   4.424  17.897  0.00  0.00    +0.000 A 
ATOM      6  C   UNL     1       4.327   4.252  17.030  0.00  0.00    +0.000 A 
ATOM      7  C   UNL     1       4.502   4.191  15.639  0.00  0.00    +0.000 A 
ENDROOT
BRANCH   5   8
ATOM      8  N   UNL     1       5.278   4.206  19.289  0.00  0.00    +0.000 N 
ATOM      9  H   UNL     1       4.700   3.385  19.488  0.00  0.00    +0.000 HD
ATOM     10  H   UNL     1       6.190   4.041  19.732  0.00  0.00    +0.000 HD
ENDBRANCH   5   8
BRANCH   6  11
ATOM     11  C   UNL     1       2.939   4.208  17.591  0.00  0.00    +0.000 C 
ATOM     12  O   UNL     1       2.155   3.335  17.221  0.00  0.00    +0.000 OA
BRANCH  11  13
ATOM     13  C   UNL     1       2.474   5.185  18.607  0.00  0.00    +0.000 A 
ATOM     14  C   UNL     1       1.822   4.711  19.758  0.00  0.00    +0.000 A 
ATOM     15  C   UNL     1       1.381   5.612  20.728  0.00  0.00    +0.000 A 
ATOM     16  C   UNL     1       1.591   6.974  20.544  0.00  0.00    +0.000 A 
ATOM     17  F   UNL     1       1.175   7.839  21.479  0.00  0.00    +0.000 F 
ATOM     18  C   UNL     1       2.222   7.457  19.401  0.00  0.00    +0.000 A 
ATOM     19  C   UNL     1       2.650   6.562  18.423  0.00  0.00    +0.000 A 
ENDBRANCH  11  13
ENDBRANCH   6  11
BRANCH   4  20
ATOM     20  C   UNL     1       8.029   4.712  18.107  0.00  0.00    +0.000 C 
BRANCH  20  21
ATOM     21  C   UNL     1       8.092   5.634  19.312  0.00  0.00    +0.000 C 
ATOM     22  O   UNL     1       7.925   5.337  20.479  0.00  0.00    +0.000 OA
BRANCH  21  23
ATOM     23  O   UNL     1       8.396   6.911  18.950  0.00  0.00    +0.000 OA
ATOM     24  H   UNL     1       8.348   7.084  17.989  0.00  0.00    +0.000 HD
ENDBRANCH  21  23
ENDBRANCH  20  21
ENDBRANCH   4  20
TORSDOF 6
ENDMDL
MODEL 9
REMARK VINA RESULT:      -7.2      1.234      1.308
REMARK  Name = 
REMARK  7 active torsions:
REMARK  status: ('A' for Active; 'I' for Inactive)
REMARK    1  A    between atoms: C_1  and  C_2
REMARK    2  A    between atoms: C_4  and  C_5
REMARK    3  A    between atoms: C_5  and  C_6
REMARK    4  A    between atoms: C_6  and  O_8
REMARK    5  A    between atoms: C_9  and  N_10
REMARK    6  A    between atoms: C_11  and  C_12
REMARK    7  A    between atoms: C_12  and  C_14
REMARK                            x       y       z     vdW  Elec       q    Type
REMARK                         _______ _______ _______ _____ _____    ______ ____
ROOT
ATOM      1  C   UNL     1       2.539   8.541  17.800  0.00  0.00    +0.000 C 
ATOM      2  C   UNL     1       2.907   7.156  18.240  0.00  0.00    +0.000 A 
ATOM      3  C   UNL     1       2.102   6.431  19.122  0.00  0.00    +0.000 A 
ATOM      4  C   UNL     1       2.468   5.146  19.601  0.00  0.00    +0.000 A 
ATOM      5  C   UNL     1       3.714   4.610  19.212  0.00  0.00    +0.000 A 
ATOM      6  C   UNL     1       4.517   5.338  18.293  0.00  0.00    +0.000 A 
ATOM      7  C   UNL     1       4.090   6.577  17.790  0.00  0.00    +0.000 A 
ENDROOT
BRANCH   5   8
ATOM      8  N   UNL     1       4.279   3.514  19.912  0.00  0.00    +0.000 N 
ATOM      9  H   UNL     1       3.942   2.613  19.559  0.00  0.00    +0.000 HD
ATOM     10  H   UNL     1       5.301   3.511  19.803  0.00  0.00    +0.000 HD
ENDBRANCH   5   8
BRANCH   6  11
ATOM     11  C   UNL     1       5.801   4.754  17.791  0.00  0.00    +0.000 C 
ATOM     12  O   UNL     1       6.651   4.362  18.589  0.00  0.00    +0.000 OA
BRANCH  11  13
ATOM     13  C   UNL     1       6.082   4.611  16.340  0.00  0.00    +0.000 A 
ATOM     14  C   UNL     1       5.176   3.896  15.539  0.00  0.00    +0.000 A 
ATOM     15  C   UNL     1       5.417   3.755  14.173  0.00  0.00    +0.000 A 
ATOM     16  C   UNL     1       6.557   4.324  13.615  0.00  0.00    +0.000 A 
ATOM     17  F   UNL     1       6.786   4.194  12.302  0.00  0.00    +0.000 F 
ATOM     18  C   UNL     1       7.470   5.022  14.401  0.00  0.00    +0.000 A 
ATOM     19  C   UNL     1       7.240   5.152  15.768  0.00  0.00    +0.000 A 
ENDBRANCH  11  13
ENDBRANCH   6  11
BRANCH   4  20
ATOM     20  C   UNL     1       1.496   4.521  20.590  0.00  0.00    +0.000 C 
BRANCH  20  21
ATOM     21  C   UNL     1       1.547   3.030  20.872  0.00  0.00    +0.000 C 
ATOM     22  O   UNL     1       1.340   2.122  20.089  0.00  0.00    +0.000 OA
BRANCH  21  23
ATOM     23  O   UNL     1       1.892   2.776  22.164  0.00  0.00    +0.000 OA
ATOM     24  H   UNL     1       1.524   1.947  22.528  0.00  0.00    +0.000 HD
ENDBRANCH  21  23
ENDBRANCH  20  21
ENDBRANCH   4  20
TORSDOF 6
ENDMDL
