MODEL 1
REMARK VINA RESULT:      -6.9      0.000      0.000
REMARK  Name = 
REMARK  4 active torsions:
REMARK  status: ('A' for Active; 'I' for Inactive)
REMARK    1  A    between atoms: C_2  and  O_3
REMARK    2  A    between atoms: C_2  and  C_4
REMARK    3  A    between atoms: N_6  and  C_7
REMARK    4  A    between atoms: C_17  and  N_18
REMARK                            x       y       z     vdW  Elec       q    Type
REMARK                         _______ _______ _______ _____ _____    ______ ____
ROOT
ATOM      1  C   UNL     1      -1.701  15.033  24.457  0.00  0.00    +0.000 A 
ATOM      2  C   UNL     1      -1.131  14.245  23.532  0.00  0.00    +0.000 A 
ATOM      3  N   UNL     1      -1.773  13.431  22.586  0.00  0.00    +0.000 N 
ATOM      4  C   UNL     1      -3.216  13.507  22.565  0.00  0.00    +0.000 A 
ATOM      5  C   UNL     1      -4.012  12.697  21.738  0.00  0.00    +0.000 A 
ATOM      6  C   UNL     1      -5.404  12.865  21.578  0.00  0.00    +0.000 A 
ATOM      7  C   UNL     1      -6.015  13.849  22.367  0.00  0.00    +0.000 A 
ATOM      8  F   UNL     1      -7.336  14.075  22.281  0.00  0.00    +0.000 F 
ATOM      9  C   UNL     1      -5.289  14.592  23.290  0.00  0.00    +0.000 A 
ATOM     10  C   UNL     1      -3.904  14.409  23.393  0.00  0.00    +0.000 A 
ATOM     11  C   UNL     1      -3.165  15.172  24.414  0.00  0.00    +0.000 A 
ATOM     12  O   UNL     1      -3.737  15.912  25.212  0.00  0.00    +0.000 OA
ENDROOT
BRANCH   3  13
ATOM     13  C   UNL     1      -0.970  12.654  21.660  0.00  0.00    +0.000 A 
ATOM     14  C   UNL     1      -0.560  13.230  20.434  0.00  0.00    +0.000 A 
ATOM     15  C   UNL     1       0.152  12.505  19.470  0.00  0.00    +0.000 A 
ATOM     16  C   UNL     1       0.560  11.209  19.747  0.00  0.00    +0.000 A 
ATOM     17 CL   UNL     1       1.448  10.319  18.574  0.00  0.00    +0.000 Cl
ATOM     18  C   UNL     1       0.239  10.623  20.964  0.00  0.00    +0.000 A 
ATOM     19  C   UNL     1      -0.547  11.319  21.898  0.00  0.00    +0.000 A 
ATOM     20 CL   UNL     1      -1.040  10.383  23.274  0.00  0.00    +0.000 Cl
ENDBRANCH   3  13
BRANCH   6  21
ATOM     21  N   UNL     1      -6.047  12.121  20.603  0.00  0.00    +0.000 N 
ATOM     22  C   UNL     1      -6.033  12.509  19.185  0.00  0.00    +0.000 C 
ATOM     23  C   UNL     1      -6.091  11.222  18.320  0.00  0.00    +0.000 C 
ATOM     24  N   UNL     1      -7.220  10.322  18.641  0.00  0.00    +0.000 NA
ATOM     25  C   UNL     1      -7.238  10.034  20.089  0.00  0.00    +0.000 C 
ATOM     26  C   UNL     1      -7.222  11.308  20.965  0.00  0.00    +0.000 C 
ATOM     27  H   UNL     1      -7.097   9.447  18.134  0.00  0.00    +0.000 HD
ENDBRANCH   6  21
BRANCH   1  29
ATOM     28  O   UNL     1       0.179  16.312  25.162  0.00  0.00    +0.000 OA
ATOM     29  C   UNL     1      -0.839  15.703  25.455  0.00  0.00    +0.000 C 
BRANCH  29  30
ATOM     30  O   UNL     1      -1.249  15.561  26.733  0.00  0.00    +0.000 OA
ATOM     31  H   UNL     1      -1.106  14.658  27.109  0.00  0.00    +0.000 HD
ENDBRANCH  29  30
ENDBRANCH   1  29
TORSDOF 4
ENDMDL
MODEL 2
REMARK VINA RESULT:      -6.8      1.259      1.647
REMARK  Name = 
REMARK  4 active torsions:
REMARK  status: ('A' for Active; 'I' for Inactive)
REMARK    1  A    between atoms: C_2  and  O_3
REMARK    2  A    between atoms: C_2  and  C_4
REMARK    3  A    between atoms: N_6  and  C_7
REMARK    4  A    between atoms: C_17  and  N_18
REMARK                            x       y       z     vdW  Elec       q    Type
REMARK                         _______ _______ _______ _____ _____    ______ ____
ROOT
ATOM      1  C   UNL     1      -2.121  15.230  24.668  0.00  0.00    +0.000 A 
ATOM      2  C   UNL     1      -1.540  14.184  24.061  0.00  0.00    +0.000 A 
ATOM      3  N   UNL     1      -2.131  13.267  23.178  0.00  0.00    +0.000 N 
ATOM      4  C   UNL     1      -3.510  13.526  22.831  0.00  0.00    +0.000 A 
ATOM      5  C   UNL     1      -4.272  12.661  22.028  0.00  0.00    +0.000 A 
ATOM      6  C   UNL     1      -5.559  12.971  21.541  0.00  0.00    +0.000 A 
ATOM      7  C   UNL     1      -6.122  14.181  21.970  0.00  0.00    +0.000 A 
ATOM      8  F   UNL     1      -7.344  14.554  21.558  0.00  0.00    +0.000 F 
ATOM      9  C   UNL     1      -5.456  15.013  22.863  0.00  0.00    +0.000 A 
ATOM     10  C   UNL     1      -4.168  14.676  23.297  0.00  0.00    +0.000 A 
ATOM     11  C   UNL     1      -3.505  15.548  24.282  0.00  0.00    +0.000 A 
ATOM     12  O   UNL     1      -4.074  16.519  24.777  0.00  0.00    +0.000 OA
ENDROOT
BRANCH   3  13
ATOM     13  C   UNL     1      -1.322  12.200  22.619  0.00  0.00    +0.000 A 
ATOM     14  C   UNL     1      -1.314  10.929  23.239  0.00  0.00    +0.000 A 
ATOM     15  C   UNL     1      -0.497   9.883  22.789  0.00  0.00    +0.000 A 
ATOM     16  C   UNL     1       0.264  10.051  21.641  0.00  0.00    +0.000 A 
ATOM     17 CL   UNL     1       1.256   8.766  21.075  0.00  0.00    +0.000 Cl
ATOM     18  C   UNL     1       0.236  11.259  20.958  0.00  0.00    +0.000 A 
ATOM     19  C   UNL     1      -0.517  12.336  21.457  0.00  0.00    +0.000 A 
ATOM     20 CL   UNL     1      -0.284  13.836  20.614  0.00  0.00    +0.000 Cl
ENDBRANCH   3  13
BRANCH   6  21
ATOM     21  N   UNL     1      -6.134  12.116  20.616  0.00  0.00    +0.000 N 
ATOM     22  C   UNL     1      -5.963  12.299  19.167  0.00  0.00    +0.000 C 
ATOM     23  C   UNL     1      -5.991  10.904  18.486  0.00  0.00    +0.000 C 
ATOM     24  N   UNL     1      -7.185  10.093  18.809  0.00  0.00    +0.000 NA
ATOM     25  C   UNL     1      -7.359  10.013  20.273  0.00  0.00    +0.000 C 
ATOM     26  C   UNL     1      -7.374  11.397  20.962  0.00  0.00    +0.000 C 
ATOM     27  H   UNL     1      -7.051   9.151  18.443  0.00  0.00    +0.000 HD
ENDBRANCH   6  21
BRANCH   1  29
ATOM     28  O   UNL     1      -0.343  15.560  26.217  0.00  0.00    +0.000 OA
ATOM     29  C   UNL     1      -1.351  15.990  25.676  0.00  0.00    +0.000 C 
BRANCH  29  30
ATOM     30  O   UNL     1      -1.872  17.197  25.983  0.00  0.00    +0.000 OA
ATOM     31  H   UNL     1      -1.774  17.454  26.933  0.00  0.00    +0.000 HD
ENDBRANCH  29  30
ENDBRANCH   1  29
TORSDOF 4
ENDMDL
MODEL 3
REMARK VINA RESULT:      -6.6      3.740      6.362
REMARK  Name = 
REMARK  4 active torsions:
REMARK  status: ('A' for Active; 'I' for Inactive)
REMARK    1  A    between atoms: C_2  and  O_3
REMARK    2  A    between atoms: C_2  and  C_4
REMARK    3  A    between atoms: N_6  and  C_7
REMARK    4  A    between atoms: C_17  and  N_18
REMARK                            x       y       z     vdW  Elec       q    Type
REMARK                         _______ _______ _______ _____ _____    ______ ____
ROOT
ATOM      1  C   UNL     1      -2.740  13.171  23.244  0.00  0.00    +0.000 A 
ATOM      2  C   UNL     1      -2.776  12.547  22.057  0.00  0.00    +0.000 A 
ATOM      3  N   UNL     1      -1.939  12.759  20.950  0.00  0.00    +0.000 N 
ATOM      4  C   UNL     1      -0.872  13.715  21.141  0.00  0.00    +0.000 A 
ATOM      5  C   UNL     1      -0.001  14.104  20.110  0.00  0.00    +0.000 A 
ATOM      6  C   UNL     1       1.144  14.904  20.309  0.00  0.00    +0.000 A 
ATOM      7  C   UNL     1       1.352  15.397  21.604  0.00  0.00    +0.000 A 
ATOM      8  F   UNL     1       2.415  16.169  21.882  0.00  0.00    +0.000 F 
ATOM      9  C   UNL     1       0.450  15.141  22.630  0.00  0.00    +0.000 A 
ATOM     10  C   UNL     1      -0.658  14.318  22.391  0.00  0.00    +0.000 A 
ATOM     11  C   UNL     1      -1.626  14.103  23.481  0.00  0.00    +0.000 A 
ATOM     12  O   UNL     1      -1.520  14.674  24.565  0.00  0.00    +0.000 OA
ENDROOT
BRANCH   3  13
ATOM     13  C   UNL     1      -2.138  11.968  19.750  0.00  0.00    +0.000 A 
ATOM     14  C   UNL     1      -3.275  12.198  18.940  0.00  0.00    +0.000 A 
ATOM     15  C   UNL     1      -3.558  11.417  17.812  0.00  0.00    +0.000 A 
ATOM     16  C   UNL     1      -2.657  10.444  17.406  0.00  0.00    +0.000 A 
ATOM     17 CL   UNL     1      -2.992   9.493  16.013  0.00  0.00    +0.000 Cl
ATOM     18  C   UNL     1      -1.494  10.226  18.131  0.00  0.00    +0.000 A 
ATOM     19  C   UNL     1      -1.250  10.951  19.310  0.00  0.00    +0.000 A 
ATOM     20 CL   UNL     1       0.134  10.421  20.214  0.00  0.00    +0.000 Cl
ENDBRANCH   3  13
BRANCH   6  21
ATOM     21  N   UNL     1       2.019  15.072  19.249  0.00  0.00    +0.000 N 
ATOM     22  C   UNL     1       1.950  16.236  18.353  0.00  0.00    +0.000 C 
ATOM     23  C   UNL     1       3.383  16.560  17.853  0.00  0.00    +0.000 C 
ATOM     24  N   UNL     1       4.083  15.416  17.229  0.00  0.00    +0.000 NA
ATOM     25  C   UNL     1       4.048  14.250  18.133  0.00  0.00    +0.000 C 
ATOM     26  C   UNL     1       2.622  13.889  18.609  0.00  0.00    +0.000 C 
ATOM     27  H   UNL     1       5.056  15.676  17.065  0.00  0.00    +0.000 HD
ENDBRANCH   6  21
BRANCH   1  29
ATOM     28  O   UNL     1      -4.319  11.796  24.377  0.00  0.00    +0.000 OA
ATOM     29  C   UNL     1      -3.807  12.896  24.230  0.00  0.00    +0.000 C 
BRANCH  29  30
ATOM     30  O   UNL     1      -4.203  13.973  24.942  0.00  0.00    +0.000 OA
ATOM     31  H   UNL     1      -3.502  14.356  25.524  0.00  0.00    +0.000 HD
ENDBRANCH  29  30
ENDBRANCH   1  29
TORSDOF 4
ENDMDL
MODEL 4
REMARK VINA RESULT:      -6.5      4.056      6.137
REMARK  Name = 
REMARK  4 active torsions:
REMARK  status: ('A' for Active; 'I' for Inactive)
REMARK    1  A    between atoms: C_2  and  O_3
REMARK    2  A    between atoms: C_2  and  C_4
REMARK    3  A    between atoms: N_6  and  C_7
REMARK    4  A    between atoms: C_17  and  N_18
REMARK                            x       y       z     vdW  Elec       q    Type
REMARK                         _______ _______ _______ _____ _____    ______ ____
ROOT
ATOM      1  C   UNL     1      -3.445  11.088  17.358  0.00  0.00    +0.000 A 
ATOM      2  C   UNL     1      -2.301  11.553  17.882  0.00  0.00    +0.000 A 
ATOM      3  N   UNL     1      -2.141  12.325  19.043  0.00  0.00    +0.000 N 
ATOM      4  C   UNL     1      -3.347  12.589  19.795  0.00  0.00    +0.000 A 
ATOM      5  C   UNL     1      -3.373  13.413  20.933  0.00  0.00    +0.000 A 
ATOM      6  C   UNL     1      -4.495  13.552  21.776  0.00  0.00    +0.000 A 
ATOM      7  C   UNL     1      -5.665  12.887  21.385  0.00  0.00    +0.000 A 
ATOM      8  F   UNL     1      -6.781  12.967  22.128  0.00  0.00    +0.000 F 
ATOM      9  C   UNL     1      -5.723  12.158  20.203  0.00  0.00    +0.000 A 
ATOM     10  C   UNL     1      -4.575  12.025  19.412  0.00  0.00    +0.000 A 
ATOM     11  C   UNL     1      -4.675  11.291  18.139  0.00  0.00    +0.000 A 
ATOM     12  O   UNL     1      -5.747  10.851  17.726  0.00  0.00    +0.000 OA
ENDROOT
BRANCH   3  13
ATOM     13  C   UNL     1      -0.807  12.726  19.448  0.00  0.00    +0.000 A 
ATOM     14  C   UNL     1      -0.261  13.937  18.962  0.00  0.00    +0.000 A 
ATOM     15  C   UNL     1       1.048  14.338  19.259  0.00  0.00    +0.000 A 
ATOM     16  C   UNL     1       1.816  13.585  20.135  0.00  0.00    +0.000 A 
ATOM     17 CL   UNL     1       3.418  14.080  20.516  0.00  0.00    +0.000 Cl
ATOM     18  C   UNL     1       1.299  12.423  20.691  0.00  0.00    +0.000 A 
ATOM     19  C   UNL     1       0.018  11.974  20.327  0.00  0.00    +0.000 A 
ATOM     20 CL   UNL     1      -0.403  10.405  20.939  0.00  0.00    +0.000 Cl
ENDBRANCH   3  13
BRANCH   6  21
ATOM     21  N   UNL     1      -4.343  14.253  22.960  0.00  0.00    +0.000 N 
ATOM     22  C   UNL     1      -3.915  13.601  24.207  0.00  0.00    +0.000 C 
ATOM     23  C   UNL     1      -3.108  14.626  25.049  0.00  0.00    +0.000 C 
ATOM     24  N   UNL     1      -3.817  15.899  25.300  0.00  0.00    +0.000 NA
ATOM     25  C   UNL     1      -4.299  16.467  24.026  0.00  0.00    +0.000 C 
ATOM     26  C   UNL     1      -5.139  15.472  23.194  0.00  0.00    +0.000 C 
ATOM     27  H   UNL     1      -3.167  16.558  25.728  0.00  0.00    +0.000 HD
ENDBRANCH   6  21
BRANCH   1  29
ATOM     28  O   UNL     1      -2.506   9.658  15.702  0.00  0.00    +0.000 OA
ATOM     29  C   UNL     1      -3.407  10.410  16.044  0.00  0.00    +0.000 C 
BRANCH  29  30
ATOM     30  O   UNL     1      -4.437  10.715  15.227  0.00  0.00    +0.000 OA
ATOM     31  H   UNL     1      -5.303  10.831  15.689  0.00  0.00    +0.000 HD
ENDBRANCH  29  30
ENDBRANCH   1  29
TORSDOF 4
ENDMDL
MODEL 5
REMARK VINA RESULT:      -6.4      3.628      5.863
REMARK  Name = 
REMARK  4 active torsions:
REMARK  status: ('A' for Active; 'I' for Inactive)
REMARK    1  A    between atoms: C_2  and  O_3
REMARK    2  A    between atoms: C_2  and  C_4
REMARK    3  A    between atoms: N_6  and  C_7
REMARK    4  A    between atoms: C_17  and  N_18
REMARK                            x       y       z     vdW  Elec       q    Type
REMARK                         _______ _______ _______ _____ _____    ______ ____
ROOT
ATOM      1  C   UNL     1      -3.770  13.180  23.505  0.00  0.00    +0.000 A 
ATOM      2  C   UNL     1      -3.579  12.589  22.316  0.00  0.00    +0.000 A 
ATOM      3  N   UNL     1      -2.837  13.072  21.227  0.00  0.00    +0.000 N 
ATOM      4  C   UNL     1      -2.142  14.321  21.442  0.00  0.00    +0.000 A 
ATOM      5  C   UNL     1      -1.425  14.981  20.431  0.00  0.00    +0.000 A 
ATOM      6  C   UNL     1      -0.605  16.107  20.656  0.00  0.00    +0.000 A 
ATOM      7  C   UNL     1      -0.593  16.629  21.956  0.00  0.00    +0.000 A 
ATOM      8  F   UNL     1       0.157  17.701  22.258  0.00  0.00    +0.000 F 
ATOM      9  C   UNL     1      -1.382  16.084  22.963  0.00  0.00    +0.000 A 
ATOM     10  C   UNL     1      -2.158  14.949  22.699  0.00  0.00    +0.000 A 
ATOM     11  C   UNL     1      -3.024  14.421  23.768  0.00  0.00    +0.000 A 
ATOM     12  O   UNL     1      -3.129  14.985  24.855  0.00  0.00    +0.000 OA
ENDROOT
BRANCH   3  13
ATOM     13  C   UNL     1      -2.746  12.270  20.021  0.00  0.00    +0.000 A 
ATOM     14  C   UNL     1      -3.845  12.216  19.132  0.00  0.00    +0.000 A 
ATOM     15  C   UNL     1      -3.843  11.402  17.991  0.00  0.00    +0.000 A 
ATOM     16  C   UNL     1      -2.700  10.692  17.655  0.00  0.00    +0.000 A 
ATOM     17 CL   UNL     1      -2.686   9.704  16.248  0.00  0.00    +0.000 Cl
ATOM     18  C   UNL     1      -1.572  10.767  18.461  0.00  0.00    +0.000 A 
ATOM     19  C   UNL     1      -1.601  11.515  19.650  0.00  0.00    +0.000 A 
ATOM     20 CL   UNL     1      -0.195  11.342  20.652  0.00  0.00    +0.000 Cl
ENDBRANCH   3  13
BRANCH   6  21
ATOM     21  N   UNL     1       0.187  16.560  19.615  0.00  0.00    +0.000 N 
ATOM     22  C   UNL     1      -0.382  17.175  18.407  0.00  0.00    +0.000 C 
ATOM     23  C   UNL     1       0.626  18.223  17.864  0.00  0.00    +0.000 C 
ATOM     24  N   UNL     1       1.988  17.694  17.632  0.00  0.00    +0.000 NA
ATOM     25  C   UNL     1       2.477  17.012  18.846  0.00  0.00    +0.000 C 
ATOM     26  C   UNL     1       1.502  15.936  19.376  0.00  0.00    +0.000 C 
ATOM     27  H   UNL     1       2.611  18.473  17.419  0.00  0.00    +0.000 HD
ENDBRANCH   6  21
BRANCH   1  29
ATOM     28  O   UNL     1      -5.768  12.051  24.140  0.00  0.00    +0.000 OA
ATOM     29  C   UNL     1      -4.709  12.564  24.468  0.00  0.00    +0.000 C 
BRANCH  29  30
ATOM     30  O   UNL     1      -4.317  12.642  25.758  0.00  0.00    +0.000 OA
ATOM     31  H   UNL     1      -4.729  13.384  26.265  0.00  0.00    +0.000 HD
ENDBRANCH  29  30
ENDBRANCH   1  29
TORSDOF 4
ENDMDL
MODEL 6
REMARK VINA RESULT:      -6.4      3.634      6.442
REMARK  Name = 
REMARK  4 active torsions:
REMARK  status: ('A' for Active; 'I' for Inactive)
REMARK    1  A    between atoms: C_2  and  O_3
REMARK    2  A    between atoms: C_2  and  C_4
REMARK    3  A    between atoms: N_6  and  C_7
REMARK    4  A    between atoms: C_17  and  N_18
REMARK                            x       y       z     vdW  Elec       q    Type
REMARK                         _______ _______ _______ _____ _____    ______ ____
ROOT
ATOM      1  C   UNL     1      -3.203  12.905  23.811  0.00  0.00    +0.000 A 
ATOM      2  C   UNL     1      -2.437  11.987  23.203  0.00  0.00    +0.000 A 
ATOM      3  N   UNL     1      -1.220  12.192  22.534  0.00  0.00    +0.000 N 
ATOM      4  C   UNL     1      -0.702  13.541  22.567  0.00  0.00    +0.000 A 
ATOM      5  C   UNL     1       0.458  13.931  21.878  0.00  0.00    +0.000 A 
ATOM      6  C   UNL     1       1.073  15.192  22.026  0.00  0.00    +0.000 A 
ATOM      7  C   UNL     1       0.420  16.120  22.849  0.00  0.00    +0.000 A 
ATOM      8  F   UNL     1       0.934  17.345  23.044  0.00  0.00    +0.000 F 
ATOM      9  C   UNL     1      -0.795  15.822  23.454  0.00  0.00    +0.000 A 
ATOM     10  C   UNL     1      -1.353  14.547  23.300  0.00  0.00    +0.000 A 
ATOM     11  C   UNL     1      -2.666  14.272  23.910  0.00  0.00    +0.000 A 
ATOM     12  O   UNL     1      -3.307  15.145  24.492  0.00  0.00    +0.000 OA
ENDROOT
BRANCH   3  13
ATOM     13  C   UNL     1      -0.537  11.056  21.944  0.00  0.00    +0.000 A 
ATOM     14  C   UNL     1       0.125  10.125  22.779  0.00  0.00    +0.000 A 
ATOM     15  C   UNL     1       0.864   9.052  22.262  0.00  0.00    +0.000 A 
ATOM     16  C   UNL     1       0.877   8.822  20.894  0.00  0.00    +0.000 A 
ATOM     17 CL   UNL     1       1.767   7.498  20.256  0.00  0.00    +0.000 Cl
ATOM     18  C   UNL     1       0.185   9.670  20.039  0.00  0.00    +0.000 A 
ATOM     19  C   UNL     1      -0.485  10.795  20.549  0.00  0.00    +0.000 A 
ATOM     20 CL   UNL     1      -1.121  11.869  19.342  0.00  0.00    +0.000 Cl
ENDBRANCH   3  13
BRANCH   6  21
ATOM     21  N   UNL     1       2.307  15.394  21.431  0.00  0.00    +0.000 N 
ATOM     22  C   UNL     1       2.552  15.087  20.014  0.00  0.00    +0.000 C 
ATOM     23  C   UNL     1       3.619  16.075  19.471  0.00  0.00    +0.000 C 
ATOM     24  N   UNL     1       4.870  16.113  20.259  0.00  0.00    +0.000 NA
ATOM     25  C   UNL     1       4.561  16.338  21.685  0.00  0.00    +0.000 C 
ATOM     26  C   UNL     1       3.530  15.335  22.251  0.00  0.00    +0.000 C 
ATOM     27  H   UNL     1       5.447  16.883  19.923  0.00  0.00    +0.000 HD
ENDBRANCH   6  21
BRANCH   1  29
ATOM     28  O   UNL     1      -5.475  12.218  23.622  0.00  0.00    +0.000 OA
ATOM     29  C   UNL     1      -4.525  12.500  24.337  0.00  0.00    +0.000 C 
BRANCH  29  30
ATOM     30  O   UNL     1      -4.614  12.497  25.684  0.00  0.00    +0.000 OA
ATOM     31  H   UNL     1      -5.045  13.301  26.066  0.00  0.00    +0.000 HD
ENDBRANCH  29  30
ENDBRANCH   1  29
TORSDOF 4
ENDMDL
MODEL 7
REMARK VINA RESULT:      -6.4      8.243     11.234
REMARK  Name = 
REMARK  4 active torsions:
REMARK  status: ('A' for Active; 'I' for Inactive)
REMARK    1  A    between atoms: C_2  and  O_3
REMARK    2  A    between atoms: C_2  and  C_4
REMARK    3  A    between atoms: N_6  and  C_7
REMARK    4  A    between atoms: C_17  and  N_18
REMARK                            x       y       z     vdW  Elec       q    Type
REMARK                         _______ _______ _______ _____ _____    ______ ____
ROOT
ATOM      1  C   UNL     1       5.142   5.053  16.791  0.00  0.00    +0.000 A 
ATOM      2  C   UNL     1       4.423   4.438  17.741  0.00  0.00    +0.000 A 
ATOM      3  N   UNL     1       3.502   5.016  18.628  0.00  0.00    +0.000 N 
ATOM      4  C   UNL     1       3.253   6.428  18.447  0.00  0.00    +0.000 A 
ATOM      5  C   UNL     1       2.425   7.175  19.303  0.00  0.00    +0.000 A 
ATOM      6  C   UNL     1       2.036   8.508  19.053  0.00  0.00    +0.000 A 
ATOM      7  C   UNL     1       2.591   9.127  17.925  0.00  0.00    +0.000 A 
ATOM      8  F   UNL     1       2.278  10.394  17.614  0.00  0.00    +0.000 F 
ATOM      9  C   UNL     1       3.511   8.468  17.117  0.00  0.00    +0.000 A 
ATOM     10  C   UNL     1       3.845   7.136  17.388  0.00  0.00    +0.000 A 
ATOM     11  C   UNL     1       4.860   6.477  16.548  0.00  0.00    +0.000 A 
ATOM     12  O   UNL     1       5.462   7.082  15.662  0.00  0.00    +0.000 OA
ENDROOT
BRANCH   3  13
ATOM     13  C   UNL     1       2.815   4.170  19.586  0.00  0.00    +0.000 A 
ATOM     14  C   UNL     1       2.783   4.541  20.952  0.00  0.00    +0.000 A 
ATOM     15  C   UNL     1       2.200   3.727  21.933  0.00  0.00    +0.000 A 
ATOM     16  C   UNL     1       1.544   2.563  21.560  0.00  0.00    +0.000 A 
ATOM     17 CL   UNL     1       0.813   1.569  22.757  0.00  0.00    +0.000 Cl
ATOM     18  C   UNL     1       1.491   2.192  20.223  0.00  0.00    +0.000 A 
ATOM     19  C   UNL     1       2.148   2.963  19.249  0.00  0.00    +0.000 A 
ATOM     20 CL   UNL     1       2.169   2.261  17.661  0.00  0.00    +0.000 Cl
ENDBRANCH   3  13
BRANCH   6  21
ATOM     21  N   UNL     1       1.078   9.076  19.876  0.00  0.00    +0.000 N 
ATOM     22  C   UNL     1       0.766   8.533  21.206  0.00  0.00    +0.000 C 
ATOM     23  C   UNL     1       0.334   9.704  22.129  0.00  0.00    +0.000 C 
ATOM     24  N   UNL     1      -0.770  10.528  21.590  0.00  0.00    +0.000 NA
ATOM     25  C   UNL     1      -0.443  10.975  20.222  0.00  0.00    +0.000 C 
ATOM     26  C   UNL     1      -0.049   9.815  19.279  0.00  0.00    +0.000 C 
ATOM     27  H   UNL     1      -0.887  11.348  22.184  0.00  0.00    +0.000 HD
ENDBRANCH   6  21
BRANCH   1  29
ATOM     28  O   UNL     1       5.897   3.344  15.316  0.00  0.00    +0.000 OA
ATOM     29  C   UNL     1       6.166   4.279  16.054  0.00  0.00    +0.000 C 
BRANCH  29  30
ATOM     30  O   UNL     1       7.437   4.668  16.289  0.00  0.00    +0.000 OA
ATOM     31  H   UNL     1       8.105   4.267  15.681  0.00  0.00    +0.000 HD
ENDBRANCH  29  30
ENDBRANCH   1  29
TORSDOF 4
ENDMDL
MODEL 8
REMARK VINA RESULT:      -6.3      9.057     12.189
REMARK  Name = 
REMARK  4 active torsions:
REMARK  status: ('A' for Active; 'I' for Inactive)
REMARK    1  A    between atoms: C_2  and  O_3
REMARK    2  A    between atoms: C_2  and  C_4
REMARK    3  A    between atoms: N_6  and  C_7
REMARK    4  A    between atoms: C_17  and  N_18
REMARK                            x       y       z     vdW  Elec       q    Type
REMARK                         _______ _______ _______ _____ _____    ______ ____
ROOT
ATOM      1  C   UNL     1       6.165  13.501  24.007  0.00  0.00    +0.000 A 
ATOM      2  C   UNL     1       5.541  14.125  22.997  0.00  0.00    +0.000 A 
ATOM      3  N   UNL     1       6.066  14.456  21.738  0.00  0.00    +0.000 N 
ATOM      4  C   UNL     1       7.416  14.009  21.480  0.00  0.00    +0.000 A 
ATOM      5  C   UNL     1       8.116  14.330  20.306  0.00  0.00    +0.000 A 
ATOM      6  C   UNL     1       9.365  13.772  19.958  0.00  0.00    +0.000 A 
ATOM      7  C   UNL     1       9.958  12.918  20.898  0.00  0.00    +0.000 A 
ATOM      8  F   UNL     1      11.146  12.346  20.651  0.00  0.00    +0.000 F 
ATOM      9  C   UNL     1       9.360  12.668  22.128  0.00  0.00    +0.000 A 
ATOM     10  C   UNL     1       8.107  13.222  22.416  0.00  0.00    +0.000 A 
ATOM     11  C   UNL     1       7.518  12.983  23.746  0.00  0.00    +0.000 A 
ATOM     12  O   UNL     1       8.122  12.368  24.622  0.00  0.00    +0.000 OA
ENDROOT
BRANCH   3  13
ATOM     13  C   UNL     1       5.218  15.131  20.773  0.00  0.00    +0.000 A 
ATOM     14  C   UNL     1       4.221  14.399  20.084  0.00  0.00    +0.000 A 
ATOM     15  C   UNL     1       3.423  14.979  19.089  0.00  0.00    +0.000 A 
ATOM     16  C   UNL     1       3.533  16.336  18.823  0.00  0.00    +0.000 A 
ATOM     17 CL   UNL     1       2.546  17.056  17.614  0.00  0.00    +0.000 Cl
ATOM     18  C   UNL     1       4.451  17.109  19.521  0.00  0.00    +0.000 A 
ATOM     19  C   UNL     1       5.310  16.513  20.459  0.00  0.00    +0.000 A 
ATOM     20 CL   UNL     1       6.537  17.565  21.092  0.00  0.00    +0.000 Cl
ENDBRANCH   3  13
BRANCH   6  21
ATOM     21  N   UNL     1       9.870  14.031  18.696  0.00  0.00    +0.000 N 
ATOM     22  C   UNL     1       9.744  15.349  18.056  0.00  0.00    +0.000 C 
ATOM     23  C   UNL     1      10.977  15.573  17.139  0.00  0.00    +0.000 C 
ATOM     24  N   UNL     1      11.205  14.495  16.153  0.00  0.00    +0.000 NA
ATOM     25  C   UNL     1      11.237  13.186  16.836  0.00  0.00    +0.000 C 
ATOM     26  C   UNL     1       9.996  12.931  17.722  0.00  0.00    +0.000 C 
ATOM     27  H   UNL     1      12.105  14.650  15.700  0.00  0.00    +0.000 HD
ENDBRANCH   6  21
BRANCH   1  29
ATOM     28  O   UNL     1       5.098  14.333  25.966  0.00  0.00    +0.000 OA
ATOM     29  C   UNL     1       5.472  13.374  25.307  0.00  0.00    +0.000 C 
BRANCH  29  30
ATOM     30  O   UNL     1       5.312  12.103  25.733  0.00  0.00    +0.000 OA
ATOM     31  H   UNL     1       5.352  11.424  25.016  0.00  0.00    +0.000 HD
ENDBRANCH  29  30
ENDBRANCH   1  29
TORSDOF 4
ENDMDL
MODEL 9
REMARK VINA RESULT:      -6.3      3.853      6.649
REMARK  Name = 
REMARK  4 active torsions:
REMARK  status: ('A' for Active; 'I' for Inactive)
REMARK    1  A    between atoms: C_2  and  O_3
REMARK    2  A    between atoms: C_2  and  C_4
REMARK    3  A    between atoms: N_6  and  C_7
REMARK    4  A    between atoms: C_17  and  N_18
REMARK                            x       y       z     vdW  Elec       q    Type
REMARK                         _______ _______ _______ _____ _____    ______ ____
ROOT
ATOM      1  C   UNL     1      -5.376  12.471  21.230  0.00  0.00    +0.000 A 
ATOM      2  C   UNL     1      -5.047  12.004  20.017  0.00  0.00    +0.000 A 
ATOM      3  N   UNL     1      -3.814  12.127  19.356  0.00  0.00    +0.000 N 
ATOM      4  C   UNL     1      -2.760  12.774  20.104  0.00  0.00    +0.000 A 
ATOM      5  C   UNL     1      -1.495  13.051  19.559  0.00  0.00    +0.000 A 
ATOM      6  C   UNL     1      -0.402  13.527  20.313  0.00  0.00    +0.000 A 
ATOM      7  C   UNL     1      -0.644  13.815  21.663  0.00  0.00    +0.000 A 
ATOM      8  F   UNL     1       0.338  14.275  22.453  0.00  0.00    +0.000 F 
ATOM      9  C   UNL     1      -1.911  13.673  22.217  0.00  0.00    +0.000 A 
ATOM     10  C   UNL     1      -2.959  13.170  21.437  0.00  0.00    +0.000 A 
ATOM     11  C   UNL     1      -4.303  13.078  22.033  0.00  0.00    +0.000 A 
ATOM     12  O   UNL     1      -4.539  13.487  23.168  0.00  0.00    +0.000 OA
ENDROOT
BRANCH   3  13
ATOM     13  C   UNL     1      -3.656  11.539  18.039  0.00  0.00    +0.000 A 
ATOM     14  C   UNL     1      -2.550  10.697  17.776  0.00  0.00    +0.000 A 
ATOM     15  C   UNL     1      -2.304  10.162  16.504  0.00  0.00    +0.000 A 
ATOM     16  C   UNL     1      -3.216  10.376  15.481  0.00  0.00    +0.000 A 
ATOM     17 CL   UNL     1      -2.928   9.709  13.923  0.00  0.00    +0.000 Cl
ATOM     18  C   UNL     1      -4.352  11.140  15.709  0.00  0.00    +0.000 A 
ATOM     19  C   UNL     1      -4.556  11.747  16.960  0.00  0.00    +0.000 A 
ATOM     20 CL   UNL     1      -5.905  12.838  17.026  0.00  0.00    +0.000 Cl
ENDBRANCH   3  13
BRANCH   6  21
ATOM     21  N   UNL     1       0.838  13.593  19.700  0.00  0.00    +0.000 N 
ATOM     22  C   UNL     1       1.705  12.413  19.558  0.00  0.00    +0.000 C 
ATOM     23  C   UNL     1       2.536  12.566  18.256  0.00  0.00    +0.000 C 
ATOM     24  N   UNL     1       3.296  13.831  18.164  0.00  0.00    +0.000 NA
ATOM     25  C   UNL     1       2.397  14.978  18.400  0.00  0.00    +0.000 C 
ATOM     26  C   UNL     1       1.591  14.860  19.714  0.00  0.00    +0.000 C 
ATOM     27  H   UNL     1       3.690  13.911  17.227  0.00  0.00    +0.000 HD
ENDBRANCH   6  21
BRANCH   1  29
ATOM     28  O   UNL     1      -7.736  12.699  21.006  0.00  0.00    +0.000 OA
ATOM     29  C   UNL     1      -6.779  12.355  21.684  0.00  0.00    +0.000 C 
BRANCH  29  30
ATOM     30  O   UNL     1      -6.923  11.866  22.935  0.00  0.00    +0.000 OA
ATOM     31  H   UNL     1      -7.835  11.956  23.305  0.00  0.00    +0.000 HD
ENDBRANCH  29  30
ENDBRANCH   1  29
TORSDOF 4
ENDMDL
