MODEL 1
REMARK VINA RESULT:      -8.1      0.000      0.000
REMARK  Name = 
REMARK  9 active torsions:
REMARK  status: ('A' for Active; 'I' for Inactive)
REMARK    1  A    between atoms: C_1  and  O_2
REMARK    2  A    between atoms: O_2  and  C_3
REMARK    3  A    between atoms: C_6  and  C_7
REMARK    4  A    between atoms: C_8  and  C_9
REMARK    5  A    between atoms: C_9  and  O_11
REMARK    6  A    between atoms: N_14  and  C_15
REMARK    7  A    between atoms: C_15  and  C_16
REMARK    8  A    between atoms: C_21  and  O_22
REMARK    9  A    between atoms: O_22  and  C_23
REMARK                            x       y       z     vdW  Elec       q    Type
REMARK                         _______ _______ _______ _____ _____    ______ ____
ROOT
ATOM      1  C   UNL     1       1.676   7.830  19.777  0.00  0.00    +0.000 A 
ATOM      2  C   UNL     1       2.225   8.233  18.591  0.00  0.00    +0.000 A 
ATOM      3  C   UNL     1       2.981   7.275  17.715  0.00  0.00    +0.000 A 
ATOM      4  O   UNL     1       3.354   7.665  16.600  0.00  0.00    +0.000 OA
ATOM      5  N   UNL     1       3.279   6.007  18.182  0.00  0.00    +0.000 N 
ATOM      6  C   UNL     1       2.845   5.667  19.451  0.00  0.00    +0.000 A 
ATOM      7  C   UNL     1       1.932   6.456  20.121  0.00  0.00    +0.000 A 
ATOM      8  O   UNL     1       1.274   5.605  21.007  0.00  0.00    +0.000 OA
ATOM      9  C   UNL     1       1.942   4.395  20.975  0.00  0.00    +0.000 A 
ATOM     10  C   UNL     1       1.572   3.183  21.555  0.00  0.00    +0.000 A 
ATOM     11  C   UNL     1       2.513   2.139  21.487  0.00  0.00    +0.000 A 
ATOM     12  C   UNL     1       3.780   2.331  20.928  0.00  0.00    +0.000 A 
ATOM     13  C   UNL     1       4.078   3.520  20.262  0.00  0.00    +0.000 A 
ATOM     14  C   UNL     1       3.094   4.523  20.219  0.00  0.00    +0.000 A 
ENDROOT
BRANCH   1  18
ATOM     15  C   UNL     1      -0.512  10.292  22.501  0.00  0.00    +0.000 A 
ATOM     16  C   UNL     1       0.596   9.570  22.947  0.00  0.00    +0.000 A 
ATOM     17  C   UNL     1       1.410   8.866  22.050  0.00  0.00    +0.000 A 
ATOM     18  C   UNL     1       1.090   8.842  20.687  0.00  0.00    +0.000 A 
ATOM     19  C   UNL     1       0.006   9.617  20.235  0.00  0.00    +0.000 A 
ATOM     20  C   UNL     1      -0.794  10.333  21.135  0.00  0.00    +0.000 A 
BRANCH  15  22
ATOM     21  C   UNL     1      -2.177  11.875  23.093  0.00  0.00    +0.000 C 
ATOM     22  O   UNL     1      -1.273  10.853  23.491  0.00  0.00    +0.000 OA
ENDBRANCH  15  22
ENDBRANCH   1  18
BRANCH   2  23
ATOM     23  C   UNL     1       2.087   9.635  18.083  0.00  0.00    +0.000 C 
ATOM     24  O   UNL     1       2.833  10.554  18.343  0.00  0.00    +0.000 OA
BRANCH  23  25
ATOM     25  O   UNL     1       1.025   9.829  17.249  0.00  0.00    +0.000 OA
ATOM     26  H   UNL     1       0.253   9.250  17.462  0.00  0.00    +0.000 HD
ENDBRANCH  23  25
ENDBRANCH   2  23
BRANCH   5  27
ATOM     27  C   UNL     1       3.505   4.947  17.177  0.00  0.00    +0.000 C 
BRANCH  27  28
ATOM     28  C   UNL     1       4.867   4.843  16.557  0.00  0.00    +0.000 A 
ATOM     29  C   UNL     1       4.960   4.594  15.167  0.00  0.00    +0.000 A 
ATOM     30  C   UNL     1       6.187   4.535  14.506  0.00  0.00    +0.000 A 
ATOM     31  C   UNL     1       7.356   4.722  15.225  0.00  0.00    +0.000 A 
ATOM     32  C   UNL     1       7.288   4.942  16.594  0.00  0.00    +0.000 A 
ATOM     33  C   UNL     1       6.063   5.006  17.284  0.00  0.00    +0.000 A 
BRANCH  33  34
ATOM     34  O   UNL     1       6.295   5.217  18.612  0.00  0.00    +0.000 OA
ATOM     35  C   UNL     1       7.493   5.758  19.129  0.00  0.00    +0.000 C 
ENDBRANCH  33  34
ENDBRANCH  27  28
ENDBRANCH   5  27
TORSDOF 7
ENDMDL
MODEL 2
REMARK VINA RESULT:      -7.6      0.978      1.873
REMARK  Name = 
REMARK  9 active torsions:
REMARK  status: ('A' for Active; 'I' for Inactive)
REMARK    1  A    between atoms: C_1  and  O_2
REMARK    2  A    between atoms: O_2  and  C_3
REMARK    3  A    between atoms: C_6  and  C_7
REMARK    4  A    between atoms: C_8  and  C_9
REMARK    5  A    between atoms: C_9  and  O_11
REMARK    6  A    between atoms: N_14  and  C_15
REMARK    7  A    between atoms: C_15  and  C_16
REMARK    8  A    between atoms: C_21  and  O_22
REMARK    9  A    between atoms: O_22  and  C_23
REMARK                            x       y       z     vdW  Elec       q    Type
REMARK                         _______ _______ _______ _____ _____    ______ ____
ROOT
ATOM      1  C   UNL     1       1.178   7.999  19.967  0.00  0.00    +0.000 A 
ATOM      2  C   UNL     1       1.831   8.598  18.926  0.00  0.00    +0.000 A 
ATOM      3  C   UNL     1       2.786   7.830  18.056  0.00  0.00    +0.000 A 
ATOM      4  O   UNL     1       3.258   8.393  17.059  0.00  0.00    +0.000 OA
ATOM      5  N   UNL     1       3.146   6.540  18.407  0.00  0.00    +0.000 N 
ATOM      6  C   UNL     1       2.589   6.001  19.552  0.00  0.00    +0.000 A 
ATOM      7  C   UNL     1       1.523   6.617  20.178  0.00  0.00    +0.000 A 
ATOM      8  O   UNL     1       0.845   5.606  20.854  0.00  0.00    +0.000 OA
ATOM      9  C   UNL     1       1.629   4.470  20.773  0.00  0.00    +0.000 A 
ATOM     10  C   UNL     1       1.311   3.166  21.146  0.00  0.00    +0.000 A 
ATOM     11  C   UNL     1       2.352   2.221  21.088  0.00  0.00    +0.000 A 
ATOM     12  C   UNL     1       3.655   2.590  20.738  0.00  0.00    +0.000 A 
ATOM     13  C   UNL     1       3.916   3.877  20.267  0.00  0.00    +0.000 A 
ATOM     14  C   UNL     1       2.851   4.791  20.206  0.00  0.00    +0.000 A 
ENDROOT
BRANCH   1  18
ATOM     15  C   UNL     1      -0.613  10.845  22.605  0.00  0.00    +0.000 A 
ATOM     16  C   UNL     1      -1.026  10.769  21.274  0.00  0.00    +0.000 A 
ATOM     17  C   UNL     1      -0.555   9.757  20.427  0.00  0.00    +0.000 A 
ATOM     18  C   UNL     1       0.381   8.830  20.899  0.00  0.00    +0.000 A 
ATOM     19  C   UNL     1       0.751   8.877  22.256  0.00  0.00    +0.000 A 
ATOM     20  C   UNL     1       0.264   9.880  23.103  0.00  0.00    +0.000 A 
BRANCH  15  22
ATOM     21  C   UNL     1      -2.482  12.128  23.306  0.00  0.00    +0.000 C 
ATOM     22  O   UNL     1      -1.074  11.935  23.293  0.00  0.00    +0.000 OA
ENDBRANCH  15  22
ENDBRANCH   1  18
BRANCH   2  23
ATOM     23  C   UNL     1       1.621  10.038  18.574  0.00  0.00    +0.000 C 
ATOM     24  O   UNL     1       2.204  10.977  19.072  0.00  0.00    +0.000 OA
BRANCH  23  25
ATOM     25  O   UNL     1       0.696  10.248  17.593  0.00  0.00    +0.000 OA
ATOM     26  H   UNL     1       0.245   9.419  17.301  0.00  0.00    +0.000 HD
ENDBRANCH  23  25
ENDBRANCH   2  23
BRANCH   5  27
ATOM     27  C   UNL     1       3.605   5.644  17.324  0.00  0.00    +0.000 C 
BRANCH  27  28
ATOM     28  C   UNL     1       5.066   5.316  17.252  0.00  0.00    +0.000 A 
ATOM     29  C   UNL     1       5.881   5.612  18.371  0.00  0.00    +0.000 A 
ATOM     30  C   UNL     1       7.239   5.290  18.403  0.00  0.00    +0.000 A 
ATOM     31  C   UNL     1       7.815   4.663  17.312  0.00  0.00    +0.000 A 
ATOM     32  C   UNL     1       7.039   4.387  16.194  0.00  0.00    +0.000 A 
ATOM     33  C   UNL     1       5.668   4.702  16.136  0.00  0.00    +0.000 A 
BRANCH  33  34
ATOM     34  O   UNL     1       5.163   4.333  14.923  0.00  0.00    +0.000 OA
ATOM     35  C   UNL     1       5.952   3.875  13.845  0.00  0.00    +0.000 C 
ENDBRANCH  33  34
ENDBRANCH  27  28
ENDBRANCH   5  27
TORSDOF 7
ENDMDL
MODEL 3
REMARK VINA RESULT:      -7.3      4.137     11.250
REMARK  Name = 
REMARK  9 active torsions:
REMARK  status: ('A' for Active; 'I' for Inactive)
REMARK    1  A    between atoms: C_1  and  O_2
REMARK    2  A    between atoms: O_2  and  C_3
REMARK    3  A    between atoms: C_6  and  C_7
REMARK    4  A    between atoms: C_8  and  C_9
REMARK    5  A    between atoms: C_9  and  O_11
REMARK    6  A    between atoms: N_14  and  C_15
REMARK    7  A    between atoms: C_15  and  C_16
REMARK    8  A    between atoms: C_21  and  O_22
REMARK    9  A    between atoms: O_22  and  C_23
REMARK                            x       y       z     vdW  Elec       q    Type
REMARK                         _______ _______ _______ _____ _____    ______ ____
ROOT
ATOM      1  C   UNL     1      -1.356  12.017  19.881  0.00  0.00    +0.000 A 
ATOM      2  C   UNL     1      -2.505  11.830  19.164  0.00  0.00    +0.000 A 
ATOM      3  C   UNL     1      -3.807  12.439  19.603  0.00  0.00    +0.000 A 
ATOM      4  O   UNL     1      -4.787  12.334  18.854  0.00  0.00    +0.000 OA
ATOM      5  N   UNL     1      -3.893  13.058  20.837  0.00  0.00    +0.000 N 
ATOM      6  C   UNL     1      -2.752  13.106  21.618  0.00  0.00    +0.000 A 
ATOM      7  C   UNL     1      -1.518  12.784  21.089  0.00  0.00    +0.000 A 
ATOM      8  O   UNL     1      -0.584  13.475  21.857  0.00  0.00    +0.000 OA
ATOM      9  C   UNL     1      -1.268  14.022  22.927  0.00  0.00    +0.000 A 
ATOM     10  C   UNL     1      -0.810  14.932  23.877  0.00  0.00    +0.000 A 
ATOM     11  C   UNL     1      -1.677  15.215  24.949  0.00  0.00    +0.000 A 
ATOM     12  C   UNL     1      -2.906  14.564  25.087  0.00  0.00    +0.000 A 
ATOM     13  C   UNL     1      -3.381  13.742  24.065  0.00  0.00    +0.000 A 
ATOM     14  C   UNL     1      -2.570  13.553  22.933  0.00  0.00    +0.000 A 
ENDROOT
BRANCH   1  18
ATOM     15  C   UNL     1       1.798   9.618  18.278  0.00  0.00    +0.000 A 
ATOM     16  C   UNL     1       1.781  10.995  18.049  0.00  0.00    +0.000 A 
ATOM     17  C   UNL     1       0.838  11.821  18.674  0.00  0.00    +0.000 A 
ATOM     18  C   UNL     1      -0.136  11.262  19.510  0.00  0.00    +0.000 A 
ATOM     19  C   UNL     1      -0.079   9.883  19.782  0.00  0.00    +0.000 A 
ATOM     20  C   UNL     1       0.876   9.064  19.167  0.00  0.00    +0.000 A 
BRANCH  15  22
ATOM     21  C   UNL     1       3.012   7.603  17.973  0.00  0.00    +0.000 C 
ATOM     22  O   UNL     1       2.707   8.918  17.531  0.00  0.00    +0.000 OA
ENDBRANCH  15  22
ENDBRANCH   1  18
BRANCH   2  23
ATOM     23  C   UNL     1      -2.534  11.035  17.896  0.00  0.00    +0.000 C 
ATOM     24  O   UNL     1      -2.120  11.409  16.821  0.00  0.00    +0.000 OA
BRANCH  23  25
ATOM     25  O   UNL     1      -3.070   9.787  18.028  0.00  0.00    +0.000 OA
ATOM     26  H   UNL     1      -3.526   9.649  18.894  0.00  0.00    +0.000 HD
ENDBRANCH  23  25
ENDBRANCH   2  23
BRANCH   5  27
ATOM     27  C   UNL     1      -4.942  14.085  21.012  0.00  0.00    +0.000 C 
BRANCH  27  28
ATOM     28  C   UNL     1      -5.957  13.878  22.096  0.00  0.00    +0.000 A 
ATOM     29  C   UNL     1      -6.235  14.951  22.976  0.00  0.00    +0.000 A 
ATOM     30  C   UNL     1      -7.203  14.856  23.977  0.00  0.00    +0.000 A 
ATOM     31  C   UNL     1      -7.916  13.678  24.123  0.00  0.00    +0.000 A 
ATOM     32  C   UNL     1      -7.641  12.604  23.286  0.00  0.00    +0.000 A 
ATOM     33  C   UNL     1      -6.670  12.675  22.270  0.00  0.00    +0.000 A 
BRANCH  33  34
ATOM     34  O   UNL     1      -6.602  11.478  21.617  0.00  0.00    +0.000 OA
ATOM     35  C   UNL     1      -7.596  11.003  20.734  0.00  0.00    +0.000 C 
ENDBRANCH  33  34
ENDBRANCH  27  28
ENDBRANCH   5  27
TORSDOF 7
ENDMDL
MODEL 4
REMARK VINA RESULT:      -7.3      3.927      7.633
REMARK  Name = 
REMARK  9 active torsions:
REMARK  status: ('A' for Active; 'I' for Inactive)
REMARK    1  A    between atoms: C_1  and  O_2
REMARK    2  A    between atoms: O_2  and  C_3
REMARK    3  A    between atoms: C_6  and  C_7
REMARK    4  A    between atoms: C_8  and  C_9
REMARK    5  A    between atoms: C_9  and  O_11
REMARK    6  A    between atoms: N_14  and  C_15
REMARK    7  A    between atoms: C_15  and  C_16
REMARK    8  A    between atoms: C_21  and  O_22
REMARK    9  A    between atoms: O_22  and  C_23
REMARK                            x       y       z     vdW  Elec       q    Type
REMARK                         _______ _______ _______ _____ _____    ______ ____
ROOT
ATOM      1  C   UNL     1      -2.468  12.997  20.924  0.00  0.00    +0.000 A 
ATOM      2  C   UNL     1      -1.293  12.870  21.611  0.00  0.00    +0.000 A 
ATOM      3  C   UNL     1      -0.126  12.122  21.030  0.00  0.00    +0.000 A 
ATOM      4  O   UNL     1       0.949  12.140  21.644  0.00  0.00    +0.000 OA
ATOM      5  N   UNL     1      -0.286  11.403  19.859  0.00  0.00    +0.000 N 
ATOM      6  C   UNL     1      -1.531  11.420  19.255  0.00  0.00    +0.000 A 
ATOM      7  C   UNL     1      -2.499  12.319  19.655  0.00  0.00    +0.000 A 
ATOM      8  O   UNL     1      -3.324  12.504  18.547  0.00  0.00    +0.000 OA
ATOM      9  C   UNL     1      -2.943  11.572  17.600  0.00  0.00    +0.000 A 
ATOM     10  C   UNL     1      -3.351  11.466  16.272  0.00  0.00    +0.000 A 
ATOM     11  C   UNL     1      -2.912  10.330  15.566  0.00  0.00    +0.000 A 
ATOM     12  C   UNL     1      -2.162   9.327  16.188  0.00  0.00    +0.000 A 
ATOM     13  C   UNL     1      -1.680   9.515  17.484  0.00  0.00    +0.000 A 
ATOM     14  C   UNL     1      -2.014  10.706  18.151  0.00  0.00    +0.000 A 
ENDROOT
BRANCH   1  18
ATOM     15  C   UNL     1      -6.159  14.684  22.266  0.00  0.00    +0.000 A 
ATOM     16  C   UNL     1      -5.887  13.333  22.487  0.00  0.00    +0.000 A 
ATOM     17  C   UNL     1      -4.633  12.788  22.180  0.00  0.00    +0.000 A 
ATOM     18  C   UNL     1      -3.644  13.592  21.601  0.00  0.00    +0.000 A 
ATOM     19  C   UNL     1      -3.904  14.965  21.434  0.00  0.00    +0.000 A 
ATOM     20  C   UNL     1      -5.154  15.507  21.757  0.00  0.00    +0.000 A 
BRANCH  15  22
ATOM     21  C   UNL     1      -7.784  15.311  23.877  0.00  0.00    +0.000 C 
ATOM     22  O   UNL     1      -7.450  15.063  22.519  0.00  0.00    +0.000 OA
ENDBRANCH  15  22
ENDBRANCH   1  18
BRANCH   2  23
ATOM     23  C   UNL     1      -1.086  13.483  22.961  0.00  0.00    +0.000 C 
ATOM     24  O   UNL     1      -1.577  13.089  23.996  0.00  0.00    +0.000 OA
BRANCH  23  25
ATOM     25  O   UNL     1      -0.253  14.564  22.966  0.00  0.00    +0.000 OA
ATOM     26  H   UNL     1      -0.702  15.400  23.240  0.00  0.00    +0.000 HD
ENDBRANCH  23  25
ENDBRANCH   2  23
BRANCH   5  27
ATOM     27  C   UNL     1       0.920  11.155  19.042  0.00  0.00    +0.000 C 
BRANCH  27  28
ATOM     28  C   UNL     1       1.447   9.753  18.970  0.00  0.00    +0.000 A 
ATOM     29  C   UNL     1       2.030   9.311  17.759  0.00  0.00    +0.000 A 
ATOM     30  C   UNL     1       2.590   8.039  17.627  0.00  0.00    +0.000 A 
ATOM     31  C   UNL     1       2.578   7.176  18.710  0.00  0.00    +0.000 A 
ATOM     32  C   UNL     1       1.988   7.581  19.901  0.00  0.00    +0.000 A 
ATOM     33  C   UNL     1       1.416   8.858  20.058  0.00  0.00    +0.000 A 
BRANCH  33  34
ATOM     34  O   UNL     1       0.901   8.978  21.316  0.00  0.00    +0.000 OA
ATOM     35  C   UNL     1      -0.332   8.423  21.721  0.00  0.00    +0.000 C 
ENDBRANCH  33  34
ENDBRANCH  27  28
ENDBRANCH   5  27
TORSDOF 7
ENDMDL
MODEL 5
REMARK VINA RESULT:      -7.2      7.223      8.653
REMARK  Name = 
REMARK  9 active torsions:
REMARK  status: ('A' for Active; 'I' for Inactive)
REMARK    1  A    between atoms: C_1  and  O_2
REMARK    2  A    between atoms: O_2  and  C_3
REMARK    3  A    between atoms: C_6  and  C_7
REMARK    4  A    between atoms: C_8  and  C_9
REMARK    5  A    between atoms: C_9  and  O_11
REMARK    6  A    between atoms: N_14  and  C_15
REMARK    7  A    between atoms: C_15  and  C_16
REMARK    8  A    between atoms: C_21  and  O_22
REMARK    9  A    between atoms: O_22  and  C_23
REMARK                            x       y       z     vdW  Elec       q    Type
REMARK                         _______ _______ _______ _____ _____    ______ ____
ROOT
ATOM      1  C   UNL     1       4.547  14.530  20.914  0.00  0.00    +0.000 A 
ATOM      2  C   UNL     1       5.191  15.215  19.922  0.00  0.00    +0.000 A 
ATOM      3  C   UNL     1       6.685  15.378  19.928  0.00  0.00    +0.000 A 
ATOM      4  O   UNL     1       7.224  15.905  18.946  0.00  0.00    +0.000 OA
ATOM      5  N   UNL     1       7.413  14.981  21.036  0.00  0.00    +0.000 N 
ATOM      6  C   UNL     1       6.723  14.426  22.099  0.00  0.00    +0.000 A 
ATOM      7  C   UNL     1       5.404  14.043  21.963  0.00  0.00    +0.000 A 
ATOM      8  O   UNL     1       5.203  13.036  22.905  0.00  0.00    +0.000 OA
ATOM      9  C   UNL     1       6.337  12.990  23.694  0.00  0.00    +0.000 A 
ATOM     10  C   UNL     1       6.686  12.048  24.659  0.00  0.00    +0.000 A 
ATOM     11  C   UNL     1       7.838  12.321  25.420  0.00  0.00    +0.000 A 
ATOM     12  C   UNL     1       8.555  13.510  25.259  0.00  0.00    +0.000 A 
ATOM     13  C   UNL     1       8.244  14.380  24.214  0.00  0.00    +0.000 A 
ATOM     14  C   UNL     1       7.168  14.049  23.373  0.00  0.00    +0.000 A 
ENDROOT
BRANCH   1  18
ATOM     15  C   UNL     1       0.341  14.109  21.553  0.00  0.00    +0.000 A 
ATOM     16  C   UNL     1       1.023  15.206  22.083  0.00  0.00    +0.000 A 
ATOM     17  C   UNL     1       2.369  15.439  21.774  0.00  0.00    +0.000 A 
ATOM     18  C   UNL     1       3.066  14.539  20.959  0.00  0.00    +0.000 A 
ATOM     19  C   UNL     1       2.360  13.467  20.382  0.00  0.00    +0.000 A 
ATOM     20  C   UNL     1       1.009  13.249  20.681  0.00  0.00    +0.000 A 
BRANCH  15  22
ATOM     21  C   UNL     1      -1.154  14.193  23.393  0.00  0.00    +0.000 C 
ATOM     22  O   UNL     1      -0.939  13.947  22.010  0.00  0.00    +0.000 OA
ENDBRANCH  15  22
ENDBRANCH   1  18
BRANCH   2  23
ATOM     23  C   UNL     1       4.460  15.818  18.763  0.00  0.00    +0.000 C 
ATOM     24  O   UNL     1       3.967  16.925  18.741  0.00  0.00    +0.000 OA
BRANCH  23  25
ATOM     25  O   UNL     1       4.390  15.015  17.662  0.00  0.00    +0.000 OA
ATOM     26  H   UNL     1       3.790  15.368  16.961  0.00  0.00    +0.000 HD
ENDBRANCH  23  25
ENDBRANCH   2  23
BRANCH   5  27
ATOM     27  C   UNL     1       8.836  14.638  20.828  0.00  0.00    +0.000 C 
BRANCH  27  28
ATOM     28  C   UNL     1       9.160  13.286  20.265  0.00  0.00    +0.000 A 
ATOM     29  C   UNL     1       9.125  12.167  21.130  0.00  0.00    +0.000 A 
ATOM     30  C   UNL     1       9.363  10.870  20.672  0.00  0.00    +0.000 A 
ATOM     31  C   UNL     1       9.643  10.663  19.332  0.00  0.00    +0.000 A 
ATOM     32  C   UNL     1       9.706  11.751  18.471  0.00  0.00    +0.000 A 
ATOM     33  C   UNL     1       9.472  13.068  18.908  0.00  0.00    +0.000 A 
BRANCH  33  34
ATOM     34  O   UNL     1       9.613  13.931  17.860  0.00  0.00    +0.000 OA
ATOM     35  C   UNL     1      10.858  14.322  17.321  0.00  0.00    +0.000 C 
ENDBRANCH  33  34
ENDBRANCH  27  28
ENDBRANCH   5  27
TORSDOF 7
ENDMDL
MODEL 6
REMARK VINA RESULT:      -7.2      5.427     11.633
REMARK  Name = 
REMARK  9 active torsions:
REMARK  status: ('A' for Active; 'I' for Inactive)
REMARK    1  A    between atoms: C_1  and  O_2
REMARK    2  A    between atoms: O_2  and  C_3
REMARK    3  A    between atoms: C_6  and  C_7
REMARK    4  A    between atoms: C_8  and  C_9
REMARK    5  A    between atoms: C_9  and  O_11
REMARK    6  A    between atoms: N_14  and  C_15
REMARK    7  A    between atoms: C_15  and  C_16
REMARK    8  A    between atoms: C_21  and  O_22
REMARK    9  A    between atoms: O_22  and  C_23
REMARK                            x       y       z     vdW  Elec       q    Type
REMARK                         _______ _______ _______ _____ _____    ______ ____
ROOT
ATOM      1  C   UNL     1      -2.775  12.036  19.186  0.00  0.00    +0.000 A 
ATOM      2  C   UNL     1      -3.589  11.581  18.186  0.00  0.00    +0.000 A 
ATOM      3  C   UNL     1      -5.071  11.824  18.213  0.00  0.00    +0.000 A 
ATOM      4  O   UNL     1      -5.741  11.492  17.227  0.00  0.00    +0.000 OA
ATOM      5  N   UNL     1      -5.656  12.367  19.344  0.00  0.00    +0.000 N 
ATOM      6  C   UNL     1      -4.833  12.683  20.410  0.00  0.00    +0.000 A 
ATOM      7  C   UNL     1      -3.460  12.702  20.262  0.00  0.00    +0.000 A 
ATOM      8  O   UNL     1      -2.988  13.589  21.228  0.00  0.00    +0.000 OA
ATOM      9  C   UNL     1      -4.061  13.913  22.037  0.00  0.00    +0.000 A 
ATOM     10  C   UNL     1      -4.135  14.884  23.033  0.00  0.00    +0.000 A 
ATOM     11  C   UNL     1      -5.311  14.907  23.805  0.00  0.00    +0.000 A 
ATOM     12  C   UNL     1      -6.323  13.959  23.625  0.00  0.00    +0.000 A 
ATOM     13  C   UNL     1      -6.266  13.070  22.550  0.00  0.00    +0.000 A 
ATOM     14  C   UNL     1      -5.148  13.126  21.701  0.00  0.00    +0.000 A 
ENDROOT
BRANCH   1  18
ATOM     15  C   UNL     1       1.185  10.508  18.681  0.00  0.00    +0.000 A 
ATOM     16  C   UNL     1       0.877  11.803  18.263  0.00  0.00    +0.000 A 
ATOM     17  C   UNL     1      -0.372  12.375  18.539  0.00  0.00    +0.000 A 
ATOM     18  C   UNL     1      -1.351  11.628  19.206  0.00  0.00    +0.000 A 
ATOM     19  C   UNL     1      -1.016  10.345  19.675  0.00  0.00    +0.000 A 
ATOM     20  C   UNL     1       0.240   9.785  19.410  0.00  0.00    +0.000 A 
BRANCH  15  22
ATOM     21  C   UNL     1       2.441   8.688  17.822  0.00  0.00    +0.000 C 
ATOM     22  O   UNL     1       2.401  10.038  18.262  0.00  0.00    +0.000 OA
ENDBRANCH  15  22
ENDBRANCH   1  18
BRANCH   2  23
ATOM     23  C   UNL     1      -3.057  10.839  16.999  0.00  0.00    +0.000 C 
ATOM     24  O   UNL     1      -2.880   9.642  16.938  0.00  0.00    +0.000 OA
BRANCH  23  25
ATOM     25  O   UNL     1      -2.783  11.628  15.920  0.00  0.00    +0.000 OA
ATOM     26  H   UNL     1      -2.214  12.405  16.141  0.00  0.00    +0.000 HD
ENDBRANCH  23  25
ENDBRANCH   2  23
BRANCH   5  27
ATOM     27  C   UNL     1      -6.936  13.086  19.170  0.00  0.00    +0.000 C 
BRANCH  27  28
ATOM     28  C   UNL     1      -6.906  14.423  18.492  0.00  0.00    +0.000 A 
ATOM     29  C   UNL     1      -7.098  14.476  17.091  0.00  0.00    +0.000 A 
ATOM     30  C   UNL     1      -7.136  15.684  16.393  0.00  0.00    +0.000 A 
ATOM     31  C   UNL     1      -6.982  16.873  17.086  0.00  0.00    +0.000 A 
ATOM     32  C   UNL     1      -6.767  16.843  18.457  0.00  0.00    +0.000 A 
ATOM     33  C   UNL     1      -6.724  15.638  19.183  0.00  0.00    +0.000 A 
BRANCH  33  34
ATOM     34  O   UNL     1      -6.487  15.903  20.501  0.00  0.00    +0.000 OA
ATOM     35  C   UNL     1      -6.391  17.206  21.039  0.00  0.00    +0.000 C 
ENDBRANCH  33  34
ENDBRANCH  27  28
ENDBRANCH   5  27
TORSDOF 7
ENDMDL
MODEL 7
REMARK VINA RESULT:      -7.1      4.150      7.935
REMARK  Name = 
REMARK  9 active torsions:
REMARK  status: ('A' for Active; 'I' for Inactive)
REMARK    1  A    between atoms: C_1  and  O_2
REMARK    2  A    between atoms: O_2  and  C_3
REMARK    3  A    between atoms: C_6  and  C_7
REMARK    4  A    between atoms: C_8  and  C_9
REMARK    5  A    between atoms: C_9  and  O_11
REMARK    6  A    between atoms: N_14  and  C_15
REMARK    7  A    between atoms: C_15  and  C_16
REMARK    8  A    between atoms: C_21  and  O_22
REMARK    9  A    between atoms: O_22  and  C_23
REMARK                            x       y       z     vdW  Elec       q    Type
REMARK                         _______ _______ _______ _____ _____    ______ ____
ROOT
ATOM      1  C   UNL     1      -3.175  13.021  20.621  0.00  0.00    +0.000 A 
ATOM      2  C   UNL     1      -2.013  13.009  21.342  0.00  0.00    +0.000 A 
ATOM      3  C   UNL     1      -0.776  12.336  20.819  0.00  0.00    +0.000 A 
ATOM      4  O   UNL     1       0.276  12.458  21.461  0.00  0.00    +0.000 OA
ATOM      5  N   UNL     1      -0.847  11.568  19.671  0.00  0.00    +0.000 N 
ATOM      6  C   UNL     1      -2.071  11.467  19.034  0.00  0.00    +0.000 A 
ATOM      7  C   UNL     1      -3.117  12.301  19.376  0.00  0.00    +0.000 A 
ATOM      8  O   UNL     1      -3.921  12.383  18.241  0.00  0.00    +0.000 OA
ATOM      9  C   UNL     1      -3.442  11.453  17.338  0.00  0.00    +0.000 A 
ATOM     10  C   UNL     1      -3.802  11.271  16.005  0.00  0.00    +0.000 A 
ATOM     11  C   UNL     1      -3.257  10.150  15.351  0.00  0.00    +0.000 A 
ATOM     12  C   UNL     1      -2.450   9.230  16.028  0.00  0.00    +0.000 A 
ATOM     13  C   UNL     1      -2.021   9.498  17.328  0.00  0.00    +0.000 A 
ATOM     14  C   UNL     1      -2.465  10.681  17.943  0.00  0.00    +0.000 A 
ENDROOT
BRANCH   1  18
ATOM     15  C   UNL     1      -6.338  14.740  22.924  0.00  0.00    +0.000 A 
ATOM     16  C   UNL     1      -5.795  15.443  21.848  0.00  0.00    +0.000 A 
ATOM     17  C   UNL     1      -4.855  14.849  20.996  0.00  0.00    +0.000 A 
ATOM     18  C   UNL     1      -4.413  13.545  21.245  0.00  0.00    +0.000 A 
ATOM     19  C   UNL     1      -5.005  12.821  22.296  0.00  0.00    +0.000 A 
ATOM     20  C   UNL     1      -5.956  13.415  23.135  0.00  0.00    +0.000 A 
BRANCH  15  22
ATOM     21  C   UNL     1      -7.259  16.860  23.459  0.00  0.00    +0.000 C 
ATOM     22  O   UNL     1      -7.170  15.469  23.731  0.00  0.00    +0.000 OA
ENDBRANCH  15  22
ENDBRANCH   1  18
BRANCH   2  23
ATOM     23  C   UNL     1      -1.894  13.682  22.675  0.00  0.00    +0.000 C 
ATOM     24  O   UNL     1      -1.864  14.879  22.859  0.00  0.00    +0.000 OA
BRANCH  23  25
ATOM     25  O   UNL     1      -1.834  12.823  23.733  0.00  0.00    +0.000 OA
ATOM     26  H   UNL     1      -2.508  13.017  24.430  0.00  0.00    +0.000 HD
ENDBRANCH  23  25
ENDBRANCH   2  23
BRANCH   5  27
ATOM     27  C   UNL     1       0.399  11.387  18.895  0.00  0.00    +0.000 C 
BRANCH  27  28
ATOM     28  C   UNL     1       1.056  10.039  18.919  0.00  0.00    +0.000 A 
ATOM     29  C   UNL     1       1.701   9.580  17.746  0.00  0.00    +0.000 A 
ATOM     30  C   UNL     1       2.380   8.362  17.704  0.00  0.00    +0.000 A 
ATOM     31  C   UNL     1       2.427   7.570  18.839  0.00  0.00    +0.000 A 
ATOM     32  C   UNL     1       1.779   7.990  19.993  0.00  0.00    +0.000 A 
ATOM     33  C   UNL     1       1.087   9.214  20.061  0.00  0.00    +0.000 A 
BRANCH  33  34
ATOM     34  O   UNL     1       0.538   9.363  21.302  0.00  0.00    +0.000 OA
ATOM     35  C   UNL     1       1.209   9.048  22.504  0.00  0.00    +0.000 C 
ENDBRANCH  33  34
ENDBRANCH  27  28
ENDBRANCH   5  27
TORSDOF 7
ENDMDL
MODEL 8
REMARK VINA RESULT:      -7.0      6.356      9.007
REMARK  Name = 
REMARK  9 active torsions:
REMARK  status: ('A' for Active; 'I' for Inactive)
REMARK    1  A    between atoms: C_1  and  O_2
REMARK    2  A    between atoms: O_2  and  C_3
REMARK    3  A    between atoms: C_6  and  C_7
REMARK    4  A    between atoms: C_8  and  C_9
REMARK    5  A    between atoms: C_9  and  O_11
REMARK    6  A    between atoms: N_14  and  C_15
REMARK    7  A    between atoms: C_15  and  C_16
REMARK    8  A    between atoms: C_21  and  O_22
REMARK    9  A    between atoms: O_22  and  C_23
REMARK                            x       y       z     vdW  Elec       q    Type
REMARK                         _______ _______ _______ _____ _____    ______ ____
ROOT
ATOM      1  C   UNL     1      -1.960  13.722  22.134  0.00  0.00    +0.000 A 
ATOM      2  C   UNL     1      -0.843  14.340  22.622  0.00  0.00    +0.000 A 
ATOM      3  C   UNL     1       0.499  14.156  21.972  0.00  0.00    +0.000 A 
ATOM      4  O   UNL     1       1.452  14.830  22.386  0.00  0.00    +0.000 OA
ATOM      5  N   UNL     1       0.651  13.216  20.968  0.00  0.00    +0.000 N 
ATOM      6  C   UNL     1      -0.463  12.490  20.588  0.00  0.00    +0.000 A 
ATOM      7  C   UNL     1      -1.726  12.861  21.005  0.00  0.00    +0.000 A 
ATOM      8  O   UNL     1      -2.603  12.373  20.038  0.00  0.00    +0.000 OA
ATOM      9  C   UNL     1      -1.863  11.568  19.192  0.00  0.00    +0.000 A 
ATOM     10  C   UNL     1      -2.249  10.991  17.984  0.00  0.00    +0.000 A 
ATOM     11  C   UNL     1      -1.339  10.095  17.394  0.00  0.00    +0.000 A 
ATOM     12  C   UNL     1      -0.139   9.750  18.024  0.00  0.00    +0.000 A 
ATOM     13  C   UNL     1       0.266  10.425  19.175  0.00  0.00    +0.000 A 
ATOM     14  C   UNL     1      -0.585  11.412  19.701  0.00  0.00    +0.000 A 
ENDROOT
BRANCH   1  18
ATOM     15  C   UNL     1      -5.885  13.601  23.823  0.00  0.00    +0.000 A 
ATOM     16  C   UNL     1      -4.920  12.678  24.229  0.00  0.00    +0.000 A 
ATOM     17  C   UNL     1      -3.592  12.780  23.794  0.00  0.00    +0.000 A 
ATOM     18  C   UNL     1      -3.225  13.795  22.902  0.00  0.00    +0.000 A 
ATOM     19  C   UNL     1      -4.188  14.756  22.542  0.00  0.00    +0.000 A 
ATOM     20  C   UNL     1      -5.510  14.658  22.993  0.00  0.00    +0.000 A 
BRANCH  15  22
ATOM     21  C   UNL     1      -7.917  12.439  23.436  0.00  0.00    +0.000 C 
ATOM     22  O   UNL     1      -7.159  13.329  24.243  0.00  0.00    +0.000 OA
ENDBRANCH  15  22
ENDBRANCH   1  18
BRANCH   2  23
ATOM     23  C   UNL     1      -0.888  15.251  23.810  0.00  0.00    +0.000 C 
ATOM     24  O   UNL     1      -0.890  14.897  24.969  0.00  0.00    +0.000 OA
BRANCH  23  25
ATOM     25  O   UNL     1      -0.913  16.579  23.499  0.00  0.00    +0.000 OA
ATOM     26  H   UNL     1      -0.907  16.751  22.526  0.00  0.00    +0.000 HD
ENDBRANCH  23  25
ENDBRANCH   2  23
BRANCH   5  27
ATOM     27  C   UNL     1       1.753  13.422  20.005  0.00  0.00    +0.000 C 
BRANCH  27  28
ATOM     28  C   UNL     1       1.779  14.703  19.226  0.00  0.00    +0.000 A 
ATOM     29  C   UNL     1       0.563  15.403  19.036  0.00  0.00    +0.000 A 
ATOM     30  C   UNL     1       0.511  16.628  18.368  0.00  0.00    +0.000 A 
ATOM     31  C   UNL     1       1.678  17.182  17.872  0.00  0.00    +0.000 A 
ATOM     32  C   UNL     1       2.878  16.499  18.025  0.00  0.00    +0.000 A 
ATOM     33  C   UNL     1       2.958  15.262  18.693  0.00  0.00    +0.000 A 
BRANCH  33  34
ATOM     34  O   UNL     1       4.247  14.817  18.682  0.00  0.00    +0.000 OA
ATOM     35  C   UNL     1       5.295  15.412  19.419  0.00  0.00    +0.000 C 
ENDBRANCH  33  34
ENDBRANCH  27  28
ENDBRANCH   5  27
TORSDOF 7
ENDMDL
MODEL 9
REMARK VINA RESULT:      -7.0      7.506      8.830
REMARK  Name = 
REMARK  9 active torsions:
REMARK  status: ('A' for Active; 'I' for Inactive)
REMARK    1  A    between atoms: C_1  and  O_2
REMARK    2  A    between atoms: O_2  and  C_3
REMARK    3  A    between atoms: C_6  and  C_7
REMARK    4  A    between atoms: C_8  and  C_9
REMARK    5  A    between atoms: C_9  and  O_11
REMARK    6  A    between atoms: N_14  and  C_15
REMARK    7  A    between atoms: C_15  and  C_16
REMARK    8  A    between atoms: C_21  and  O_22
REMARK    9  A    between atoms: O_22  and  C_23
REMARK                            x       y       z     vdW  Elec       q    Type
REMARK                         _______ _______ _______ _____ _____    ______ ____
ROOT
ATOM      1  C   UNL     1       4.562  14.690  20.652  0.00  0.00    +0.000 A 
ATOM      2  C   UNL     1       5.268  15.325  19.667  0.00  0.00    +0.000 A 
ATOM      3  C   UNL     1       6.766  15.430  19.724  0.00  0.00    +0.000 A 
ATOM      4  O   UNL     1       7.359  15.912  18.750  0.00  0.00    +0.000 OA
ATOM      5  N   UNL     1       7.439  15.032  20.865  0.00  0.00    +0.000 N 
ATOM      6  C   UNL     1       6.691  14.529  21.915  0.00  0.00    +0.000 A 
ATOM      7  C   UNL     1       5.362  14.195  21.741  0.00  0.00    +0.000 A 
ATOM      8  O   UNL     1       5.089  13.220  22.698  0.00  0.00    +0.000 OA
ATOM      9  C   UNL     1       6.192  13.148  23.528  0.00  0.00    +0.000 A 
ATOM     10  C   UNL     1       6.469  12.216  24.526  0.00  0.00    +0.000 A 
ATOM     11  C   UNL     1       7.605  12.462  25.320  0.00  0.00    +0.000 A 
ATOM     12  C   UNL     1       8.374  13.618  25.159  0.00  0.00    +0.000 A 
ATOM     13  C   UNL     1       8.134  14.474  24.083  0.00  0.00    +0.000 A 
ATOM     14  C   UNL     1       7.075  14.166  23.212  0.00  0.00    +0.000 A 
ENDROOT
BRANCH   1  18
ATOM     15  C   UNL     1       0.369  15.303  20.097  0.00  0.00    +0.000 A 
ATOM     16  C   UNL     1       0.977  14.145  19.610  0.00  0.00    +0.000 A 
ATOM     17  C   UNL     1       2.317  13.856  19.896  0.00  0.00    +0.000 A 
ATOM     18  C   UNL     1       3.082  14.759  20.644  0.00  0.00    +0.000 A 
ATOM     19  C   UNL     1       2.450  15.895  21.181  0.00  0.00    +0.000 A 
ATOM     20  C   UNL     1       1.104  16.171  20.904  0.00  0.00    +0.000 A 
BRANCH  15  22
ATOM     21  C   UNL     1      -1.704  16.408  20.429  0.00  0.00    +0.000 C 
ATOM     22  O   UNL     1      -0.913  15.510  19.663  0.00  0.00    +0.000 OA
ENDBRANCH  15  22
ENDBRANCH   1  18
BRANCH   2  23
ATOM     23  C   UNL     1       4.602  15.929  18.470  0.00  0.00    +0.000 C 
ATOM     24  O   UNL     1       4.175  17.061  18.398  0.00  0.00    +0.000 OA
BRANCH  23  25
ATOM     25  O   UNL     1       4.512  15.093  17.395  0.00  0.00    +0.000 OA
ATOM     26  H   UNL     1       3.589  14.790  17.214  0.00  0.00    +0.000 HD
ENDBRANCH  23  25
ENDBRANCH   2  23
BRANCH   5  27
ATOM     27  C   UNL     1       8.853  14.628  20.716  0.00  0.00    +0.000 C 
BRANCH  27  28
ATOM     28  C   UNL     1       9.141  13.245  20.212  0.00  0.00    +0.000 A 
ATOM     29  C   UNL     1       9.105  12.169  21.130  0.00  0.00    +0.000 A 
ATOM     30  C   UNL     1       9.311  10.848  20.731  0.00  0.00    +0.000 A 
ATOM     31  C   UNL     1       9.560  10.572  19.397  0.00  0.00    +0.000 A 
ATOM     32  C   UNL     1       9.624  11.616  18.484  0.00  0.00    +0.000 A 
ATOM     33  C   UNL     1       9.422  12.956  18.861  0.00  0.00    +0.000 A 
BRANCH  33  34
ATOM     34  O   UNL     1       9.556  13.766  17.771  0.00  0.00    +0.000 OA
ATOM     35  C   UNL     1      10.758  14.416  17.414  0.00  0.00    +0.000 C 
ENDBRANCH  33  34
ENDBRANCH  27  28
ENDBRANCH   5  27
TORSDOF 7
ENDMDL
