MODEL 1
REMARK VINA RESULT:      -7.7      0.000      0.000
REMARK  Name = 
REMARK  14 active torsions:
REMARK  status: ('A' for Active; 'I' for Inactive)
REMARK    1  A    between atoms: C_1  and  C_2
REMARK    2  A    between atoms: C_3  and  C_4
REMARK    3  A    between atoms: N_6  and  C_7
REMARK    4  A    between atoms: C_7  and  C_8
REMARK    5  A    between atoms: C_7  and  C_20
REMARK    6  A    between atoms: N_10  and  C_11
REMARK    7  A    between atoms: C_11  and  C_12
REMARK    8  A    between atoms: C_11  and  C_16
REMARK    9  A    between atoms: C_12  and  C_13
REMARK   10  A    between atoms: C_13  and  O_15
REMARK   11  A    between atoms: C_16  and  C_18
REMARK   12  A    between atoms: C_20  and  C_21
REMARK   13  A    between atoms: C_20  and  C_22
REMARK   14  A    between atoms: N_23  and  C_24
REMARK                            x       y       z     vdW  Elec       q    Type
REMARK                         _______ _______ _______ _____ _____    ______ ____
ROOT
ATOM      1  C   UNL     1       3.205   4.337  19.399  0.00  0.00    +0.000 C 
ENDROOT
BRANCH   1   4
ATOM      2  C   UNL     1       2.058   6.420  20.080  0.00  0.00    +0.000 C 
ATOM      3  O   UNL     1       1.466   5.694  20.886  0.00  0.00    +0.000 OA
ATOM      4  N   UNL     1       2.985   5.798  19.256  0.00  0.00    +0.000 N 
ATOM      5  H   UNL     1       3.569   6.328  18.635  0.00  0.00    +0.000 HD
BRANCH   2   8
ATOM      6  C   UNL     1       2.623   8.104  17.574  0.00  0.00    +0.000 C 
ATOM      7  C   UNL     1       2.011   8.596  18.848  0.00  0.00    +0.000 A 
ATOM      8  C   UNL     1       1.779   7.852  20.019  0.00  0.00    +0.000 A 
ATOM      9  N   UNL     1       1.170   8.732  20.904  0.00  0.00    +0.000 N 
ATOM     10  C   UNL     1       0.652   8.487  22.232  0.00  0.00    +0.000 C 
ATOM     11  C   UNL     1       0.976   9.980  20.305  0.00  0.00    +0.000 A 
ATOM     12  C   UNL     1       0.358  11.156  20.776  0.00  0.00    +0.000 A 
ATOM     13  C   UNL     1       0.291  12.264  19.924  0.00  0.00    +0.000 A 
ATOM     14  C   UNL     1       0.813  12.208  18.636  0.00  0.00    +0.000 A 
ATOM     15  C   UNL     1       1.414  11.037  18.176  0.00  0.00    +0.000 A 
ATOM     16  C   UNL     1       1.499   9.910  19.022  0.00  0.00    +0.000 A 
ENDBRANCH   2   8
ENDBRANCH   1   4
BRANCH   1  17
ATOM     17  C   UNL     1       4.723   4.012  19.234  0.00  0.00    +0.000 C 
ATOM     18  O   UNL     1       5.294   3.087  19.803  0.00  0.00    +0.000 OA
ATOM     19  N   UNL     1       5.393   4.842  18.372  0.00  0.00    +0.000 N 
ATOM     20  H   UNL     1       4.948   5.744  18.162  0.00  0.00    +0.000 HD
BRANCH  19  21
ATOM     21  C   UNL     1       6.772   4.690  17.896  0.00  0.00    +0.000 C 
BRANCH  21  22
ATOM     22  C   UNL     1       7.619   5.703  18.697  0.00  0.00    +0.000 C 
ATOM     23  O   UNL     1       8.111   5.414  19.792  0.00  0.00    +0.000 OA
BRANCH  22  24
ATOM     24  C   UNL     1       7.792   7.081  18.112  0.00  0.00    +0.000 C 
ATOM     25  F   UNL     1       8.699   7.813  18.819  0.00  0.00    +0.000 F 
ENDBRANCH  22  24
ENDBRANCH  21  22
BRANCH  21  26
ATOM     26  C   UNL     1       6.921   4.894  16.392  0.00  0.00    +0.000 C 
BRANCH  26  27
ATOM     27  C   UNL     1       5.609   5.304  15.776  0.00  0.00    +0.000 C 
ATOM     28  O   UNL     1       5.311   6.467  15.549  0.00  0.00    +0.000 OA
BRANCH  27  29
ATOM     29  O   UNL     1       4.781   4.271  15.515  0.00  0.00    +0.000 OA
ATOM     30  H   UNL     1       4.140   4.115  16.239  0.00  0.00    +0.000 HD
ENDBRANCH  27  29
ENDBRANCH  26  27
ENDBRANCH  21  26
ENDBRANCH  19  21
ENDBRANCH   1  17
BRANCH   1  31
ATOM     31  C   UNL     1       2.290   3.457  18.510  0.00  0.00    +0.000 C 
ATOM     32  C   UNL     1       1.560   4.295  17.453  0.00  0.00    +0.000 C 
ATOM     33  C   UNL     1       2.981   2.277  17.825  0.00  0.00    +0.000 C 
ENDBRANCH   1  31
TORSDOF 10
ENDMDL
MODEL 2
REMARK VINA RESULT:      -7.7      1.122      1.311
REMARK  Name = 
REMARK  14 active torsions:
REMARK  status: ('A' for Active; 'I' for Inactive)
REMARK    1  A    between atoms: C_1  and  C_2
REMARK    2  A    between atoms: C_3  and  C_4
REMARK    3  A    between atoms: N_6  and  C_7
REMARK    4  A    between atoms: C_7  and  C_8
REMARK    5  A    between atoms: C_7  and  C_20
REMARK    6  A    between atoms: N_10  and  C_11
REMARK    7  A    between atoms: C_11  and  C_12
REMARK    8  A    between atoms: C_11  and  C_16
REMARK    9  A    between atoms: C_12  and  C_13
REMARK   10  A    between atoms: C_13  and  O_15
REMARK   11  A    between atoms: C_16  and  C_18
REMARK   12  A    between atoms: C_20  and  C_21
REMARK   13  A    between atoms: C_20  and  C_22
REMARK   14  A    between atoms: N_23  and  C_24
REMARK                            x       y       z     vdW  Elec       q    Type
REMARK                         _______ _______ _______ _____ _____    ______ ____
ROOT
ATOM      1  C   UNL     1       3.230   5.030  19.570  0.00  0.00    +0.000 C 
ENDROOT
BRANCH   1   4
ATOM      2  C   UNL     1       1.933   7.009  20.290  0.00  0.00    +0.000 C 
ATOM      3  O   UNL     1       1.381   6.221  21.066  0.00  0.00    +0.000 OA
ATOM      4  N   UNL     1       2.911   6.475  19.464  0.00  0.00    +0.000 N 
ATOM      5  H   UNL     1       3.467   7.062  18.867  0.00  0.00    +0.000 HD
BRANCH   2   8
ATOM      6  C   UNL     1       1.757   8.622  17.682  0.00  0.00    +0.000 C 
ATOM      7  C   UNL     1       1.447   9.129  19.055  0.00  0.00    +0.000 A 
ATOM      8  C   UNL     1       1.558   8.420  20.264  0.00  0.00    +0.000 A 
ATOM      9  N   UNL     1       1.130   9.299  21.251  0.00  0.00    +0.000 N 
ATOM     10  C   UNL     1       0.970   9.079  22.672  0.00  0.00    +0.000 C 
ATOM     11  C   UNL     1       0.716  10.509  20.688  0.00  0.00    +0.000 A 
ATOM     12  C   UNL     1       0.159  11.668  21.268  0.00  0.00    +0.000 A 
ATOM     13  C   UNL     1      -0.184  12.736  20.432  0.00  0.00    +0.000 A 
ATOM     14  C   UNL     1       0.008  12.659  19.057  0.00  0.00    +0.000 A 
ATOM     15  C   UNL     1       0.551  11.505  18.491  0.00  0.00    +0.000 A 
ATOM     16  C   UNL     1       0.912  10.418  19.317  0.00  0.00    +0.000 A 
ENDBRANCH   2   8
ENDBRANCH   1   4
BRANCH   1  17
ATOM     17  C   UNL     1       4.656   4.757  18.998  0.00  0.00    +0.000 C 
ATOM     18  O   UNL     1       5.381   3.839  19.365  0.00  0.00    +0.000 OA
ATOM     19  N   UNL     1       5.051   5.629  18.014  0.00  0.00    +0.000 N 
ATOM     20  H   UNL     1       4.543   6.520  17.957  0.00  0.00    +0.000 HD
BRANCH  19  21
ATOM     21  C   UNL     1       6.257   5.532  17.184  0.00  0.00    +0.000 C 
BRANCH  21  22
ATOM     22  C   UNL     1       7.114   6.770  17.524  0.00  0.00    +0.000 C 
ATOM     23  O   UNL     1       7.090   7.788  16.826  0.00  0.00    +0.000 OA
BRANCH  22  24
ATOM     24  C   UNL     1       8.018   6.681  18.727  0.00  0.00    +0.000 C 
ATOM     25  F   UNL     1       8.763   7.812  18.878  0.00  0.00    +0.000 F 
ENDBRANCH  22  24
ENDBRANCH  21  22
BRANCH  21  26
ATOM     26  C   UNL     1       5.959   5.444  15.691  0.00  0.00    +0.000 C 
BRANCH  26  27
ATOM     27  C   UNL     1       5.965   4.011  15.228  0.00  0.00    +0.000 C 
ATOM     28  O   UNL     1       6.121   3.686  14.060  0.00  0.00    +0.000 OA
BRANCH  27  29
ATOM     29  O   UNL     1       5.761   3.116  16.217  0.00  0.00    +0.000 OA
ATOM     30  H   UNL     1       6.500   2.479  16.302  0.00  0.00    +0.000 HD
ENDBRANCH  27  29
ENDBRANCH  26  27
ENDBRANCH  21  26
ENDBRANCH  19  21
ENDBRANCH   1  17
BRANCH   1  31
ATOM     31  C   UNL     1       2.146   4.087  18.987  0.00  0.00    +0.000 C 
ATOM     32  C   UNL     1       1.699   4.540  17.592  0.00  0.00    +0.000 C 
ATOM     33  C   UNL     1       2.524   2.606  18.934  0.00  0.00    +0.000 C 
ENDBRANCH   1  31
TORSDOF 10
ENDMDL
MODEL 3
REMARK VINA RESULT:      -7.5      2.337      4.782
REMARK  Name = 
REMARK  14 active torsions:
REMARK  status: ('A' for Active; 'I' for Inactive)
REMARK    1  A    between atoms: C_1  and  C_2
REMARK    2  A    between atoms: C_3  and  C_4
REMARK    3  A    between atoms: N_6  and  C_7
REMARK    4  A    between atoms: C_7  and  C_8
REMARK    5  A    between atoms: C_7  and  C_20
REMARK    6  A    between atoms: N_10  and  C_11
REMARK    7  A    between atoms: C_11  and  C_12
REMARK    8  A    between atoms: C_11  and  C_16
REMARK    9  A    between atoms: C_12  and  C_13
REMARK   10  A    between atoms: C_13  and  O_15
REMARK   11  A    between atoms: C_16  and  C_18
REMARK   12  A    between atoms: C_20  and  C_21
REMARK   13  A    between atoms: C_20  and  C_22
REMARK   14  A    between atoms: N_23  and  C_24
REMARK                            x       y       z     vdW  Elec       q    Type
REMARK                         _______ _______ _______ _____ _____    ______ ____
ROOT
ATOM      1  C   UNL     1       5.129   6.175  17.438  0.00  0.00    +0.000 C 
ENDROOT
BRANCH   1   4
ATOM      2  C   UNL     1       3.171   7.591  17.968  0.00  0.00    +0.000 C 
ATOM      3  O   UNL     1       3.074   7.715  16.743  0.00  0.00    +0.000 OA
ATOM      4  N   UNL     1       4.221   6.806  18.427  0.00  0.00    +0.000 N 
ATOM      5  H   UNL     1       4.319   6.585  19.401  0.00  0.00    +0.000 HD
BRANCH   2   8
ATOM      6  C   UNL     1       1.981   6.182  20.425  0.00  0.00    +0.000 C 
ATOM      7  C   UNL     1       1.719   7.594  20.004  0.00  0.00    +0.000 A 
ATOM      8  C   UNL     1       2.222   8.245  18.864  0.00  0.00    +0.000 A 
ATOM      9  N   UNL     1       1.725   9.541  18.927  0.00  0.00    +0.000 N 
ATOM     10  C   UNL     1       1.977  10.665  18.051  0.00  0.00    +0.000 C 
ATOM     11  C   UNL     1       0.971   9.725  20.089  0.00  0.00    +0.000 A 
ATOM     12  C   UNL     1       0.324  10.863  20.613  0.00  0.00    +0.000 A 
ATOM     13  C   UNL     1      -0.349  10.748  21.834  0.00  0.00    +0.000 A 
ATOM     14  C   UNL     1      -0.374   9.541  22.526  0.00  0.00    +0.000 A 
ATOM     15  C   UNL     1       0.278   8.424  22.005  0.00  0.00    +0.000 A 
ATOM     16  C   UNL     1       0.956   8.516  20.770  0.00  0.00    +0.000 A 
ENDBRANCH   2   8
ENDBRANCH   1   4
BRANCH   1  17
ATOM     17  C   UNL     1       4.495   4.852  16.905  0.00  0.00    +0.000 C 
ATOM     18  O   UNL     1       4.747   4.361  15.809  0.00  0.00    +0.000 OA
ATOM     19  N   UNL     1       3.625   4.246  17.776  0.00  0.00    +0.000 N 
ATOM     20  H   UNL     1       3.243   4.833  18.528  0.00  0.00    +0.000 HD
BRANCH  19  21
ATOM     21  C   UNL     1       3.005   2.925  17.625  0.00  0.00    +0.000 C 
BRANCH  21  22
ATOM     22  C   UNL     1       1.488   3.138  17.814  0.00  0.00    +0.000 C 
ATOM     23  O   UNL     1       0.884   4.049  17.240  0.00  0.00    +0.000 OA
BRANCH  22  24
ATOM     24  C   UNL     1       0.768   2.213  18.761  0.00  0.00    +0.000 C 
ATOM     25  F   UNL     1       0.446   2.842  19.927  0.00  0.00    +0.000 F 
ENDBRANCH  22  24
ENDBRANCH  21  22
BRANCH  21  26
ATOM     26  C   UNL     1       3.554   1.883  18.593  0.00  0.00    +0.000 C 
BRANCH  26  27
ATOM     27  C   UNL     1       4.114   2.542  19.828  0.00  0.00    +0.000 C 
ATOM     28  O   UNL     1       3.459   2.725  20.843  0.00  0.00    +0.000 OA
BRANCH  27  29
ATOM     29  O   UNL     1       5.400   2.931  19.703  0.00  0.00    +0.000 OA
ATOM     30  H   UNL     1       5.600   3.279  18.809  0.00  0.00    +0.000 HD
ENDBRANCH  27  29
ENDBRANCH  26  27
ENDBRANCH  21  26
ENDBRANCH  19  21
ENDBRANCH   1  17
BRANCH   1  31
ATOM     31  C   UNL     1       6.591   6.001  17.924  0.00  0.00    +0.000 C 
ATOM     32  C   UNL     1       7.230   4.736  17.339  0.00  0.00    +0.000 C 
ATOM     33  C   UNL     1       7.514   7.193  17.668  0.00  0.00    +0.000 C 
ENDBRANCH   1  31
TORSDOF 10
ENDMDL
MODEL 4
REMARK VINA RESULT:      -7.4      0.665      1.823
REMARK  Name = 
REMARK  14 active torsions:
REMARK  status: ('A' for Active; 'I' for Inactive)
REMARK    1  A    between atoms: C_1  and  C_2
REMARK    2  A    between atoms: C_3  and  C_4
REMARK    3  A    between atoms: N_6  and  C_7
REMARK    4  A    between atoms: C_7  and  C_8
REMARK    5  A    between atoms: C_7  and  C_20
REMARK    6  A    between atoms: N_10  and  C_11
REMARK    7  A    between atoms: C_11  and  C_12
REMARK    8  A    between atoms: C_11  and  C_16
REMARK    9  A    between atoms: C_12  and  C_13
REMARK   10  A    between atoms: C_13  and  O_15
REMARK   11  A    between atoms: C_16  and  C_18
REMARK   12  A    between atoms: C_20  and  C_21
REMARK   13  A    between atoms: C_20  and  C_22
REMARK   14  A    between atoms: N_23  and  C_24
REMARK                            x       y       z     vdW  Elec       q    Type
REMARK                         _______ _______ _______ _____ _____    ______ ____
ROOT
ATOM      1  C   UNL     1       3.141   4.383  19.498  0.00  0.00    +0.000 C 
ENDROOT
BRANCH   1   4
ATOM      2  C   UNL     1       2.041   6.552  19.949  0.00  0.00    +0.000 C 
ATOM      3  O   UNL     1       1.545   5.968  20.919  0.00  0.00    +0.000 OA
ATOM      4  N   UNL     1       2.886   5.801  19.145  0.00  0.00    +0.000 N 
ATOM      5  H   UNL     1       3.397   6.222  18.389  0.00  0.00    +0.000 HD
BRANCH   2   8
ATOM      6  C   UNL     1       0.585   8.335  21.984  0.00  0.00    +0.000 C 
ATOM      7  C   UNL     1       1.104   8.763  20.647  0.00  0.00    +0.000 A 
ATOM      8  C   UNL     1       1.737   7.955  19.686  0.00  0.00    +0.000 A 
ATOM      9  N   UNL     1       2.058   8.808  18.638  0.00  0.00    +0.000 N 
ATOM     10  C   UNL     1       2.780   8.530  17.415  0.00  0.00    +0.000 C 
ATOM     11  C   UNL     1       1.687  10.121  18.937  0.00  0.00    +0.000 A 
ATOM     12  C   UNL     1       1.854  11.326  18.224  0.00  0.00    +0.000 A 
ATOM     13  C   UNL     1       1.390  12.514  18.799  0.00  0.00    +0.000 A 
ATOM     14  C   UNL     1       0.784  12.514  20.051  0.00  0.00    +0.000 A 
ATOM     15  C   UNL     1       0.632  11.319  20.753  0.00  0.00    +0.000 A 
ATOM     16  C   UNL     1       1.086  10.108  20.188  0.00  0.00    +0.000 A 
ENDBRANCH   2   8
ENDBRANCH   1   4
BRANCH   1  17
ATOM     17  C   UNL     1       4.655   4.053  19.309  0.00  0.00    +0.000 C 
ATOM     18  O   UNL     1       5.225   3.106  19.842  0.00  0.00    +0.000 OA
ATOM     19  N   UNL     1       5.323   4.907  18.468  0.00  0.00    +0.000 N 
ATOM     20  H   UNL     1       4.882   5.818  18.291  0.00  0.00    +0.000 HD
BRANCH  19  21
ATOM     21  C   UNL     1       6.697   4.761  17.974  0.00  0.00    +0.000 C 
BRANCH  21  22
ATOM     22  C   UNL     1       7.551   5.767  18.775  0.00  0.00    +0.000 C 
ATOM     23  O   UNL     1       7.964   5.509  19.910  0.00  0.00    +0.000 OA
BRANCH  22  24
ATOM     24  C   UNL     1       7.834   7.102  18.136  0.00  0.00    +0.000 C 
ATOM     25  F   UNL     1       8.735   7.823  18.862  0.00  0.00    +0.000 F 
ENDBRANCH  22  24
ENDBRANCH  21  22
BRANCH  21  26
ATOM     26  C   UNL     1       6.827   4.980  16.471  0.00  0.00    +0.000 C 
BRANCH  26  27
ATOM     27  C   UNL     1       5.504   5.378  15.871  0.00  0.00    +0.000 C 
ATOM     28  O   UNL     1       5.216   6.532  15.593  0.00  0.00    +0.000 OA
BRANCH  27  29
ATOM     29  O   UNL     1       4.654   4.345  15.689  0.00  0.00    +0.000 OA
ATOM     30  H   UNL     1       4.696   3.983  14.779  0.00  0.00    +0.000 HD
ENDBRANCH  27  29
ENDBRANCH  26  27
ENDBRANCH  21  26
ENDBRANCH  19  21
ENDBRANCH   1  17
BRANCH   1  31
ATOM     31  C   UNL     1       2.201   3.366  18.802  0.00  0.00    +0.000 C 
ATOM     32  C   UNL     1       1.191   2.769  19.789  0.00  0.00    +0.000 C 
ATOM     33  C   UNL     1       1.452   3.896  17.579  0.00  0.00    +0.000 C 
ENDBRANCH   1  31
TORSDOF 10
ENDMDL
MODEL 5
REMARK VINA RESULT:      -7.4      1.388      2.342
REMARK  Name = 
REMARK  14 active torsions:
REMARK  status: ('A' for Active; 'I' for Inactive)
REMARK    1  A    between atoms: C_1  and  C_2
REMARK    2  A    between atoms: C_3  and  C_4
REMARK    3  A    between atoms: N_6  and  C_7
REMARK    4  A    between atoms: C_7  and  C_8
REMARK    5  A    between atoms: C_7  and  C_20
REMARK    6  A    between atoms: N_10  and  C_11
REMARK    7  A    between atoms: C_11  and  C_12
REMARK    8  A    between atoms: C_11  and  C_16
REMARK    9  A    between atoms: C_12  and  C_13
REMARK   10  A    between atoms: C_13  and  O_15
REMARK   11  A    between atoms: C_16  and  C_18
REMARK   12  A    between atoms: C_20  and  C_21
REMARK   13  A    between atoms: C_20  and  C_22
REMARK   14  A    between atoms: N_23  and  C_24
REMARK                            x       y       z     vdW  Elec       q    Type
REMARK                         _______ _______ _______ _____ _____    ______ ____
ROOT
ATOM      1  C   UNL     1       2.729   5.378  19.441  0.00  0.00    +0.000 C 
ENDROOT
BRANCH   1   4
ATOM      2  C   UNL     1       1.654   7.489  20.155  0.00  0.00    +0.000 C 
ATOM      3  O   UNL     1       1.301   6.839  21.145  0.00  0.00    +0.000 OA
ATOM      4  N   UNL     1       2.402   6.806  19.206  0.00  0.00    +0.000 N 
ATOM      5  H   UNL     1       2.801   7.281  18.416  0.00  0.00    +0.000 HD
BRANCH   2   8
ATOM      6  C   UNL     1       0.427   9.114  22.455  0.00  0.00    +0.000 C 
ATOM      7  C   UNL     1       0.766   9.631  21.093  0.00  0.00    +0.000 A 
ATOM      8  C   UNL     1       1.292   8.896  20.015  0.00  0.00    +0.000 A 
ATOM      9  N   UNL     1       1.462   9.814  18.987  0.00  0.00    +0.000 N 
ATOM     10  C   UNL     1       2.032   9.625  17.670  0.00  0.00    +0.000 C 
ATOM     11  C   UNL     1       1.104  11.098  19.407  0.00  0.00    +0.000 A 
ATOM     12  C   UNL     1       1.156  12.345  18.751  0.00  0.00    +0.000 A 
ATOM     13  C   UNL     1       0.743  13.486  19.447  0.00  0.00    +0.000 A 
ATOM     14  C   UNL     1       0.298  13.399  20.763  0.00  0.00    +0.000 A 
ATOM     15  C   UNL     1       0.259  12.163  21.406  0.00  0.00    +0.000 A 
ATOM     16  C   UNL     1       0.664  10.998  20.719  0.00  0.00    +0.000 A 
ENDBRANCH   2   8
ENDBRANCH   1   4
BRANCH   1  17
ATOM     17  C   UNL     1       4.179   5.077  18.948  0.00  0.00    +0.000 C 
ATOM     18  O   UNL     1       4.951   4.306  19.508  0.00  0.00    +0.000 OA
ATOM     19  N   UNL     1       4.538   5.739  17.801  0.00  0.00    +0.000 N 
ATOM     20  H   UNL     1       3.979   6.564  17.551  0.00  0.00    +0.000 HD
BRANCH  19  21
ATOM     21  C   UNL     1       5.762   5.540  17.016  0.00  0.00    +0.000 C 
BRANCH  21  22
ATOM     22  C   UNL     1       6.747   6.640  17.469  0.00  0.00    +0.000 C 
ATOM     23  O   UNL     1       6.765   7.753  16.936  0.00  0.00    +0.000 OA
BRANCH  22  24
ATOM     24  C   UNL     1       7.720   6.293  18.566  0.00  0.00    +0.000 C 
ATOM     25  F   UNL     1       8.576   7.323  18.819  0.00  0.00    +0.000 F 
ENDBRANCH  22  24
ENDBRANCH  21  22
BRANCH  21  26
ATOM     26  C   UNL     1       5.529   5.575  15.510  0.00  0.00    +0.000 C 
BRANCH  26  27
ATOM     27  C   UNL     1       6.615   4.827  14.782  0.00  0.00    +0.000 C 
ATOM     28  O   UNL     1       7.656   5.350  14.413  0.00  0.00    +0.000 OA
BRANCH  27  29
ATOM     29  O   UNL     1       6.326   3.529  14.555  0.00  0.00    +0.000 OA
ATOM     30  H   UNL     1       7.110   3.016  14.266  0.00  0.00    +0.000 HD
ENDBRANCH  27  29
ENDBRANCH  26  27
ENDBRANCH  21  26
ENDBRANCH  19  21
ENDBRANCH   1  17
BRANCH   1  31
ATOM     31  C   UNL     1       1.677   4.378  18.897  0.00  0.00    +0.000 C 
ATOM     32  C   UNL     1       2.281   3.453  17.833  0.00  0.00    +0.000 C 
ATOM     33  C   UNL     1       0.969   3.530  19.954  0.00  0.00    +0.000 C 
ENDBRANCH   1  31
TORSDOF 10
ENDMDL
MODEL 6
REMARK VINA RESULT:      -7.3      1.099      1.285
REMARK  Name = 
REMARK  14 active torsions:
REMARK  status: ('A' for Active; 'I' for Inactive)
REMARK    1  A    between atoms: C_1  and  C_2
REMARK    2  A    between atoms: C_3  and  C_4
REMARK    3  A    between atoms: N_6  and  C_7
REMARK    4  A    between atoms: C_7  and  C_8
REMARK    5  A    between atoms: C_7  and  C_20
REMARK    6  A    between atoms: N_10  and  C_11
REMARK    7  A    between atoms: C_11  and  C_12
REMARK    8  A    between atoms: C_11  and  C_16
REMARK    9  A    between atoms: C_12  and  C_13
REMARK   10  A    between atoms: C_13  and  O_15
REMARK   11  A    between atoms: C_16  and  C_18
REMARK   12  A    between atoms: C_20  and  C_21
REMARK   13  A    between atoms: C_20  and  C_22
REMARK   14  A    between atoms: N_23  and  C_24
REMARK                            x       y       z     vdW  Elec       q    Type
REMARK                         _______ _______ _______ _____ _____    ______ ____
ROOT
ATOM      1  C   UNL     1       2.964   4.334  19.486  0.00  0.00    +0.000 C 
ENDROOT
BRANCH   1   4
ATOM      2  C   UNL     1       2.040   6.483  20.291  0.00  0.00    +0.000 C 
ATOM      3  O   UNL     1       1.918   5.894  21.370  0.00  0.00    +0.000 OA
ATOM      4  N   UNL     1       2.574   5.745  19.244  0.00  0.00    +0.000 N 
ATOM      5  H   UNL     1       2.787   6.172  18.360  0.00  0.00    +0.000 HD
BRANCH   2   8
ATOM      6  C   UNL     1       2.784   8.177  17.838  0.00  0.00    +0.000 C 
ATOM      7  C   UNL     1       1.955   8.624  19.002  0.00  0.00    +0.000 A 
ATOM      8  C   UNL     1       1.636   7.878  20.150  0.00  0.00    +0.000 A 
ATOM      9  N   UNL     1       0.827   8.707  20.918  0.00  0.00    +0.000 N 
ATOM     10  C   UNL     1       0.155   8.432  22.169  0.00  0.00    +0.000 C 
ATOM     11  C   UNL     1       0.599   9.920  20.262  0.00  0.00    +0.000 A 
ATOM     12  C   UNL     1      -0.189  11.036  20.610  0.00  0.00    +0.000 A 
ATOM     13  C   UNL     1      -0.243  12.119  19.725  0.00  0.00    +0.000 A 
ATOM     14  C   UNL     1       0.457  12.096  18.523  0.00  0.00    +0.000 A 
ATOM     15  C   UNL     1       1.226  10.983  18.184  0.00  0.00    +0.000 A 
ATOM     16  C   UNL     1       1.301   9.883  19.066  0.00  0.00    +0.000 A 
ENDBRANCH   2   8
ENDBRANCH   1   4
BRANCH   1  17
ATOM     17  C   UNL     1       4.392   4.072  18.914  0.00  0.00    +0.000 C 
ATOM     18  O   UNL     1       5.189   3.271  19.392  0.00  0.00    +0.000 OA
ATOM     19  N   UNL     1       4.701   4.806  17.796  0.00  0.00    +0.000 N 
ATOM     20  H   UNL     1       4.130   5.642  17.622  0.00  0.00    +0.000 HD
BRANCH  19  21
ATOM     21  C   UNL     1       5.891   4.663  16.950  0.00  0.00    +0.000 C 
BRANCH  21  22
ATOM     22  C   UNL     1       7.057   5.302  17.735  0.00  0.00    +0.000 C 
ATOM     23  O   UNL     1       7.939   4.616  18.259  0.00  0.00    +0.000 OA
BRANCH  22  24
ATOM     24  C   UNL     1       7.061   6.802  17.875  0.00  0.00    +0.000 C 
ATOM     25  F   UNL     1       7.969   7.381  17.038  0.00  0.00    +0.000 F 
ENDBRANCH  22  24
ENDBRANCH  21  22
BRANCH  21  26
ATOM     26  C   UNL     1       5.730   5.288  15.568  0.00  0.00    +0.000 C 
BRANCH  26  27
ATOM     27  C   UNL     1       6.766   4.751  14.614  0.00  0.00    +0.000 C 
ATOM     28  O   UNL     1       7.758   5.381  14.280  0.00  0.00    +0.000 OA
BRANCH  27  29
ATOM     29  O   UNL     1       6.487   3.517  14.144  0.00  0.00    +0.000 OA
ATOM     30  H   UNL     1       5.724   3.516  13.528  0.00  0.00    +0.000 HD
ENDBRANCH  27  29
ENDBRANCH  26  27
ENDBRANCH  21  26
ENDBRANCH  19  21
ENDBRANCH   1  17
BRANCH   1  31
ATOM     31  C   UNL     1       1.918   3.288  19.023  0.00  0.00    +0.000 C 
ATOM     32  C   UNL     1       0.992   2.873  20.173  0.00  0.00    +0.000 C 
ATOM     33  C   UNL     1       1.068   3.698  17.820  0.00  0.00    +0.000 C 
ENDBRANCH   1  31
TORSDOF 10
ENDMDL
MODEL 7
REMARK VINA RESULT:      -7.2      1.026      2.001
REMARK  Name = 
REMARK  14 active torsions:
REMARK  status: ('A' for Active; 'I' for Inactive)
REMARK    1  A    between atoms: C_1  and  C_2
REMARK    2  A    between atoms: C_3  and  C_4
REMARK    3  A    between atoms: N_6  and  C_7
REMARK    4  A    between atoms: C_7  and  C_8
REMARK    5  A    between atoms: C_7  and  C_20
REMARK    6  A    between atoms: N_10  and  C_11
REMARK    7  A    between atoms: C_11  and  C_12
REMARK    8  A    between atoms: C_11  and  C_16
REMARK    9  A    between atoms: C_12  and  C_13
REMARK   10  A    between atoms: C_13  and  O_15
REMARK   11  A    between atoms: C_16  and  C_18
REMARK   12  A    between atoms: C_20  and  C_21
REMARK   13  A    between atoms: C_20  and  C_22
REMARK   14  A    between atoms: N_23  and  C_24
REMARK                            x       y       z     vdW  Elec       q    Type
REMARK                         _______ _______ _______ _____ _____    ______ ____
ROOT
ATOM      1  C   UNL     1       2.990   4.986  20.085  0.00  0.00    +0.000 C 
ENDROOT
BRANCH   1   4
ATOM      2  C   UNL     1       1.718   7.092  20.352  0.00  0.00    +0.000 C 
ATOM      3  O   UNL     1       1.058   6.453  21.178  0.00  0.00    +0.000 OA
ATOM      4  N   UNL     1       2.749   6.405  19.725  0.00  0.00    +0.000 N 
ATOM      5  H   UNL     1       3.386   6.874  19.106  0.00  0.00    +0.000 HD
BRANCH   2   8
ATOM      6  C   UNL     1       0.662   9.016  22.502  0.00  0.00    +0.000 C 
ATOM      7  C   UNL     1       0.965   9.363  21.078  0.00  0.00    +0.000 A 
ATOM      8  C   UNL     1       1.411   8.491  20.070  0.00  0.00    +0.000 A 
ATOM      9  N   UNL     1       1.577   9.282  18.941  0.00  0.00    +0.000 N 
ATOM     10  C   UNL     1       2.082   8.923  17.633  0.00  0.00    +0.000 C 
ATOM     11  C   UNL     1       1.294  10.620  19.228  0.00  0.00    +0.000 A 
ATOM     12  C   UNL     1       1.372  11.783  18.436  0.00  0.00    +0.000 A 
ATOM     13  C   UNL     1       1.039  13.012  19.016  0.00  0.00    +0.000 A 
ATOM     14  C   UNL     1       0.647  13.091  20.349  0.00  0.00    +0.000 A 
ATOM     15  C   UNL     1       0.582  11.936  21.127  0.00  0.00    +0.000 A 
ATOM     16  C   UNL     1       0.906  10.684  20.559  0.00  0.00    +0.000 A 
ENDBRANCH   2   8
ENDBRANCH   1   4
BRANCH   1  17
ATOM     17  C   UNL     1       4.366   4.521  19.515  0.00  0.00    +0.000 C 
ATOM     18  O   UNL     1       4.878   3.432  19.755  0.00  0.00    +0.000 OA
ATOM     19  N   UNL     1       4.976   5.430  18.688  0.00  0.00    +0.000 N 
ATOM     20  H   UNL     1       4.655   6.403  18.756  0.00  0.00    +0.000 HD
BRANCH  19  21
ATOM     21  C   UNL     1       6.185   5.216  17.884  0.00  0.00    +0.000 C 
BRANCH  21  22
ATOM     22  C   UNL     1       7.316   5.990  18.594  0.00  0.00    +0.000 C 
ATOM     23  O   UNL     1       7.813   5.589  19.651  0.00  0.00    +0.000 OA
BRANCH  22  24
ATOM     24  C   UNL     1       7.772   7.284  17.970  0.00  0.00    +0.000 C 
ATOM     25  F   UNL     1       8.676   7.930  18.760  0.00  0.00    +0.000 F 
ENDBRANCH  22  24
ENDBRANCH  21  22
BRANCH  21  26
ATOM     26  C   UNL     1       6.031   5.649  16.430  0.00  0.00    +0.000 C 
BRANCH  26  27
ATOM     27  C   UNL     1       5.840   4.453  15.533  0.00  0.00    +0.000 C 
ATOM     28  O   UNL     1       5.838   4.526  14.314  0.00  0.00    +0.000 OA
BRANCH  27  29
ATOM     29  O   UNL     1       5.651   3.295  16.200  0.00  0.00    +0.000 OA
ATOM     30  H   UNL     1       5.077   2.671  15.708  0.00  0.00    +0.000 HD
ENDBRANCH  27  29
ENDBRANCH  26  27
ENDBRANCH  21  26
ENDBRANCH  19  21
ENDBRANCH   1  17
BRANCH   1  31
ATOM     31  C   UNL     1       1.825   4.025  19.734  0.00  0.00    +0.000 C 
ATOM     32  C   UNL     1       1.883   3.587  18.266  0.00  0.00    +0.000 C 
ATOM     33  C   UNL     1       1.706   2.786  20.622  0.00  0.00    +0.000 C 
ENDBRANCH   1  31
TORSDOF 10
ENDMDL
MODEL 8
REMARK VINA RESULT:      -7.2      1.967      3.319
REMARK  Name = 
REMARK  14 active torsions:
REMARK  status: ('A' for Active; 'I' for Inactive)
REMARK    1  A    between atoms: C_1  and  C_2
REMARK    2  A    between atoms: C_3  and  C_4
REMARK    3  A    between atoms: N_6  and  C_7
REMARK    4  A    between atoms: C_7  and  C_8
REMARK    5  A    between atoms: C_7  and  C_20
REMARK    6  A    between atoms: N_10  and  C_11
REMARK    7  A    between atoms: C_11  and  C_12
REMARK    8  A    between atoms: C_11  and  C_16
REMARK    9  A    between atoms: C_12  and  C_13
REMARK   10  A    between atoms: C_13  and  O_15
REMARK   11  A    between atoms: C_16  and  C_18
REMARK   12  A    between atoms: C_20  and  C_21
REMARK   13  A    between atoms: C_20  and  C_22
REMARK   14  A    between atoms: N_23  and  C_24
REMARK                            x       y       z     vdW  Elec       q    Type
REMARK                         _______ _______ _______ _____ _____    ______ ____
ROOT
ATOM      1  C   UNL     1       3.098   6.230  18.307  0.00  0.00    +0.000 C 
ENDROOT
BRANCH   1   4
ATOM      2  C   UNL     1       1.935   8.067  19.487  0.00  0.00    +0.000 C 
ATOM      3  O   UNL     1       2.286   7.475  20.513  0.00  0.00    +0.000 OA
ATOM      4  N   UNL     1       2.311   7.487  18.283  0.00  0.00    +0.000 N 
ATOM      5  H   UNL     1       2.141   7.948  17.406  0.00  0.00    +0.000 HD
BRANCH   2   8
ATOM      6  C   UNL     1      -0.329   8.484  21.520  0.00  0.00    +0.000 C 
ATOM      7  C   UNL     1       0.161   9.490  20.527  0.00  0.00    +0.000 A 
ATOM      8  C   UNL     1       1.168   9.307  19.563  0.00  0.00    +0.000 A 
ATOM      9  N   UNL     1       1.282  10.526  18.908  0.00  0.00    +0.000 N 
ATOM     10  C   UNL     1       2.208  10.931  17.872  0.00  0.00    +0.000 C 
ATOM     11  C   UNL     1       0.413  11.469  19.465  0.00  0.00    +0.000 A 
ATOM     12  C   UNL     1       0.211  12.836  19.182  0.00  0.00    +0.000 A 
ATOM     13  C   UNL     1      -0.732  13.542  19.936  0.00  0.00    +0.000 A 
ATOM     14  C   UNL     1      -1.451  12.918  20.950  0.00  0.00    +0.000 A 
ATOM     15  C   UNL     1      -1.237  11.568  21.228  0.00  0.00    +0.000 A 
ATOM     16  C   UNL     1      -0.296  10.834  20.474  0.00  0.00    +0.000 A 
ENDBRANCH   2   8
ENDBRANCH   1   4
BRANCH   1  17
ATOM     17  C   UNL     1       4.383   6.392  17.436  0.00  0.00    +0.000 C 
ATOM     18  O   UNL     1       4.398   6.897  16.318  0.00  0.00    +0.000 OA
ATOM     19  N   UNL     1       5.533   5.935  18.028  0.00  0.00    +0.000 N 
ATOM     20  H   UNL     1       5.419   5.279  18.811  0.00  0.00    +0.000 HD
BRANCH  19  21
ATOM     21  C   UNL     1       6.904   6.095  17.530  0.00  0.00    +0.000 C 
BRANCH  21  22
ATOM     22  C   UNL     1       7.362   4.694  17.072  0.00  0.00    +0.000 C 
ATOM     23  O   UNL     1       8.264   4.083  17.654  0.00  0.00    +0.000 OA
BRANCH  22  24
ATOM     24  C   UNL     1       6.693   4.106  15.856  0.00  0.00    +0.000 C 
ATOM     25  F   UNL     1       6.842   4.910  14.765  0.00  0.00    +0.000 F 
ENDBRANCH  22  24
ENDBRANCH  21  22
BRANCH  21  26
ATOM     26  C   UNL     1       7.857   6.692  18.559  0.00  0.00    +0.000 C 
BRANCH  26  27
ATOM     27  C   UNL     1       8.178   8.126  18.223  0.00  0.00    +0.000 C 
ATOM     28  O   UNL     1       7.778   8.681  17.211  0.00  0.00    +0.000 OA
BRANCH  27  29
ATOM     29  O   UNL     1       8.966   8.736  19.132  0.00  0.00    +0.000 OA
ATOM     30  H   UNL     1       8.807   8.411  20.043  0.00  0.00    +0.000 HD
ENDBRANCH  27  29
ENDBRANCH  26  27
ENDBRANCH  21  26
ENDBRANCH  19  21
ENDBRANCH   1  17
BRANCH   1  31
ATOM     31  C   UNL     1       2.286   4.954  17.967  0.00  0.00    +0.000 C 
ATOM     32  C   UNL     1       3.166   3.889  17.303  0.00  0.00    +0.000 C 
ATOM     33  C   UNL     1       1.535   4.322  19.140  0.00  0.00    +0.000 C 
ENDBRANCH   1  31
TORSDOF 10
ENDMDL
MODEL 9
REMARK VINA RESULT:      -7.2      2.424      4.728
REMARK  Name = 
REMARK  14 active torsions:
REMARK  status: ('A' for Active; 'I' for Inactive)
REMARK    1  A    between atoms: C_1  and  C_2
REMARK    2  A    between atoms: C_3  and  C_4
REMARK    3  A    between atoms: N_6  and  C_7
REMARK    4  A    between atoms: C_7  and  C_8
REMARK    5  A    between atoms: C_7  and  C_20
REMARK    6  A    between atoms: N_10  and  C_11
REMARK    7  A    between atoms: C_11  and  C_12
REMARK    8  A    between atoms: C_11  and  C_16
REMARK    9  A    between atoms: C_12  and  C_13
REMARK   10  A    between atoms: C_13  and  O_15
REMARK   11  A    between atoms: C_16  and  C_18
REMARK   12  A    between atoms: C_20  and  C_21
REMARK   13  A    between atoms: C_20  and  C_22
REMARK   14  A    between atoms: N_23  and  C_24
REMARK                            x       y       z     vdW  Elec       q    Type
REMARK                         _______ _______ _______ _____ _____    ______ ____
ROOT
ATOM      1  C   UNL     1       4.322   6.066  17.523  0.00  0.00    +0.000 C 
ENDROOT
BRANCH   1   4
ATOM      2  C   UNL     1       2.748   7.826  18.264  0.00  0.00    +0.000 C 
ATOM      3  O   UNL     1       2.977   8.333  17.162  0.00  0.00    +0.000 OA
ATOM      4  N   UNL     1       3.411   6.639  18.545  0.00  0.00    +0.000 N 
ATOM      5  H   UNL     1       3.215   6.118  19.382  0.00  0.00    +0.000 HD
BRANCH   2   8
ATOM      6  C   UNL     1       1.932   6.510  20.918  0.00  0.00    +0.000 C 
ATOM      7  C   UNL     1       1.497   7.856  20.429  0.00  0.00    +0.000 A 
ATOM      8  C   UNL     1       1.827   8.459  19.203  0.00  0.00    +0.000 A 
ATOM      9  N   UNL     1       1.215   9.706  19.225  0.00  0.00    +0.000 N 
ATOM     10  C   UNL     1       1.274  10.777  18.254  0.00  0.00    +0.000 C 
ATOM     11  C   UNL     1       0.557   9.912  20.441  0.00  0.00    +0.000 A 
ATOM     12  C   UNL     1      -0.146  11.024  20.947  0.00  0.00    +0.000 A 
ATOM     13  C   UNL     1      -0.689  10.944  22.234  0.00  0.00    +0.000 A 
ATOM     14  C   UNL     1      -0.533   9.797  23.006  0.00  0.00    +0.000 A 
ATOM     15  C   UNL     1       0.173   8.706  22.501  0.00  0.00    +0.000 A 
ATOM     16  C   UNL     1       0.721   8.762  21.202  0.00  0.00    +0.000 A 
ENDBRANCH   2   8
ENDBRANCH   1   4
BRANCH   1  17
ATOM     17  C   UNL     1       3.840   4.636  17.126  0.00  0.00    +0.000 C 
ATOM     18  O   UNL     1       4.244   4.022  16.143  0.00  0.00    +0.000 OA
ATOM     19  N   UNL     1       2.922   4.085  17.984  0.00  0.00    +0.000 N 
ATOM     20  H   UNL     1       2.421   4.736  18.601  0.00  0.00    +0.000 HD
BRANCH  19  21
ATOM     21  C   UNL     1       2.412   2.710  17.964  0.00  0.00    +0.000 C 
BRANCH  21  22
ATOM     22  C   UNL     1       1.054   2.743  18.698  0.00  0.00    +0.000 C 
ATOM     23  O   UNL     1       0.154   1.941  18.435  0.00  0.00    +0.000 OA
BRANCH  22  24
ATOM     24  C   UNL     1       0.849   3.822  19.730  0.00  0.00    +0.000 C 
ATOM     25  F   UNL     1       0.681   3.298  20.977  0.00  0.00    +0.000 F 
ENDBRANCH  22  24
ENDBRANCH  21  22
BRANCH  21  26
ATOM     26  C   UNL     1       3.367   1.699  18.588  0.00  0.00    +0.000 C 
BRANCH  26  27
ATOM     27  C   UNL     1       4.122   2.315  19.737  0.00  0.00    +0.000 C 
ATOM     28  O   UNL     1       3.627   2.505  20.838  0.00  0.00    +0.000 OA
BRANCH  27  29
ATOM     29  O   UNL     1       5.391   2.660  19.434  0.00  0.00    +0.000 OA
ATOM     30  H   UNL     1       6.012   1.905  19.511  0.00  0.00    +0.000 HD
ENDBRANCH  27  29
ENDBRANCH  26  27
ENDBRANCH  21  26
ENDBRANCH  19  21
ENDBRANCH   1  17
BRANCH   1  31
ATOM     31  C   UNL     1       5.825   6.125  17.895  0.00  0.00    +0.000 C 
ATOM     32  C   UNL     1       6.096   5.454  19.247  0.00  0.00    +0.000 C 
ATOM     33  C   UNL     1       6.782   5.550  16.850  0.00  0.00    +0.000 C 
ENDBRANCH   1  31
TORSDOF 10
ENDMDL
