MODEL 1
REMARK VINA RESULT:      -7.6      0.000      0.000
REMARK  Name = 
REMARK  6 active torsions:
REMARK  status: ('A' for Active; 'I' for Inactive)
REMARK    1  A    between atoms: C_2  and  O_3
REMARK    2  A    between atoms: C_2  and  C_4
REMARK    3  A    between atoms: C_11  and  C_12
REMARK    4  A    between atoms: C_12  and  O_13
REMARK    5  A    between atoms: O_13  and  C_14
REMARK    6  A    between atoms: C_14  and  C_15
REMARK                            x       y       z     vdW  Elec       q    Type
REMARK                         _______ _______ _______ _____ _____    ______ ____
ROOT
ATOM      1  C   UNL     1       3.902   3.450  18.898  0.00  0.00    +0.000 A 
ATOM      2  C   UNL     1       4.146   4.044  17.641  0.00  0.00    +0.000 A 
ATOM      3  N   UNL     1       3.617   5.263  17.522  0.00  0.00    +0.000 NA
ATOM      4  N   UNL     1       3.051   5.503  18.734  0.00  0.00    +0.000 N 
ATOM      5  C   UNL     1       2.426   6.744  19.061  0.00  0.00    +0.000 A 
ATOM      6  C   UNL     1       2.336   7.736  18.087  0.00  0.00    +0.000 A 
ATOM      7  C   UNL     1       1.759   8.956  18.429  0.00  0.00    +0.000 A 
ATOM      8  C   UNL     1       1.294   9.168  19.729  0.00  0.00    +0.000 A 
ATOM      9  C   UNL     1       1.420   8.116  20.631  0.00  0.00    +0.000 A 
ATOM     10  N   UNL     1       1.960   6.910  20.329  0.00  0.00    +0.000 NA
ATOM     11  C   UNL     1       3.186   4.416  19.578  0.00  0.00    +0.000 A 
ENDROOT
BRANCH   1  13
ATOM     12  O   UNL     1       4.971   1.948  20.354  0.00  0.00    +0.000 OA
ATOM     13  C   UNL     1       4.336   2.135  19.326  0.00  0.00    +0.000 C 
BRANCH  13  14
ATOM     14  O   UNL     1       3.997   1.111  18.502  0.00  0.00    +0.000 OA
ATOM     15  H   UNL     1       4.517   0.304  18.657  0.00  0.00    +0.000 HD
ENDBRANCH  13  14
ENDBRANCH   1  13
BRANCH   8  16
ATOM     16  C   UNL     1       0.678  10.471  20.147  0.00  0.00    +0.000 C 
BRANCH  16  17
ATOM     17  O   UNL     1      -0.737  10.316  20.148  0.00  0.00    +0.000 OA
BRANCH  17  18
ATOM     18  C   UNL     1      -1.402  11.465  19.619  0.00  0.00    +0.000 C 
BRANCH  18  19
ATOM     19  C   UNL     1      -2.242  11.110  18.413  0.00  0.00    +0.000 A 
ATOM     20  C   UNL     1      -1.718  10.337  17.362  0.00  0.00    +0.000 A 
ATOM     21  C   UNL     1      -2.501   9.990  16.259  0.00  0.00    +0.000 A 
ATOM     22  C   UNL     1      -3.826  10.411  16.183  0.00  0.00    +0.000 A 
ATOM     23  C   UNL     1      -4.364  11.185  17.209  0.00  0.00    +0.000 A 
ATOM     24  C   UNL     1      -3.579  11.534  18.314  0.00  0.00    +0.000 A 
ATOM     25 CL   UNL     1      -4.315  12.499  19.546  0.00  0.00    +0.000 Cl
ENDBRANCH  18  19
ENDBRANCH  17  18
ENDBRANCH  16  17
ENDBRANCH   8  16
TORSDOF 6
ENDMDL
MODEL 2
REMARK VINA RESULT:      -7.5      3.859      8.544
REMARK  Name = 
REMARK  6 active torsions:
REMARK  status: ('A' for Active; 'I' for Inactive)
REMARK    1  A    between atoms: C_2  and  O_3
REMARK    2  A    between atoms: C_2  and  C_4
REMARK    3  A    between atoms: C_11  and  C_12
REMARK    4  A    between atoms: C_12  and  O_13
REMARK    5  A    between atoms: O_13  and  C_14
REMARK    6  A    between atoms: C_14  and  C_15
REMARK                            x       y       z     vdW  Elec       q    Type
REMARK                         _______ _______ _______ _____ _____    ______ ____
ROOT
ATOM      1  C   UNL     1       0.539   9.760  21.643  0.00  0.00    +0.000 A 
ATOM      2  C   UNL     1       0.706  10.277  20.340  0.00  0.00    +0.000 A 
ATOM      3  N   UNL     1       1.274   9.411  19.499  0.00  0.00    +0.000 NA
ATOM      4  N   UNL     1       1.446   8.285  20.241  0.00  0.00    +0.000 N 
ATOM      5  C   UNL     1       1.969   7.074  19.695  0.00  0.00    +0.000 A 
ATOM      6  C   UNL     1       2.377   7.051  18.363  0.00  0.00    +0.000 A 
ATOM      7  C   UNL     1       2.849   5.854  17.831  0.00  0.00    +0.000 A 
ATOM      8  C   UNL     1       2.897   4.708  18.628  0.00  0.00    +0.000 A 
ATOM      9  C   UNL     1       2.475   4.830  19.948  0.00  0.00    +0.000 A 
ATOM     10  N   UNL     1       2.026   5.981  20.504  0.00  0.00    +0.000 NA
ATOM     11  C   UNL     1       1.033   8.474  21.547  0.00  0.00    +0.000 A 
ENDROOT
BRANCH   1  13
ATOM     12  O   UNL     1      -0.307  11.649  22.754  0.00  0.00    +0.000 OA
ATOM     13  C   UNL     1      -0.037  10.457  22.776  0.00  0.00    +0.000 C 
BRANCH  13  14
ATOM     14  O   UNL     1      -0.252   9.698  23.880  0.00  0.00    +0.000 OA
ATOM     15  H   UNL     1       0.482   9.727  24.517  0.00  0.00    +0.000 HD
ENDBRANCH  13  14
ENDBRANCH   1  13
BRANCH   8  16
ATOM     16  C   UNL     1       3.385   3.392  18.095  0.00  0.00    +0.000 C 
BRANCH  16  17
ATOM     17  O   UNL     1       4.804   3.365  18.203  0.00  0.00    +0.000 OA
BRANCH  17  18
ATOM     18  C   UNL     1       5.439   3.977  17.078  0.00  0.00    +0.000 C 
BRANCH  18  19
ATOM     19  C   UNL     1       6.304   5.144  17.500  0.00  0.00    +0.000 A 
ATOM     20  C   UNL     1       7.156   5.053  18.615  0.00  0.00    +0.000 A 
ATOM     21  C   UNL     1       7.972   6.122  18.991  0.00  0.00    +0.000 A 
ATOM     22  C   UNL     1       7.952   7.306  18.259  0.00  0.00    +0.000 A 
ATOM     23  C   UNL     1       7.110   7.421  17.155  0.00  0.00    +0.000 A 
ATOM     24  C   UNL     1       6.292   6.351  16.779  0.00  0.00    +0.000 A 
ATOM     25 CL   UNL     1       5.272   6.568  15.399  0.00  0.00    +0.000 Cl
ENDBRANCH  18  19
ENDBRANCH  17  18
ENDBRANCH  16  17
ENDBRANCH   8  16
TORSDOF 6
ENDMDL
MODEL 3
REMARK VINA RESULT:      -7.4      2.603      3.248
REMARK  Name = 
REMARK  6 active torsions:
REMARK  status: ('A' for Active; 'I' for Inactive)
REMARK    1  A    between atoms: C_2  and  O_3
REMARK    2  A    between atoms: C_2  and  C_4
REMARK    3  A    between atoms: C_11  and  C_12
REMARK    4  A    between atoms: C_12  and  O_13
REMARK    5  A    between atoms: O_13  and  C_14
REMARK    6  A    between atoms: C_14  and  C_15
REMARK                            x       y       z     vdW  Elec       q    Type
REMARK                         _______ _______ _______ _____ _____    ______ ____
ROOT
ATOM      1  C   UNL     1       5.908   4.825  15.312  0.00  0.00    +0.000 A 
ATOM      2  C   UNL     1       5.640   3.849  16.295  0.00  0.00    +0.000 A 
ATOM      3  N   UNL     1       4.890   4.304  17.300  0.00  0.00    +0.000 NA
ATOM      4  N   UNL     1       4.616   5.591  16.958  0.00  0.00    +0.000 N 
ATOM      5  C   UNL     1       3.770   6.433  17.741  0.00  0.00    +0.000 A 
ATOM      6  C   UNL     1       3.244   5.945  18.934  0.00  0.00    +0.000 A 
ATOM      7  C   UNL     1       2.388   6.762  19.669  0.00  0.00    +0.000 A 
ATOM      8  C   UNL     1       2.067   8.037  19.199  0.00  0.00    +0.000 A 
ATOM      9  C   UNL     1       2.647   8.440  18.001  0.00  0.00    +0.000 A 
ATOM     10  N   UNL     1       3.496   7.680  17.268  0.00  0.00    +0.000 NA
ATOM     11  C   UNL     1       5.238   5.942  15.774  0.00  0.00    +0.000 A 
ENDROOT
BRANCH   1  13
ATOM     12  O   UNL     1       6.430   3.802  13.263  0.00  0.00    +0.000 OA
ATOM     13  C   UNL     1       6.697   4.641  14.110  0.00  0.00    +0.000 C 
BRANCH  13  14
ATOM     14  O   UNL     1       7.771   5.462  13.985  0.00  0.00    +0.000 OA
ATOM     15  H   UNL     1       8.129   5.761  14.839  0.00  0.00    +0.000 HD
ENDBRANCH  13  14
ENDBRANCH   1  13
BRANCH   8  16
ATOM     16  C   UNL     1       1.139   8.947  19.949  0.00  0.00    +0.000 C 
BRANCH  16  17
ATOM     17  O   UNL     1       0.866  10.080  19.132  0.00  0.00    +0.000 OA
BRANCH  17  18
ATOM     18  C   UNL     1      -0.291  10.793  19.573  0.00  0.00    +0.000 C 
BRANCH  18  19
ATOM     19  C   UNL     1      -1.397  10.743  18.542  0.00  0.00    +0.000 A 
ATOM     20  C   UNL     1      -1.321   9.882  17.433  0.00  0.00    +0.000 A 
ATOM     21  C   UNL     1      -2.352   9.820  16.494  0.00  0.00    +0.000 A 
ATOM     22  C   UNL     1      -3.482  10.619  16.644  0.00  0.00    +0.000 A 
ATOM     23  C   UNL     1      -3.576  11.486  17.730  0.00  0.00    +0.000 A 
ATOM     24  C   UNL     1      -2.542  11.549  18.671  0.00  0.00    +0.000 A 
ATOM     25 CL   UNL     1      -2.728  12.650  19.992  0.00  0.00    +0.000 Cl
ENDBRANCH  18  19
ENDBRANCH  17  18
ENDBRANCH  16  17
ENDBRANCH   8  16
TORSDOF 6
ENDMDL
MODEL 4
REMARK VINA RESULT:      -7.4      5.911      8.830
REMARK  Name = 
REMARK  6 active torsions:
REMARK  status: ('A' for Active; 'I' for Inactive)
REMARK    1  A    between atoms: C_2  and  O_3
REMARK    2  A    between atoms: C_2  and  C_4
REMARK    3  A    between atoms: C_11  and  C_12
REMARK    4  A    between atoms: C_12  and  O_13
REMARK    5  A    between atoms: O_13  and  C_14
REMARK    6  A    between atoms: C_14  and  C_15
REMARK                            x       y       z     vdW  Elec       q    Type
REMARK                         _______ _______ _______ _____ _____    ______ ____
ROOT
ATOM      1  C   UNL     1       8.930  11.416  18.092  0.00  0.00    +0.000 A 
ATOM      2  C   UNL     1       9.591  10.781  19.165  0.00  0.00    +0.000 A 
ATOM      3  N   UNL     1       9.269   9.492  19.293  0.00  0.00    +0.000 NA
ATOM      4  N   UNL     1       8.416   9.255  18.262  0.00  0.00    +0.000 N 
ATOM      5  C   UNL     1       7.879   7.961  17.987  0.00  0.00    +0.000 A 
ATOM      6  C   UNL     1       8.190   6.903  18.838  0.00  0.00    +0.000 A 
ATOM      7  C   UNL     1       7.692   5.637  18.538  0.00  0.00    +0.000 A 
ATOM      8  C   UNL     1       6.907   5.450  17.398  0.00  0.00    +0.000 A 
ATOM      9  C   UNL     1       6.643   6.567  16.613  0.00  0.00    +0.000 A 
ATOM     10  N   UNL     1       7.096   7.816  16.883  0.00  0.00    +0.000 NA
ATOM     11  C   UNL     1       8.173  10.405  17.533  0.00  0.00    +0.000 A 
ENDROOT
BRANCH   1  13
ATOM     12  O   UNL     1      10.080  13.455  17.898  0.00  0.00    +0.000 OA
ATOM     13  C   UNL     1       9.062  12.807  17.704  0.00  0.00    +0.000 C 
BRANCH  13  14
ATOM     14  O   UNL     1       7.970  13.355  17.113  0.00  0.00    +0.000 OA
ATOM     15  H   UNL     1       7.184  13.359  17.685  0.00  0.00    +0.000 HD
ENDBRANCH  13  14
ENDBRANCH   1  13
BRANCH   8  16
ATOM     16  C   UNL     1       6.360   4.102  17.027  0.00  0.00    +0.000 C 
BRANCH  16  17
ATOM     17  O   UNL     1       4.938   4.175  17.050  0.00  0.00    +0.000 OA
BRANCH  17  18
ATOM     18  C   UNL     1       4.393   3.634  18.255  0.00  0.00    +0.000 C 
BRANCH  18  19
ATOM     19  C   UNL     1       3.521   4.644  18.968  0.00  0.00    +0.000 A 
ATOM     20  C   UNL     1       3.405   5.965  18.500  0.00  0.00    +0.000 A 
ATOM     21  C   UNL     1       2.581   6.890  19.145  0.00  0.00    +0.000 A 
ATOM     22  C   UNL     1       1.857   6.513  20.272  0.00  0.00    +0.000 A 
ATOM     23  C   UNL     1       1.963   5.212  20.759  0.00  0.00    +0.000 A 
ATOM     24  C   UNL     1       2.789   4.285  20.113  0.00  0.00    +0.000 A 
ATOM     25 CL   UNL     1       2.872   2.689  20.775  0.00  0.00    +0.000 Cl
ENDBRANCH  18  19
ENDBRANCH  17  18
ENDBRANCH  16  17
ENDBRANCH   8  16
TORSDOF 6
ENDMDL
MODEL 5
REMARK VINA RESULT:      -7.3      6.801      8.766
REMARK  Name = 
REMARK  6 active torsions:
REMARK  status: ('A' for Active; 'I' for Inactive)
REMARK    1  A    between atoms: C_2  and  O_3
REMARK    2  A    between atoms: C_2  and  C_4
REMARK    3  A    between atoms: C_11  and  C_12
REMARK    4  A    between atoms: C_12  and  O_13
REMARK    5  A    between atoms: O_13  and  C_14
REMARK    6  A    between atoms: C_14  and  C_15
REMARK                            x       y       z     vdW  Elec       q    Type
REMARK                         _______ _______ _______ _____ _____    ______ ____
ROOT
ATOM      1  C   UNL     1       3.272   3.219  18.644  0.00  0.00    +0.000 A 
ATOM      2  C   UNL     1       4.279   2.804  19.542  0.00  0.00    +0.000 A 
ATOM      3  N   UNL     1       5.366   3.577  19.508  0.00  0.00    +0.000 NA
ATOM      4  N   UNL     1       5.061   4.547  18.607  0.00  0.00    +0.000 N 
ATOM      5  C   UNL     1       5.939   5.635  18.318  0.00  0.00    +0.000 A 
ATOM      6  C   UNL     1       7.185   5.683  18.937  0.00  0.00    +0.000 A 
ATOM      7  C   UNL     1       8.018   6.769  18.677  0.00  0.00    +0.000 A 
ATOM      8  C   UNL     1       7.590   7.785  17.819  0.00  0.00    +0.000 A 
ATOM      9  C   UNL     1       6.332   7.646  17.242  0.00  0.00    +0.000 A 
ATOM     10  N   UNL     1       5.503   6.596  17.458  0.00  0.00    +0.000 NA
ATOM     11  C   UNL     1       3.811   4.343  18.050  0.00  0.00    +0.000 A 
ENDROOT
BRANCH   1  13
ATOM     12  O   UNL     1       1.013   3.178  18.003  0.00  0.00    +0.000 OA
ATOM     13  C   UNL     1       1.985   2.583  18.442  0.00  0.00    +0.000 C 
BRANCH  13  14
ATOM     14  O   UNL     1       1.923   1.270  18.781  0.00  0.00    +0.000 OA
ATOM     15  H   UNL     1       1.963   1.118  19.741  0.00  0.00    +0.000 HD
ENDBRANCH  13  14
ENDBRANCH   1  13
BRANCH   8  16
ATOM     16  C   UNL     1       8.446   8.981  17.520  0.00  0.00    +0.000 C 
BRANCH  16  17
ATOM     17  O   UNL     1       8.845   9.565  18.755  0.00  0.00    +0.000 OA
BRANCH  17  18
ATOM     18  C   UNL     1       9.735  10.667  18.565  0.00  0.00    +0.000 C 
BRANCH  18  19
ATOM     19  C   UNL     1       9.647  11.652  19.709  0.00  0.00    +0.000 A 
ATOM     20  C   UNL     1       9.184  11.257  20.976  0.00  0.00    +0.000 A 
ATOM     21  C   UNL     1       9.124  12.162  22.038  0.00  0.00    +0.000 A 
ATOM     22  C   UNL     1       9.526  13.482  21.854  0.00  0.00    +0.000 A 
ATOM     23  C   UNL     1       9.981  13.898  20.605  0.00  0.00    +0.000 A 
ATOM     24  C   UNL     1      10.040  12.992  19.540  0.00  0.00    +0.000 A 
ATOM     25 CL   UNL     1      10.613  13.581  18.019  0.00  0.00    +0.000 Cl
ENDBRANCH  18  19
ENDBRANCH  17  18
ENDBRANCH  16  17
ENDBRANCH   8  16
TORSDOF 6
ENDMDL
MODEL 6
REMARK VINA RESULT:      -7.3      3.399      8.287
REMARK  Name = 
REMARK  6 active torsions:
REMARK  status: ('A' for Active; 'I' for Inactive)
REMARK    1  A    between atoms: C_2  and  O_3
REMARK    2  A    between atoms: C_2  and  C_4
REMARK    3  A    between atoms: C_11  and  C_12
REMARK    4  A    between atoms: C_12  and  O_13
REMARK    5  A    between atoms: O_13  and  C_14
REMARK    6  A    between atoms: C_14  and  C_15
REMARK                            x       y       z     vdW  Elec       q    Type
REMARK                         _______ _______ _______ _____ _____    ______ ____
ROOT
ATOM      1  C   UNL     1      -0.712  11.095  21.106  0.00  0.00    +0.000 A 
ATOM      2  C   UNL     1      -0.631  11.715  19.840  0.00  0.00    +0.000 A 
ATOM      3  N   UNL     1       0.209  11.101  19.005  0.00  0.00    +0.000 NA
ATOM      4  N   UNL     1       0.661  10.030  19.710  0.00  0.00    +0.000 N 
ATOM      5  C   UNL     1       1.542   9.056  19.152  0.00  0.00    +0.000 A 
ATOM      6  C   UNL     1       2.011   9.231  17.852  0.00  0.00    +0.000 A 
ATOM      7  C   UNL     1       2.840   8.254  17.305  0.00  0.00    +0.000 A 
ATOM      8  C   UNL     1       3.175   7.125  18.055  0.00  0.00    +0.000 A 
ATOM      9  C   UNL     1       2.665   7.041  19.346  0.00  0.00    +0.000 A 
ATOM     10  N   UNL     1       1.871   7.979  19.917  0.00  0.00    +0.000 NA
ATOM     11  C   UNL     1       0.140  10.013  20.991  0.00  0.00    +0.000 A 
ENDROOT
BRANCH   1  13
ATOM     12  O   UNL     1      -2.554  12.173  22.085  0.00  0.00    +0.000 OA
ATOM     13  C   UNL     1      -1.526  11.527  22.224  0.00  0.00    +0.000 C 
BRANCH  13  14
ATOM     14  O   UNL     1      -1.067  11.175  23.452  0.00  0.00    +0.000 OA
ATOM     15  H   UNL     1      -1.767  10.859  24.048  0.00  0.00    +0.000 HD
ENDBRANCH  13  14
ENDBRANCH   1  13
BRANCH   8  16
ATOM     16  C   UNL     1       4.053   6.040  17.503  0.00  0.00    +0.000 C 
BRANCH  16  17
ATOM     17  O   UNL     1       4.523   5.249  18.589  0.00  0.00    +0.000 OA
BRANCH  17  18
ATOM     18  C   UNL     1       4.190   3.868  18.429  0.00  0.00    +0.000 C 
BRANCH  18  19
ATOM     19  C   UNL     1       3.142   3.433  19.429  0.00  0.00    +0.000 A 
ATOM     20  C   UNL     1       3.503   2.950  20.699  0.00  0.00    +0.000 A 
ATOM     21  C   UNL     1       2.534   2.570  21.630  0.00  0.00    +0.000 A 
ATOM     22  C   UNL     1       1.183   2.665  21.310  0.00  0.00    +0.000 A 
ATOM     23  C   UNL     1       0.802   3.133  20.055  0.00  0.00    +0.000 A 
ATOM     24  C   UNL     1       1.772   3.513  19.121  0.00  0.00    +0.000 A 
ATOM     25 CL   UNL     1       1.224   4.082  17.582  0.00  0.00    +0.000 Cl
ENDBRANCH  18  19
ENDBRANCH  17  18
ENDBRANCH  16  17
ENDBRANCH   8  16
TORSDOF 6
ENDMDL
MODEL 7
REMARK VINA RESULT:      -7.2      6.213      9.157
REMARK  Name = 
REMARK  6 active torsions:
REMARK  status: ('A' for Active; 'I' for Inactive)
REMARK    1  A    between atoms: C_2  and  O_3
REMARK    2  A    between atoms: C_2  and  C_4
REMARK    3  A    between atoms: C_11  and  C_12
REMARK    4  A    between atoms: C_12  and  O_13
REMARK    5  A    between atoms: O_13  and  C_14
REMARK    6  A    between atoms: C_14  and  C_15
REMARK                            x       y       z     vdW  Elec       q    Type
REMARK                         _______ _______ _______ _____ _____    ______ ____
ROOT
ATOM      1  C   UNL     1       8.992  11.440  18.183  0.00  0.00    +0.000 A 
ATOM      2  C   UNL     1       9.725  10.729  19.156  0.00  0.00    +0.000 A 
ATOM      3  N   UNL     1       9.375   9.444  19.245  0.00  0.00    +0.000 NA
ATOM      4  N   UNL     1       8.425   9.287  18.285  0.00  0.00    +0.000 N 
ATOM      5  C   UNL     1       7.825   8.026  17.993  0.00  0.00    +0.000 A 
ATOM      6  C   UNL     1       8.177   6.915  18.755  0.00  0.00    +0.000 A 
ATOM      7  C   UNL     1       7.613   5.681  18.436  0.00  0.00    +0.000 A 
ATOM      8  C   UNL     1       6.724   5.578  17.364  0.00  0.00    +0.000 A 
ATOM      9  C   UNL     1       6.427   6.744  16.666  0.00  0.00    +0.000 A 
ATOM     10  N   UNL     1       6.942   7.963  16.958  0.00  0.00    +0.000 NA
ATOM     11  C   UNL     1       8.155  10.482  17.643  0.00  0.00    +0.000 A 
ENDROOT
BRANCH   1  13
ATOM     12  O   UNL     1       8.238  13.660  18.031  0.00  0.00    +0.000 OA
ATOM     13  C   UNL     1       9.133  12.846  17.858  0.00  0.00    +0.000 C 
BRANCH  13  14
ATOM     14  O   UNL     1      10.333  13.207  17.336  0.00  0.00    +0.000 OA
ATOM     15  H   UNL     1      10.299  14.038  16.832  0.00  0.00    +0.000 HD
ENDBRANCH  13  14
ENDBRANCH   1  13
BRANCH   8  16
ATOM     16  C   UNL     1       6.103   4.268  16.975  0.00  0.00    +0.000 C 
BRANCH  16  17
ATOM     17  O   UNL     1       5.161   3.904  17.978  0.00  0.00    +0.000 OA
BRANCH  17  18
ATOM     18  C   UNL     1       3.823   4.236  17.603  0.00  0.00    +0.000 C 
BRANCH  18  19
ATOM     19  C   UNL     1       2.837   3.872  18.692  0.00  0.00    +0.000 A 
ATOM     20  C   UNL     1       2.050   4.854  19.319  0.00  0.00    +0.000 A 
ATOM     21  C   UNL     1       1.124   4.515  20.308  0.00  0.00    +0.000 A 
ATOM     22  C   UNL     1       0.968   3.186  20.691  0.00  0.00    +0.000 A 
ATOM     23  C   UNL     1       1.743   2.197  20.089  0.00  0.00    +0.000 A 
ATOM     24  C   UNL     1       2.671   2.537  19.099  0.00  0.00    +0.000 A 
ATOM     25 CL   UNL     1       3.599   1.257  18.398  0.00  0.00    +0.000 Cl
ENDBRANCH  18  19
ENDBRANCH  17  18
ENDBRANCH  16  17
ENDBRANCH   8  16
TORSDOF 6
ENDMDL
MODEL 8
REMARK VINA RESULT:      -7.2      6.405      9.337
REMARK  Name = 
REMARK  6 active torsions:
REMARK  status: ('A' for Active; 'I' for Inactive)
REMARK    1  A    between atoms: C_2  and  O_3
REMARK    2  A    between atoms: C_2  and  C_4
REMARK    3  A    between atoms: C_11  and  C_12
REMARK    4  A    between atoms: C_12  and  O_13
REMARK    5  A    between atoms: O_13  and  C_14
REMARK    6  A    between atoms: C_14  and  C_15
REMARK                            x       y       z     vdW  Elec       q    Type
REMARK                         _______ _______ _______ _____ _____    ______ ____
ROOT
ATOM      1  C   UNL     1       9.123  11.908  18.088  0.00  0.00    +0.000 A 
ATOM      2  C   UNL     1       9.867  11.295  19.119  0.00  0.00    +0.000 A 
ATOM      3  N   UNL     1       9.550  10.012  19.306  0.00  0.00    +0.000 NA
ATOM      4  N   UNL     1       8.614   9.755  18.355  0.00  0.00    +0.000 N 
ATOM      5  C   UNL     1       8.050   8.459  18.158  0.00  0.00    +0.000 A 
ATOM      6  C   UNL     1       8.424   7.421  19.007  0.00  0.00    +0.000 A 
ATOM      7  C   UNL     1       7.897   6.151  18.782  0.00  0.00    +0.000 A 
ATOM      8  C   UNL     1       7.020   5.941  17.715  0.00  0.00    +0.000 A 
ATOM      9  C   UNL     1       6.699   7.040  16.926  0.00  0.00    +0.000 A 
ATOM     10  N   UNL     1       7.178   8.291  17.126  0.00  0.00    +0.000 NA
ATOM     11  C   UNL     1       8.318  10.889  17.619  0.00  0.00    +0.000 A 
ENDROOT
BRANCH   1  13
ATOM     12  O   UNL     1      10.303  13.857  17.514  0.00  0.00    +0.000 OA
ATOM     13  C   UNL     1       9.230  13.288  17.656  0.00  0.00    +0.000 C 
BRANCH  13  14
ATOM     14  O   UNL     1       8.053  13.920  17.422  0.00  0.00    +0.000 OA
ATOM     15  H   UNL     1       7.924  14.163  16.489  0.00  0.00    +0.000 HD
ENDBRANCH  13  14
ENDBRANCH   1  13
BRANCH   8  16
ATOM     16  C   UNL     1       6.438   4.588  17.425  0.00  0.00    +0.000 C 
BRANCH  16  17
ATOM     17  O   UNL     1       6.029   4.004  18.657  0.00  0.00    +0.000 OA
BRANCH  17  18
ATOM     18  C   UNL     1       4.953   4.725  19.261  0.00  0.00    +0.000 C 
BRANCH  18  19
ATOM     19  C   UNL     1       3.621   4.061  18.988  0.00  0.00    +0.000 A 
ATOM     20  C   UNL     1       2.690   4.635  18.103  0.00  0.00    +0.000 A 
ATOM     21  C   UNL     1       1.471   4.010  17.833  0.00  0.00    +0.000 A 
ATOM     22  C   UNL     1       1.156   2.800  18.444  0.00  0.00    +0.000 A 
ATOM     23  C   UNL     1       2.059   2.218  19.330  0.00  0.00    +0.000 A 
ATOM     24  C   UNL     1       3.281   2.843  19.602  0.00  0.00    +0.000 A 
ATOM     25 CL   UNL     1       4.351   2.063  20.714  0.00  0.00    +0.000 Cl
ENDBRANCH  18  19
ENDBRANCH  17  18
ENDBRANCH  16  17
ENDBRANCH   8  16
TORSDOF 6
ENDMDL
MODEL 9
REMARK VINA RESULT:      -7.2      6.691      8.403
REMARK  Name = 
REMARK  6 active torsions:
REMARK  status: ('A' for Active; 'I' for Inactive)
REMARK    1  A    between atoms: C_2  and  O_3
REMARK    2  A    between atoms: C_2  and  C_4
REMARK    3  A    between atoms: C_11  and  C_12
REMARK    4  A    between atoms: C_12  and  O_13
REMARK    5  A    between atoms: O_13  and  C_14
REMARK    6  A    between atoms: C_14  and  C_15
REMARK                            x       y       z     vdW  Elec       q    Type
REMARK                         _______ _______ _______ _____ _____    ______ ____
ROOT
ATOM      1  C   UNL     1       2.584   3.245  19.301  0.00  0.00    +0.000 A 
ATOM      2  C   UNL     1       3.643   2.710  20.065  0.00  0.00    +0.000 A 
ATOM      3  N   UNL     1       4.805   3.334  19.865  0.00  0.00    +0.000 NA
ATOM      4  N   UNL     1       4.506   4.329  18.989  0.00  0.00    +0.000 N 
ATOM      5  C   UNL     1       5.467   5.291  18.556  0.00  0.00    +0.000 A 
ATOM      6  C   UNL     1       6.783   5.180  18.999  0.00  0.00    +0.000 A 
ATOM      7  C   UNL     1       7.704   6.147  18.602  0.00  0.00    +0.000 A 
ATOM      8  C   UNL     1       7.296   7.204  17.784  0.00  0.00    +0.000 A 
ATOM      9  C   UNL     1       5.963   7.226  17.387  0.00  0.00    +0.000 A 
ATOM     10  N   UNL     1       5.044   6.294  17.739  0.00  0.00    +0.000 NA
ATOM     11  C   UNL     1       3.176   4.285  18.612  0.00  0.00    +0.000 A 
ENDROOT
BRANCH   1  13
ATOM     12  O   UNL     1       0.675   2.315  18.297  0.00  0.00    +0.000 OA
ATOM     13  C   UNL     1       1.211   2.781  19.292  0.00  0.00    +0.000 C 
BRANCH  13  14
ATOM     14  O   UNL     1       0.544   2.904  20.468  0.00  0.00    +0.000 OA
ATOM     15  H   UNL     1       0.658   3.774  20.886  0.00  0.00    +0.000 HD
ENDBRANCH  13  14
ENDBRANCH   1  13
BRANCH   8  16
ATOM     16  C   UNL     1       8.249   8.276  17.342  0.00  0.00    +0.000 C 
BRANCH  16  17
ATOM     17  O   UNL     1       7.985   9.450  18.102  0.00  0.00    +0.000 OA
BRANCH  17  18
ATOM     18  C   UNL     1       9.187  10.077  18.555  0.00  0.00    +0.000 C 
BRANCH  18  19
ATOM     19  C   UNL     1       9.104  11.582  18.434  0.00  0.00    +0.000 A 
ATOM     20  C   UNL     1       8.157  12.194  17.593  0.00  0.00    +0.000 A 
ATOM     21  C   UNL     1       8.065  13.584  17.499  0.00  0.00    +0.000 A 
ATOM     22  C   UNL     1       8.919  14.392  18.244  0.00  0.00    +0.000 A 
ATOM     23  C   UNL     1       9.870  13.808  19.078  0.00  0.00    +0.000 A 
ATOM     24  C   UNL     1       9.963  12.415  19.172  0.00  0.00    +0.000 A 
ATOM     25 CL   UNL     1      11.169  11.762  20.225  0.00  0.00    +0.000 Cl
ENDBRANCH  18  19
ENDBRANCH  17  18
ENDBRANCH  16  17
ENDBRANCH   8  16
TORSDOF 6
ENDMDL
