MODEL 1
REMARK VINA RESULT:      -6.4      0.000      0.000
REMARK  Name = 
REMARK  5 active torsions:
REMARK  status: ('A' for Active; 'I' for Inactive)
REMARK    1  A    between atoms: N_2  and  C_3
REMARK    2  A    between atoms: C_14  and  C_15
REMARK    3  A    between atoms: C_14  and  C_16
REMARK    4  A    between atoms: C_20  and  C_21
REMARK    5  A    between atoms: C_20  and  C_22
REMARK                            x       y       z     vdW  Elec       q    Type
REMARK                         _______ _______ _______ _____ _____    ______ ____
ROOT
ATOM      1  C   UNL     1       0.923  13.951  20.719  0.00  0.00    +0.000 C 
ATOM      2  C   UNL     1       0.337  12.481  20.856  0.00  0.00    +0.000 C 
ATOM      3  C   UNL     1      -1.137  12.386  20.478  0.00  0.00    +0.000 A 
ATOM      4  C   UNL     1      -2.237  13.165  20.760  0.00  0.00    +0.000 A 
ATOM      5  N   UNL     1      -3.205  12.869  19.813  0.00  0.00    +0.000 N 
ATOM      6  C   UNL     1      -2.746  11.899  18.948  0.00  0.00    +0.000 A 
ATOM      7  C   UNL     1      -3.198  11.430  17.712  0.00  0.00    +0.000 A 
ATOM      8  C   UNL     1      -2.405  10.462  17.069  0.00  0.00    +0.000 A 
ATOM      9  C   UNL     1      -1.243   9.944  17.654  0.00  0.00    +0.000 A 
ATOM     10  C   UNL     1      -0.792  10.433  18.883  0.00  0.00    +0.000 A 
ATOM     11  C   UNL     1      -1.557  11.450  19.488  0.00  0.00    +0.000 A 
ATOM     12  C   UNL     1       0.511  10.092  19.581  0.00  0.00    +0.000 C 
ATOM     13  C   UNL     1       1.488   9.203  18.776  0.00  0.00    +0.000 C 
ATOM     14  C   UNL     1       0.139   9.250  20.830  0.00  0.00    +0.000 C 
ATOM     15  C   UNL     1       1.188  11.497  19.933  0.00  0.00    +0.000 C 
ATOM     16  C   UNL     1       1.607  12.260  18.631  0.00  0.00    +0.000 C 
ATOM     17  C   UNL     1       0.675  13.421  18.235  0.00  0.00    +0.000 C 
ATOM     18  C   UNL     1       0.792  14.574  19.259  0.00  0.00    +0.000 C 
ATOM     19  C   UNL     1       1.987  15.411  18.730  0.00  0.00    +0.000 C 
ATOM     20  H   UNL     1      -4.054  13.400  19.677  0.00  0.00    +0.000 HD
ENDROOT
BRANCH   1  22
ATOM     21  C   UNL     1       3.405  14.007  21.551  0.00  0.00    +0.000 C 
ATOM     22  N   UNL     1       2.285  13.976  21.192  0.00  0.00    +0.000 NA
ENDBRANCH   1  22
BRANCH  18  23
ATOM     23  C   UNL     1      -0.333  15.619  19.315  0.00  0.00    +0.000 C 
ATOM     24  C   UNL     1      -0.531  16.720  18.583  0.00  0.00    +0.000 C 
ENDBRANCH  18  23
TORSDOF 2
ENDMDL
MODEL 2
REMARK VINA RESULT:      -6.0      8.548     10.658
REMARK  Name = 
REMARK  5 active torsions:
REMARK  status: ('A' for Active; 'I' for Inactive)
REMARK    1  A    between atoms: N_2  and  C_3
REMARK    2  A    between atoms: C_14  and  C_15
REMARK    3  A    between atoms: C_14  and  C_16
REMARK    4  A    between atoms: C_20  and  C_21
REMARK    5  A    between atoms: C_20  and  C_22
REMARK                            x       y       z     vdW  Elec       q    Type
REMARK                         _______ _______ _______ _____ _____    ______ ____
ROOT
ATOM      1  C   UNL     1       8.042  13.823  21.123  0.00  0.00    +0.000 C 
ATOM      2  C   UNL     1       8.626  13.194  19.786  0.00  0.00    +0.000 C 
ATOM      3  C   UNL     1       8.712  14.196  18.641  0.00  0.00    +0.000 A 
ATOM      4  C   UNL     1       7.851  15.156  18.159  0.00  0.00    +0.000 A 
ATOM      5  N   UNL     1       8.605  16.050  17.415  0.00  0.00    +0.000 N 
ATOM      6  C   UNL     1       9.928  15.661  17.399  0.00  0.00    +0.000 A 
ATOM      7  C   UNL     1      11.109  16.306  17.023  0.00  0.00    +0.000 A 
ATOM      8  C   UNL     1      12.311  15.604  17.227  0.00  0.00    +0.000 A 
ATOM      9  C   UNL     1      12.333  14.297  17.731  0.00  0.00    +0.000 A 
ATOM     10  C   UNL     1      11.146  13.669  18.118  0.00  0.00    +0.000 A 
ATOM     11  C   UNL     1       9.953  14.405  17.972  0.00  0.00    +0.000 A 
ATOM     12  C   UNL     1      11.006  12.327  18.813  0.00  0.00    +0.000 C 
ATOM     13  C   UNL     1      12.331  11.655  19.241  0.00  0.00    +0.000 C 
ATOM     14  C   UNL     1      10.377  11.356  17.779  0.00  0.00    +0.000 C 
ATOM     15  C   UNL     1      10.076  12.600  20.085  0.00  0.00    +0.000 C 
ATOM     16  C   UNL     1      10.799  13.525  21.121  0.00  0.00    +0.000 C 
ATOM     17  C   UNL     1      10.313  14.987  21.130  0.00  0.00    +0.000 C 
ATOM     18  C   UNL     1       8.868  15.067  21.675  0.00  0.00    +0.000 C 
ATOM     19  C   UNL     1       9.064  15.169  23.212  0.00  0.00    +0.000 C 
ATOM     20  H   UNL     1       8.268  16.940  17.074  0.00  0.00    +0.000 HD
ENDROOT
BRANCH   1  22
ATOM     21  C   UNL     1       7.765  11.971  22.953  0.00  0.00    +0.000 C 
ATOM     22  N   UNL     1       7.896  12.792  22.120  0.00  0.00    +0.000 NA
ENDBRANCH   1  22
BRANCH  18  23
ATOM     23  C   UNL     1       8.042  16.326  21.372  0.00  0.00    +0.000 C 
ATOM     24  C   UNL     1       6.723  16.538  21.446  0.00  0.00    +0.000 C 
ENDBRANCH  18  23
TORSDOF 2
ENDMDL
MODEL 3
REMARK VINA RESULT:      -6.0      7.778     10.049
REMARK  Name = 
REMARK  5 active torsions:
REMARK  status: ('A' for Active; 'I' for Inactive)
REMARK    1  A    between atoms: N_2  and  C_3
REMARK    2  A    between atoms: C_14  and  C_15
REMARK    3  A    between atoms: C_14  and  C_16
REMARK    4  A    between atoms: C_20  and  C_21
REMARK    5  A    between atoms: C_20  and  C_22
REMARK                            x       y       z     vdW  Elec       q    Type
REMARK                         _______ _______ _______ _____ _____    ______ ____
ROOT
ATOM      1  C   UNL     1       8.290  15.728  21.461  0.00  0.00    +0.000 C 
ATOM      2  C   UNL     1       9.651  15.058  20.990  0.00  0.00    +0.000 C 
ATOM      3  C   UNL     1       9.699  13.556  21.248  0.00  0.00    +0.000 A 
ATOM      4  C   UNL     1       9.343  12.770  22.320  0.00  0.00    +0.000 A 
ATOM      5  N   UNL     1       9.184  11.477  21.847  0.00  0.00    +0.000 N 
ATOM      6  C   UNL     1       9.454  11.425  20.496  0.00  0.00    +0.000 A 
ATOM      7  C   UNL     1       9.217  10.464  19.511  0.00  0.00    +0.000 A 
ATOM      8  C   UNL     1       9.568  10.804  18.191  0.00  0.00    +0.000 A 
ATOM      9  C   UNL     1      10.178  12.025  17.874  0.00  0.00    +0.000 A 
ATOM     10  C   UNL     1      10.395  12.984  18.867  0.00  0.00    +0.000 A 
ATOM     11  C   UNL     1       9.980  12.661  20.174  0.00  0.00    +0.000 A 
ATOM     12  C   UNL     1      10.904  14.401  18.675  0.00  0.00    +0.000 C 
ATOM     13  C   UNL     1      11.078  14.854  17.206  0.00  0.00    +0.000 C 
ATOM     14  C   UNL     1      12.331  14.446  19.282  0.00  0.00    +0.000 C 
ATOM     15  C   UNL     1       9.854  15.339  19.433  0.00  0.00    +0.000 C 
ATOM     16  C   UNL     1       8.458  15.305  18.726  0.00  0.00    +0.000 C 
ATOM     17  C   UNL     1       7.392  14.452  19.442  0.00  0.00    +0.000 C 
ATOM     18  C   UNL     1       6.989  15.114  20.780  0.00  0.00    +0.000 C 
ATOM     19  C   UNL     1       5.861  16.100  20.373  0.00  0.00    +0.000 C 
ATOM     20  H   UNL     1       8.773  10.720  22.376  0.00  0.00    +0.000 HD
ENDROOT
BRANCH   1  22
ATOM     21  C   UNL     1       8.443  18.324  21.157  0.00  0.00    +0.000 C 
ATOM     22  N   UNL     1       8.365  17.157  21.279  0.00  0.00    +0.000 NA
ENDBRANCH   1  22
BRANCH  18  23
ATOM     23  C   UNL     1       6.291  14.249  21.841  0.00  0.00    +0.000 C 
ATOM     24  C   UNL     1       6.168  14.427  23.161  0.00  0.00    +0.000 C 
ENDBRANCH  18  23
TORSDOF 2
ENDMDL
MODEL 4
REMARK VINA RESULT:      -5.9      1.841      4.068
REMARK  Name = 
REMARK  5 active torsions:
REMARK  status: ('A' for Active; 'I' for Inactive)
REMARK    1  A    between atoms: N_2  and  C_3
REMARK    2  A    between atoms: C_14  and  C_15
REMARK    3  A    between atoms: C_14  and  C_16
REMARK    4  A    between atoms: C_20  and  C_21
REMARK    5  A    between atoms: C_20  and  C_22
REMARK                            x       y       z     vdW  Elec       q    Type
REMARK                         _______ _______ _______ _____ _____    ______ ____
ROOT
ATOM      1  C   UNL     1      -0.182  14.467  18.912  0.00  0.00    +0.000 C 
ATOM      2  C   UNL     1      -1.298  13.646  19.690  0.00  0.00    +0.000 C 
ATOM      3  C   UNL     1      -1.176  12.139  19.497  0.00  0.00    +0.000 A 
ATOM      4  C   UNL     1      -0.942  11.343  18.398  0.00  0.00    +0.000 A 
ATOM      5  N   UNL     1      -0.496  10.117  18.866  0.00  0.00    +0.000 N 
ATOM      6  C   UNL     1      -0.464  10.114  20.244  0.00  0.00    +0.000 A 
ATOM      7  C   UNL     1       0.117   9.259  21.184  0.00  0.00    +0.000 A 
ATOM      8  C   UNL     1       0.007   9.630  22.536  0.00  0.00    +0.000 A 
ATOM      9  C   UNL     1      -0.697  10.772  22.940  0.00  0.00    +0.000 A 
ATOM     10  C   UNL     1      -1.259  11.627  21.989  0.00  0.00    +0.000 A 
ATOM     11  C   UNL     1      -1.087  11.283  20.634  0.00  0.00    +0.000 A 
ATOM     12  C   UNL     1      -1.920  12.969  22.243  0.00  0.00    +0.000 C 
ATOM     13  C   UNL     1      -1.845  13.486  23.700  0.00  0.00    +0.000 C 
ATOM     14  C   UNL     1      -3.434  12.779  21.962  0.00  0.00    +0.000 C 
ATOM     15  C   UNL     1      -1.206  13.994  21.244  0.00  0.00    +0.000 C 
ATOM     16  C   UNL     1       0.297  14.198  21.630  0.00  0.00    +0.000 C 
ATOM     17  C   UNL     1       1.302  13.457  20.725  0.00  0.00    +0.000 C 
ATOM     18  C   UNL     1       1.310  14.082  19.311  0.00  0.00    +0.000 C 
ATOM     19  C   UNL     1       2.338  15.239  19.431  0.00  0.00    +0.000 C 
ATOM     20  H   UNL     1      -0.098   9.392  18.284  0.00  0.00    +0.000 HD
ENDROOT
BRANCH   1  22
ATOM     21  C   UNL     1      -0.660  17.027  19.181  0.00  0.00    +0.000 C 
ATOM     22  N   UNL     1      -0.429  15.880  19.061  0.00  0.00    +0.000 NA
ENDBRANCH   1  22
BRANCH  18  23
ATOM     23  C   UNL     1       1.888  13.257  18.151  0.00  0.00    +0.000 C 
ATOM     24  C   UNL     1       2.526  12.082  18.156  0.00  0.00    +0.000 C 
ENDBRANCH  18  23
TORSDOF 2
ENDMDL
MODEL 5
REMARK VINA RESULT:      -5.9      6.461      9.025
REMARK  Name = 
REMARK  5 active torsions:
REMARK  status: ('A' for Active; 'I' for Inactive)
REMARK    1  A    between atoms: N_2  and  C_3
REMARK    2  A    between atoms: C_14  and  C_15
REMARK    3  A    between atoms: C_14  and  C_16
REMARK    4  A    between atoms: C_20  and  C_21
REMARK    5  A    between atoms: C_20  and  C_22
REMARK                            x       y       z     vdW  Elec       q    Type
REMARK                         _______ _______ _______ _____ _____    ______ ____
ROOT
ATOM      1  C   UNL     1       5.158   5.997  18.754  0.00  0.00    +0.000 C 
ATOM      2  C   UNL     1       4.778   4.747  19.659  0.00  0.00    +0.000 C 
ATOM      3  C   UNL     1       3.359   4.818  20.212  0.00  0.00    +0.000 A 
ATOM      4  C   UNL     1       2.617   5.827  20.783  0.00  0.00    +0.000 A 
ATOM      5  N   UNL     1       1.283   5.463  20.685  0.00  0.00    +0.000 N 
ATOM      6  C   UNL     1       1.167   4.230  20.080  0.00  0.00    +0.000 A 
ATOM      7  C   UNL     1       0.088   3.532  19.531  0.00  0.00    +0.000 A 
ATOM      8  C   UNL     1       0.373   2.301  18.913  0.00  0.00    +0.000 A 
ATOM      9  C   UNL     1       1.666   1.762  18.889  0.00  0.00    +0.000 A 
ATOM     10  C   UNL     1       2.739   2.477  19.428  0.00  0.00    +0.000 A 
ATOM     11  C   UNL     1       2.454   3.739  19.986  0.00  0.00    +0.000 A 
ATOM     12  C   UNL     1       4.210   2.111  19.356  0.00  0.00    +0.000 C 
ATOM     13  C   UNL     1       4.550   0.878  18.486  0.00  0.00    +0.000 C 
ATOM     14  C   UNL     1       4.640   1.719  20.794  0.00  0.00    +0.000 C 
ATOM     15  C   UNL     1       4.948   3.415  18.798  0.00  0.00    +0.000 C 
ATOM     16  C   UNL     1       4.527   3.710  17.319  0.00  0.00    +0.000 C 
ATOM     17  C   UNL     1       3.523   4.868  17.153  0.00  0.00    +0.000 C 
ATOM     18  C   UNL     1       4.198   6.214  17.503  0.00  0.00    +0.000 C 
ATOM     19  C   UNL     1       4.855   6.650  16.166  0.00  0.00    +0.000 C 
ATOM     20  H   UNL     1       0.505   6.080  20.876  0.00  0.00    +0.000 HD
ENDROOT
BRANCH   1  22
ATOM     21  C   UNL     1       7.677   5.822  18.065  0.00  0.00    +0.000 C 
ATOM     22  N   UNL     1       6.541   5.905  18.359  0.00  0.00    +0.000 NA
ENDBRANCH   1  22
BRANCH  18  23
ATOM     23  C   UNL     1       3.301   7.418  17.828  0.00  0.00    +0.000 C 
ATOM     24  C   UNL     1       1.969   7.539  17.805  0.00  0.00    +0.000 C 
ENDBRANCH  18  23
TORSDOF 2
ENDMDL
MODEL 6
REMARK VINA RESULT:      -5.8      8.251     10.656
REMARK  Name = 
REMARK  5 active torsions:
REMARK  status: ('A' for Active; 'I' for Inactive)
REMARK    1  A    between atoms: N_2  and  C_3
REMARK    2  A    between atoms: C_14  and  C_15
REMARK    3  A    between atoms: C_14  and  C_16
REMARK    4  A    between atoms: C_20  and  C_21
REMARK    5  A    between atoms: C_20  and  C_22
REMARK                            x       y       z     vdW  Elec       q    Type
REMARK                         _______ _______ _______ _____ _____    ______ ____
ROOT
ATOM      1  C   UNL     1       7.991  15.232  21.205  0.00  0.00    +0.000 C 
ATOM      2  C   UNL     1       8.027  14.588  19.753  0.00  0.00    +0.000 C 
ATOM      3  C   UNL     1       8.668  15.496  18.711  0.00  0.00    +0.000 A 
ATOM      4  C   UNL     1       8.554  16.839  18.430  0.00  0.00    +0.000 A 
ATOM      5  N   UNL     1       9.672  17.203  17.695  0.00  0.00    +0.000 N 
ATOM      6  C   UNL     1      10.483  16.108  17.487  0.00  0.00    +0.000 A 
ATOM      7  C   UNL     1      11.800  15.967  17.043  0.00  0.00    +0.000 A 
ATOM      8  C   UNL     1      12.333  14.665  17.034  0.00  0.00    +0.000 A 
ATOM      9  C   UNL     1      11.573  13.547  17.400  0.00  0.00    +0.000 A 
ATOM     10  C   UNL     1      10.262  13.704  17.858  0.00  0.00    +0.000 A 
ATOM     11  C   UNL     1       9.759  15.018  17.926  0.00  0.00    +0.000 A 
ATOM     12  C   UNL     1       9.356  12.628  18.428  0.00  0.00    +0.000 C 
ATOM     13  C   UNL     1      10.012  11.241  18.630  0.00  0.00    +0.000 C 
ATOM     14  C   UNL     1       8.234  12.393  17.383  0.00  0.00    +0.000 C 
ATOM     15  C   UNL     1       8.826  13.208  19.820  0.00  0.00    +0.000 C 
ATOM     16  C   UNL     1       9.995  13.349  20.852  0.00  0.00    +0.000 C 
ATOM     17  C   UNL     1      10.499  14.790  21.063  0.00  0.00    +0.000 C 
ATOM     18  C   UNL     1       9.420  15.635  21.778  0.00  0.00    +0.000 C 
ATOM     19  C   UNL     1       9.687  15.369  23.283  0.00  0.00    +0.000 C 
ATOM     20  H   UNL     1       9.935  18.156  17.486  0.00  0.00    +0.000 HD
ENDROOT
BRANCH   1  22
ATOM     21  C   UNL     1       6.683  13.635  22.816  0.00  0.00    +0.000 C 
ATOM     22  N   UNL     1       7.280  14.358  22.105  0.00  0.00    +0.000 NA
ENDBRANCH   1  22
BRANCH  18  23
ATOM     23  C   UNL     1       9.521  17.166  21.699  0.00  0.00    +0.000 C 
ATOM     24  C   UNL     1      10.538  17.951  21.329  0.00  0.00    +0.000 C 
ENDBRANCH  18  23
TORSDOF 2
ENDMDL
MODEL 7
REMARK VINA RESULT:      -5.5      3.948      5.360
REMARK  Name = 
REMARK  5 active torsions:
REMARK  status: ('A' for Active; 'I' for Inactive)
REMARK    1  A    between atoms: N_2  and  C_3
REMARK    2  A    between atoms: C_14  and  C_15
REMARK    3  A    between atoms: C_14  and  C_16
REMARK    4  A    between atoms: C_20  and  C_21
REMARK    5  A    between atoms: C_20  and  C_22
REMARK                            x       y       z     vdW  Elec       q    Type
REMARK                         _______ _______ _______ _____ _____    ______ ____
ROOT
ATOM      1  C   UNL     1      -3.091  15.056  25.116  0.00  0.00    +0.000 C 
ATOM      2  C   UNL     1      -2.770  13.641  24.469  0.00  0.00    +0.000 C 
ATOM      3  C   UNL     1      -3.971  13.015  23.770  0.00  0.00    +0.000 A 
ATOM      4  C   UNL     1      -5.299  12.885  24.110  0.00  0.00    +0.000 A 
ATOM      5  N   UNL     1      -6.001  12.644  22.940  0.00  0.00    +0.000 N 
ATOM      6  C   UNL     1      -5.139  12.597  21.865  0.00  0.00    +0.000 A 
ATOM      7  C   UNL     1      -5.333  12.631  20.482  0.00  0.00    +0.000 A 
ATOM      8  C   UNL     1      -4.179  12.646  19.677  0.00  0.00    +0.000 A 
ATOM      9  C   UNL     1      -2.890  12.576  20.222  0.00  0.00    +0.000 A 
ATOM     10  C   UNL     1      -2.710  12.559  21.607  0.00  0.00    +0.000 A 
ATOM     11  C   UNL     1      -3.869  12.611  22.407  0.00  0.00    +0.000 A 
ATOM     12  C   UNL     1      -1.393  12.632  22.359  0.00  0.00    +0.000 C 
ATOM     13  C   UNL     1      -0.139  12.875  21.487  0.00  0.00    +0.000 C 
ATOM     14  C   UNL     1      -1.172  11.238  23.003  0.00  0.00    +0.000 C 
ATOM     15  C   UNL     1      -1.575  13.810  23.425  0.00  0.00    +0.000 C 
ATOM     16  C   UNL     1      -1.717  15.196  22.712  0.00  0.00    +0.000 C 
ATOM     17  C   UNL     1      -3.154  15.752  22.662  0.00  0.00    +0.000 C 
ATOM     18  C   UNL     1      -3.626  16.142  24.082  0.00  0.00    +0.000 C 
ATOM     19  C   UNL     1      -3.116  17.599  24.248  0.00  0.00    +0.000 C 
ATOM     20  H   UNL     1      -7.009  12.663  22.862  0.00  0.00    +0.000 HD
ENDROOT
BRANCH   1  22
ATOM     21  C   UNL     1      -1.000  15.942  26.419  0.00  0.00    +0.000 C 
ATOM     22  N   UNL     1      -1.939  15.530  25.842  0.00  0.00    +0.000 NA
ENDBRANCH   1  22
BRANCH  18  23
ATOM     23  C   UNL     1      -5.133  16.299  24.333  0.00  0.00    +0.000 C 
ATOM     24  C   UNL     1      -6.154  16.370  23.471  0.00  0.00    +0.000 C 
ENDBRANCH  18  23
TORSDOF 2
ENDMDL
MODEL 8
REMARK VINA RESULT:      -5.5      5.507      8.038
REMARK  Name = 
REMARK  5 active torsions:
REMARK  status: ('A' for Active; 'I' for Inactive)
REMARK    1  A    between atoms: N_2  and  C_3
REMARK    2  A    between atoms: C_14  and  C_15
REMARK    3  A    between atoms: C_14  and  C_16
REMARK    4  A    between atoms: C_20  and  C_21
REMARK    5  A    between atoms: C_20  and  C_22
REMARK                            x       y       z     vdW  Elec       q    Type
REMARK                         _______ _______ _______ _____ _____    ______ ____
ROOT
ATOM      1  C   UNL     1      -7.515  12.907  19.658  0.00  0.00    +0.000 C 
ATOM      2  C   UNL     1      -7.212  13.988  20.781  0.00  0.00    +0.000 C 
ATOM      3  C   UNL     1      -7.141  13.393  22.183  0.00  0.00    +0.000 A 
ATOM      4  C   UNL     1      -7.917  12.479  22.861  0.00  0.00    +0.000 A 
ATOM      5  N   UNL     1      -7.152  11.985  23.906  0.00  0.00    +0.000 N 
ATOM      6  C   UNL     1      -5.911  12.587  23.916  0.00  0.00    +0.000 A 
ATOM      7  C   UNL     1      -4.713  12.294  24.572  0.00  0.00    +0.000 A 
ATOM      8  C   UNL     1      -3.605  13.104  24.267  0.00  0.00    +0.000 A 
ATOM      9  C   UNL     1      -3.697  14.192  23.388  0.00  0.00    +0.000 A 
ATOM     10  C   UNL     1      -4.897  14.464  22.726  0.00  0.00    +0.000 A 
ATOM     11  C   UNL     1      -5.984  13.606  22.988  0.00  0.00    +0.000 A 
ATOM     12  C   UNL     1      -5.129  15.501  21.643  0.00  0.00    +0.000 C 
ATOM     13  C   UNL     1      -3.865  16.241  21.144  0.00  0.00    +0.000 C 
ATOM     14  C   UNL     1      -6.021  16.605  22.269  0.00  0.00    +0.000 C 
ATOM     15  C   UNL     1      -5.832  14.713  20.441  0.00  0.00    +0.000 C 
ATOM     16  C   UNL     1      -4.854  13.669  19.806  0.00  0.00    +0.000 C 
ATOM     17  C   UNL     1      -5.124  12.205  20.206  0.00  0.00    +0.000 C 
ATOM     18  C   UNL     1      -6.457  11.720  19.590  0.00  0.00    +0.000 C 
ATOM     19  C   UNL     1      -6.043  11.212  18.182  0.00  0.00    +0.000 C 
ATOM     20  H   UNL     1      -7.404  11.188  24.474  0.00  0.00    +0.000 HD
ENDROOT
BRANCH   1  22
ATOM     21  C   UNL     1      -7.822  14.105  17.350  0.00  0.00    +0.000 C 
ATOM     22  N   UNL     1      -7.668  13.563  18.383  0.00  0.00    +0.000 NA
ENDBRANCH   1  22
BRANCH  18  23
ATOM     23  C   UNL     1      -7.132  10.479  20.193  0.00  0.00    +0.000 C 
ATOM     24  C   UNL     1      -7.170   9.215  19.759  0.00  0.00    +0.000 C 
ENDBRANCH  18  23
TORSDOF 2
ENDMDL
MODEL 9
REMARK VINA RESULT:      -5.5      8.928     10.295
REMARK  Name = 
REMARK  5 active torsions:
REMARK  status: ('A' for Active; 'I' for Inactive)
REMARK    1  A    between atoms: N_2  and  C_3
REMARK    2  A    between atoms: C_14  and  C_15
REMARK    3  A    between atoms: C_14  and  C_16
REMARK    4  A    between atoms: C_20  and  C_21
REMARK    5  A    between atoms: C_20  and  C_22
REMARK                            x       y       z     vdW  Elec       q    Type
REMARK                         _______ _______ _______ _____ _____    ______ ____
ROOT
ATOM      1  C   UNL     1       9.962  16.334  19.355  0.00  0.00    +0.000 C 
ATOM      2  C   UNL     1      10.626  15.033  19.979  0.00  0.00    +0.000 C 
ATOM      3  C   UNL     1      10.329  14.863  21.464  0.00  0.00    +0.000 A 
ATOM      4  C   UNL     1      10.330  15.730  22.533  0.00  0.00    +0.000 A 
ATOM      5  N   UNL     1       9.567  15.150  23.535  0.00  0.00    +0.000 N 
ATOM      6  C   UNL     1       9.100  13.918  23.127  0.00  0.00    +0.000 A 
ATOM      7  C   UNL     1       8.122  13.055  23.625  0.00  0.00    +0.000 A 
ATOM      8  C   UNL     1       7.857  11.893  22.878  0.00  0.00    +0.000 A 
ATOM      9  C   UNL     1       8.572  11.576  21.716  0.00  0.00    +0.000 A 
ATOM     10  C   UNL     1       9.537  12.456  21.219  0.00  0.00    +0.000 A 
ATOM     11  C   UNL     1       9.748  13.650  21.938  0.00  0.00    +0.000 A 
ATOM     12  C   UNL     1      10.291  12.341  19.908  0.00  0.00    +0.000 C 
ATOM     13  C   UNL     1       9.844  11.188  18.979  0.00  0.00    +0.000 C 
ATOM     14  C   UNL     1      11.765  12.017  20.270  0.00  0.00    +0.000 C 
ATOM     15  C   UNL     1      10.105  13.754  19.181  0.00  0.00    +0.000 C 
ATOM     16  C   UNL     1       8.611  13.984  18.775  0.00  0.00    +0.000 C 
ATOM     17  C   UNL     1       7.838  14.959  19.685  0.00  0.00    +0.000 C 
ATOM     18  C   UNL     1       8.378  16.397  19.507  0.00  0.00    +0.000 C 
ATOM     19  C   UNL     1       7.566  16.945  18.303  0.00  0.00    +0.000 C 
ATOM     20  H   UNL     1       9.261  15.627  24.372  0.00  0.00    +0.000 HD
ENDROOT
BRANCH   1  22
ATOM     21  C   UNL     1      10.724  16.620  16.867  0.00  0.00    +0.000 C 
ATOM     22  N   UNL     1      10.374  16.477  17.981  0.00  0.00    +0.000 NA
ENDBRANCH   1  22
BRANCH  18  23
ATOM     23  C   UNL     1       8.072  17.433  20.600  0.00  0.00    +0.000 C 
ATOM     24  C   UNL     1       6.902  17.884  21.064  0.00  0.00    +0.000 C 
ENDBRANCH  18  23
TORSDOF 2
ENDMDL
