MODEL 1
REMARK VINA RESULT:      -7.7      0.000      0.000
REMARK  Name = 
REMARK  8 active torsions:
REMARK  status: ('A' for Active; 'I' for Inactive)
REMARK    1  A    between atoms: C_1  and  C_2
REMARK    2  A    between atoms: C_2  and  C_3
REMARK    3  A    between atoms: C_2  and  O_4
REMARK    4  A    between atoms: C_2  and  C_23
REMARK    5  A    between atoms: O_4  and  C_5
REMARK    6  A    between atoms: C_8  and  N_9
REMARK    7  A    between atoms: N_12  and  C_13
REMARK    8  A    between atoms: C_23  and  O_25
REMARK                            x       y       z     vdW  Elec       q    Type
REMARK                         _______ _______ _______ _____ _____    ______ ____
ROOT
ATOM      1  C   UNL     1       6.214   5.277  18.428  0.00  0.00    +0.000 A 
ATOM      2  C   UNL     1       7.425   5.587  19.043  0.00  0.00    +0.000 A 
ATOM      3  C   UNL     1       8.113   6.762  18.723  0.00  0.00    +0.000 A 
ATOM      4  C   UNL     1       7.614   7.651  17.769  0.00  0.00    +0.000 A 
ATOM      5  C   UNL     1       6.421   7.319  17.125  0.00  0.00    +0.000 A 
ATOM      6  C   UNL     1       5.741   6.129  17.435  0.00  0.00    +0.000 A 
ENDROOT
BRANCH   4   7
ATOM      7  N   UNL     1       8.241   8.873  17.434  0.00  0.00    +0.000 N 
ATOM      8  C   UNL     1       8.734   9.804  18.333  0.00  0.00    +0.000 C 
ATOM      9  O   UNL     1       8.799   9.638  19.546  0.00  0.00    +0.000 OA
ATOM     10  N   UNL     1       9.127  10.979  17.707  0.00  0.00    +0.000 N 
ATOM     11  H   UNL     1       8.460   9.034  16.460  0.00  0.00    +0.000 HD
ATOM     12  H   UNL     1       8.550  11.248  16.919  0.00  0.00    +0.000 HD
BRANCH  10  13
ATOM     13  C   UNL     1       9.618  12.064  18.487  0.00  0.00    +0.000 A 
ATOM     14  C   UNL     1      10.769  11.913  19.272  0.00  0.00    +0.000 A 
ATOM     15  C   UNL     1      11.188  12.939  20.121  0.00  0.00    +0.000 A 
ATOM     16  C   UNL     1      10.461  14.124  20.182  0.00  0.00    +0.000 A 
ATOM     17 CL   UNL     1      10.952  15.367  21.266  0.00  0.00    +0.000 Cl
ATOM     18  C   UNL     1       9.335  14.307  19.380  0.00  0.00    +0.000 A 
ATOM     19  C   UNL     1       8.926  13.284  18.521  0.00  0.00    +0.000 A 
ATOM     20 CL   UNL     1       7.499  13.522  17.574  0.00  0.00    +0.000 Cl
ENDBRANCH  10  13
ENDBRANCH   4   7
BRANCH   1  21
ATOM     21  O   UNL     1       5.630   4.135  18.887  0.00  0.00    +0.000 OA
BRANCH  21  23
ATOM     22  C   UNL     1       3.454   5.060  19.736  0.00  0.00    +0.000 C 
ATOM     23  C   UNL     1       4.199   3.956  18.974  0.00  0.00    +0.000 C 
ATOM     24  C   UNL     1       3.622   3.665  17.589  0.00  0.00    +0.000 C 
BRANCH  23  25
ATOM     25  C   UNL     1       4.003   2.667  19.807  0.00  0.00    +0.000 C 
ATOM     26  O   UNL     1       2.916   2.213  20.136  0.00  0.00    +0.000 OA
BRANCH  25  27
ATOM     27  O   UNL     1       5.167   2.060  20.161  0.00  0.00    +0.000 OA
ATOM     28  H   UNL     1       5.917   2.591  19.821  0.00  0.00    +0.000 HD
ENDBRANCH  25  27
ENDBRANCH  23  25
ENDBRANCH  21  23
ENDBRANCH   1  21
TORSDOF 6
ENDMDL
MODEL 2
REMARK VINA RESULT:      -7.7      7.333      9.501
REMARK  Name = 
REMARK  8 active torsions:
REMARK  status: ('A' for Active; 'I' for Inactive)
REMARK    1  A    between atoms: C_1  and  C_2
REMARK    2  A    between atoms: C_2  and  C_3
REMARK    3  A    between atoms: C_2  and  O_4
REMARK    4  A    between atoms: C_2  and  C_23
REMARK    5  A    between atoms: O_4  and  C_5
REMARK    6  A    between atoms: C_8  and  N_9
REMARK    7  A    between atoms: N_12  and  C_13
REMARK    8  A    between atoms: C_23  and  O_25
REMARK                            x       y       z     vdW  Elec       q    Type
REMARK                         _______ _______ _______ _____ _____    ______ ____
ROOT
ATOM      1  C   UNL     1       2.990   6.759  19.094  0.00  0.00    +0.000 A 
ATOM      2  C   UNL     1       2.204   7.317  20.101  0.00  0.00    +0.000 A 
ATOM      3  C   UNL     1       1.426   8.453  19.859  0.00  0.00    +0.000 A 
ATOM      4  C   UNL     1       1.423   9.070  18.606  0.00  0.00    +0.000 A 
ATOM      5  C   UNL     1       2.240   8.534  17.610  0.00  0.00    +0.000 A 
ATOM      6  C   UNL     1       3.036   7.402  17.862  0.00  0.00    +0.000 A 
ENDROOT
BRANCH   4   7
ATOM      7  N   UNL     1       0.626  10.194  18.287  0.00  0.00    +0.000 N 
ATOM      8  C   UNL     1      -0.746  10.287  18.452  0.00  0.00    +0.000 C 
ATOM      9  O   UNL     1      -1.442   9.445  19.010  0.00  0.00    +0.000 OA
ATOM     10  N   UNL     1      -1.265  11.442  17.883  0.00  0.00    +0.000 N 
ATOM     11  H   UNL     1       1.103  11.047  18.031  0.00  0.00    +0.000 HD
ATOM     12  H   UNL     1      -0.807  11.729  17.026  0.00  0.00    +0.000 HD
BRANCH  10  13
ATOM     13  C   UNL     1      -2.668  11.679  17.920  0.00  0.00    +0.000 A 
ATOM     14  C   UNL     1      -3.280  12.149  19.090  0.00  0.00    +0.000 A 
ATOM     15  C   UNL     1      -4.668  12.276  19.162  0.00  0.00    +0.000 A 
ATOM     16  C   UNL     1      -5.450  11.940  18.061  0.00  0.00    +0.000 A 
ATOM     17 CL   UNL     1      -7.163  12.051  18.170  0.00  0.00    +0.000 Cl
ATOM     18  C   UNL     1      -4.856  11.507  16.876  0.00  0.00    +0.000 A 
ATOM     19  C   UNL     1      -3.465  11.394  16.802  0.00  0.00    +0.000 A 
ATOM     20 CL   UNL     1      -2.762  10.809  15.335  0.00  0.00    +0.000 Cl
ENDBRANCH  10  13
ENDBRANCH   4   7
BRANCH   1  21
ATOM     21  O   UNL     1       3.641   5.620  19.460  0.00  0.00    +0.000 OA
BRANCH  21  23
ATOM     22  C   UNL     1       1.970   4.026  18.472  0.00  0.00    +0.000 C 
ATOM     23  C   UNL     1       3.431   4.345  18.814  0.00  0.00    +0.000 C 
ATOM     24  C   UNL     1       4.390   4.192  17.632  0.00  0.00    +0.000 C 
BRANCH  23  25
ATOM     25  C   UNL     1       3.857   3.287  19.859  0.00  0.00    +0.000 C 
ATOM     26  O   UNL     1       4.927   2.694  19.848  0.00  0.00    +0.000 OA
BRANCH  25  27
ATOM     27  O   UNL     1       2.922   3.056  20.818  0.00  0.00    +0.000 OA
ATOM     28  H   UNL     1       2.933   2.105  21.050  0.00  0.00    +0.000 HD
ENDBRANCH  25  27
ENDBRANCH  23  25
ENDBRANCH  21  23
ENDBRANCH   1  21
TORSDOF 6
ENDMDL
MODEL 3
REMARK VINA RESULT:      -7.6      1.587      1.754
REMARK  Name = 
REMARK  8 active torsions:
REMARK  status: ('A' for Active; 'I' for Inactive)
REMARK    1  A    between atoms: C_1  and  C_2
REMARK    2  A    between atoms: C_2  and  C_3
REMARK    3  A    between atoms: C_2  and  O_4
REMARK    4  A    between atoms: C_2  and  C_23
REMARK    5  A    between atoms: O_4  and  C_5
REMARK    6  A    between atoms: C_8  and  N_9
REMARK    7  A    between atoms: N_12  and  C_13
REMARK    8  A    between atoms: C_23  and  O_25
REMARK                            x       y       z     vdW  Elec       q    Type
REMARK                         _______ _______ _______ _____ _____    ______ ____
ROOT
ATOM      1  C   UNL     1       6.131   5.346  17.686  0.00  0.00    +0.000 A 
ATOM      2  C   UNL     1       7.036   5.072  18.710  0.00  0.00    +0.000 A 
ATOM      3  C   UNL     1       7.948   6.040  19.142  0.00  0.00    +0.000 A 
ATOM      4  C   UNL     1       7.988   7.304  18.550  0.00  0.00    +0.000 A 
ATOM      5  C   UNL     1       7.109   7.564  17.498  0.00  0.00    +0.000 A 
ATOM      6  C   UNL     1       6.206   6.582  17.054  0.00  0.00    +0.000 A 
ENDROOT
BRANCH   4   7
ATOM      7  N   UNL     1       8.858   8.338  18.969  0.00  0.00    +0.000 N 
ATOM      8  C   UNL     1       8.804   9.659  18.555  0.00  0.00    +0.000 C 
ATOM      9  O   UNL     1       7.917  10.137  17.857  0.00  0.00    +0.000 OA
ATOM     10  N   UNL     1       9.896  10.392  18.999  0.00  0.00    +0.000 N 
ATOM     11  H   UNL     1       9.498   8.133  19.724  0.00  0.00    +0.000 HD
ATOM     12  H   UNL     1      10.766   9.873  19.026  0.00  0.00    +0.000 HD
BRANCH  10  13
ATOM     13  C   UNL     1      10.025  11.760  18.628  0.00  0.00    +0.000 A 
ATOM     14  C   UNL     1      10.628  12.115  17.414  0.00  0.00    +0.000 A 
ATOM     15  C   UNL     1      10.855  13.456  17.100  0.00  0.00    +0.000 A 
ATOM     16  C   UNL     1      10.472  14.449  17.997  0.00  0.00    +0.000 A 
ATOM     17 CL   UNL     1      10.798  16.098  17.630  0.00  0.00    +0.000 Cl
ATOM     18  C   UNL     1       9.837  14.116  19.193  0.00  0.00    +0.000 A 
ATOM     19  C   UNL     1       9.598  12.774  19.499  0.00  0.00    +0.000 A 
ATOM     20 CL   UNL     1       8.852  12.391  21.010  0.00  0.00    +0.000 Cl
ENDBRANCH  10  13
ENDBRANCH   4   7
BRANCH   1  21
ATOM     21  O   UNL     1       5.265   4.329  17.420  0.00  0.00    +0.000 OA
BRANCH  21  23
ATOM     22  C   UNL     1       3.827   5.072  19.341  0.00  0.00    +0.000 C 
ATOM     23  C   UNL     1       4.078   4.074  18.203  0.00  0.00    +0.000 C 
ATOM     24  C   UNL     1       2.874   3.874  17.281  0.00  0.00    +0.000 C 
BRANCH  23  25
ATOM     25  C   UNL     1       4.332   2.711  18.889  0.00  0.00    +0.000 C 
ATOM     26  O   UNL     1       4.859   2.573  19.984  0.00  0.00    +0.000 OA
BRANCH  25  27
ATOM     27  O   UNL     1       3.916   1.643  18.157  0.00  0.00    +0.000 OA
ATOM     28  H   UNL     1       3.794   0.877  18.754  0.00  0.00    +0.000 HD
ENDBRANCH  25  27
ENDBRANCH  23  25
ENDBRANCH  21  23
ENDBRANCH   1  21
TORSDOF 6
ENDMDL
MODEL 4
REMARK VINA RESULT:      -7.6      1.165      1.477
REMARK  Name = 
REMARK  8 active torsions:
REMARK  status: ('A' for Active; 'I' for Inactive)
REMARK    1  A    between atoms: C_1  and  C_2
REMARK    2  A    between atoms: C_2  and  C_3
REMARK    3  A    between atoms: C_2  and  O_4
REMARK    4  A    between atoms: C_2  and  C_23
REMARK    5  A    between atoms: O_4  and  C_5
REMARK    6  A    between atoms: C_8  and  N_9
REMARK    7  A    between atoms: N_12  and  C_13
REMARK    8  A    between atoms: C_23  and  O_25
REMARK                            x       y       z     vdW  Elec       q    Type
REMARK                         _______ _______ _______ _____ _____    ______ ____
ROOT
ATOM      1  C   UNL     1       6.389   5.432  18.414  0.00  0.00    +0.000 A 
ATOM      2  C   UNL     1       7.605   5.717  19.031  0.00  0.00    +0.000 A 
ATOM      3  C   UNL     1       8.275   6.918  18.781  0.00  0.00    +0.000 A 
ATOM      4  C   UNL     1       7.752   7.862  17.895  0.00  0.00    +0.000 A 
ATOM      5  C   UNL     1       6.554   7.560  17.247  0.00  0.00    +0.000 A 
ATOM      6  C   UNL     1       5.892   6.343  17.487  0.00  0.00    +0.000 A 
ENDROOT
BRANCH   4   7
ATOM      7  N   UNL     1       8.360   9.112  17.633  0.00  0.00    +0.000 N 
ATOM      8  C   UNL     1       8.816  10.007  18.587  0.00  0.00    +0.000 C 
ATOM      9  O   UNL     1       8.863   9.781  19.791  0.00  0.00    +0.000 OA
ATOM     10  N   UNL     1       9.197  11.219  18.028  0.00  0.00    +0.000 N 
ATOM     11  H   UNL     1       8.594   9.325  16.673  0.00  0.00    +0.000 HD
ATOM     12  H   UNL     1       8.629  11.515  17.243  0.00  0.00    +0.000 HD
BRANCH  10  13
ATOM     13  C   UNL     1       9.651  12.273  18.871  0.00  0.00    +0.000 A 
ATOM     14  C   UNL     1       8.750  13.222  19.372  0.00  0.00    +0.000 A 
ATOM     15  C   UNL     1       9.209  14.317  20.106  0.00  0.00    +0.000 A 
ATOM     16  C   UNL     1      10.572  14.462  20.348  0.00  0.00    +0.000 A 
ATOM     17 CL   UNL     1      11.140  15.838  21.211  0.00  0.00    +0.000 Cl
ATOM     18  C   UNL     1      11.479  13.508  19.889  0.00  0.00    +0.000 A 
ATOM     19  C   UNL     1      11.016  12.405  19.167  0.00  0.00    +0.000 A 
ATOM     20 CL   UNL     1      12.169  11.264  18.571  0.00  0.00    +0.000 Cl
ENDBRANCH  10  13
ENDBRANCH   4   7
BRANCH   1  21
ATOM     21  O   UNL     1       5.826   4.255  18.804  0.00  0.00    +0.000 OA
BRANCH  21  23
ATOM     22  C   UNL     1       3.538   4.898  19.619  0.00  0.00    +0.000 C 
ATOM     23  C   UNL     1       4.406   3.994  18.734  0.00  0.00    +0.000 C 
ATOM     24  C   UNL     1       3.954   3.942  17.274  0.00  0.00    +0.000 C 
BRANCH  23  25
ATOM     25  C   UNL     1       4.230   2.564  19.295  0.00  0.00    +0.000 C 
ATOM     26  O   UNL     1       3.313   1.811  18.998  0.00  0.00    +0.000 OA
BRANCH  25  27
ATOM     27  O   UNL     1       5.198   2.197  20.176  0.00  0.00    +0.000 OA
ATOM     28  H   UNL     1       5.804   1.566  19.737  0.00  0.00    +0.000 HD
ENDBRANCH  25  27
ENDBRANCH  23  25
ENDBRANCH  21  23
ENDBRANCH   1  21
TORSDOF 6
ENDMDL
MODEL 5
REMARK VINA RESULT:      -7.6      7.008      8.920
REMARK  Name = 
REMARK  8 active torsions:
REMARK  status: ('A' for Active; 'I' for Inactive)
REMARK    1  A    between atoms: C_1  and  C_2
REMARK    2  A    between atoms: C_2  and  C_3
REMARK    3  A    between atoms: C_2  and  O_4
REMARK    4  A    between atoms: C_2  and  C_23
REMARK    5  A    between atoms: O_4  and  C_5
REMARK    6  A    between atoms: C_8  and  N_9
REMARK    7  A    between atoms: N_12  and  C_13
REMARK    8  A    between atoms: C_23  and  O_25
REMARK                            x       y       z     vdW  Elec       q    Type
REMARK                         _______ _______ _______ _____ _____    ______ ____
ROOT
ATOM      1  C   UNL     1       3.306   6.411  18.815  0.00  0.00    +0.000 A 
ATOM      2  C   UNL     1       2.455   6.881  19.813  0.00  0.00    +0.000 A 
ATOM      3  C   UNL     1       1.704   8.045  19.629  0.00  0.00    +0.000 A 
ATOM      4  C   UNL     1       1.793   8.779  18.445  0.00  0.00    +0.000 A 
ATOM      5  C   UNL     1       2.675   8.330  17.461  0.00  0.00    +0.000 A 
ATOM      6  C   UNL     1       3.444   7.169  17.657  0.00  0.00    +0.000 A 
ENDROOT
BRANCH   4   7
ATOM      7  N   UNL     1       1.029   9.940  18.182  0.00  0.00    +0.000 N 
ATOM      8  C   UNL     1      -0.183  10.261  18.771  0.00  0.00    +0.000 C 
ATOM      9  O   UNL     1      -0.700   9.639  19.692  0.00  0.00    +0.000 OA
ATOM     10  N   UNL     1      -0.775  11.369  18.178  0.00  0.00    +0.000 N 
ATOM     11  H   UNL     1       1.450  10.656  17.608  0.00  0.00    +0.000 HD
ATOM     12  H   UNL     1      -0.630  11.437  17.178  0.00  0.00    +0.000 HD
BRANCH  10  13
ATOM     13  C   UNL     1      -2.049  11.814  18.631  0.00  0.00    +0.000 A 
ATOM     14  C   UNL     1      -2.157  12.619  19.773  0.00  0.00    +0.000 A 
ATOM     15  C   UNL     1      -3.411  12.965  20.280  0.00  0.00    +0.000 A 
ATOM     16  C   UNL     1      -4.562  12.512  19.642  0.00  0.00    +0.000 A 
ATOM     17 CL   UNL     1      -6.105  12.899  20.298  0.00  0.00    +0.000 Cl
ATOM     18  C   UNL     1      -4.474  11.742  18.483  0.00  0.00    +0.000 A 
ATOM     19  C   UNL     1      -3.218  11.410  17.969  0.00  0.00    +0.000 A 
ATOM     20 CL   UNL     1      -3.140  10.414  16.558  0.00  0.00    +0.000 Cl
ENDBRANCH  10  13
ENDBRANCH   4   7
BRANCH   1  21
ATOM     21  O   UNL     1       3.922   5.234  19.113  0.00  0.00    +0.000 OA
BRANCH  21  23
ATOM     22  C   UNL     1       2.049   3.829  18.201  0.00  0.00    +0.000 C 
ATOM     23  C   UNL     1       3.542   3.970  18.525  0.00  0.00    +0.000 C 
ATOM     24  C   UNL     1       4.463   3.641  17.349  0.00  0.00    +0.000 C 
BRANCH  23  25
ATOM     25  C   UNL     1       3.836   2.912  19.616  0.00  0.00    +0.000 C 
ATOM     26  O   UNL     1       3.006   2.479  20.402  0.00  0.00    +0.000 OA
BRANCH  25  27
ATOM     27  O   UNL     1       5.129   2.492  19.637  0.00  0.00    +0.000 OA
ATOM     28  H   UNL     1       5.221   1.718  19.044  0.00  0.00    +0.000 HD
ENDBRANCH  25  27
ENDBRANCH  23  25
ENDBRANCH  21  23
ENDBRANCH   1  21
TORSDOF 6
ENDMDL
MODEL 6
REMARK VINA RESULT:      -7.4      6.614      7.806
REMARK  Name = 
REMARK  8 active torsions:
REMARK  status: ('A' for Active; 'I' for Inactive)
REMARK    1  A    between atoms: C_1  and  C_2
REMARK    2  A    between atoms: C_2  and  C_3
REMARK    3  A    between atoms: C_2  and  O_4
REMARK    4  A    between atoms: C_2  and  C_23
REMARK    5  A    between atoms: O_4  and  C_5
REMARK    6  A    between atoms: C_8  and  N_9
REMARK    7  A    between atoms: N_12  and  C_13
REMARK    8  A    between atoms: C_23  and  O_25
REMARK                            x       y       z     vdW  Elec       q    Type
REMARK                         _______ _______ _______ _____ _____    ______ ____
ROOT
ATOM      1  C   UNL     1       3.283   6.445  18.699  0.00  0.00    +0.000 A 
ATOM      2  C   UNL     1       2.541   6.535  19.875  0.00  0.00    +0.000 A 
ATOM      3  C   UNL     1       1.705   7.630  20.116  0.00  0.00    +0.000 A 
ATOM      4  C   UNL     1       1.599   8.671  19.191  0.00  0.00    +0.000 A 
ATOM      5  C   UNL     1       2.372   8.598  18.032  0.00  0.00    +0.000 A 
ATOM      6  C   UNL     1       3.226   7.505  17.801  0.00  0.00    +0.000 A 
ENDROOT
BRANCH   4   7
ATOM      7  N   UNL     1       0.740   9.782  19.357  0.00  0.00    +0.000 N 
ATOM      8  C   UNL     1       0.591  10.523  20.518  0.00  0.00    +0.000 C 
ATOM      9  O   UNL     1       1.274  10.389  21.526  0.00  0.00    +0.000 OA
ATOM     10  N   UNL     1      -0.453  11.434  20.426  0.00  0.00    +0.000 N 
ATOM     11  H   UNL     1       0.284  10.147  18.533  0.00  0.00    +0.000 HD
ATOM     12  H   UNL     1      -1.249  11.107  19.893  0.00  0.00    +0.000 HD
BRANCH  10  13
ATOM     13  C   UNL     1      -0.777  12.251  21.546  0.00  0.00    +0.000 A 
ATOM     14  C   UNL     1      -1.794  11.873  22.433  0.00  0.00    +0.000 A 
ATOM     15  C   UNL     1      -2.187  12.725  23.467  0.00  0.00    +0.000 A 
ATOM     16  C   UNL     1      -1.557  13.957  23.622  0.00  0.00    +0.000 A 
ATOM     17 CL   UNL     1      -2.077  15.025  24.866  0.00  0.00    +0.000 Cl
ATOM     18  C   UNL     1      -0.518  14.334  22.772  0.00  0.00    +0.000 A 
ATOM     19  C   UNL     1      -0.117  13.473  21.747  0.00  0.00    +0.000 A 
ATOM     20 CL   UNL     1       1.143  13.988  20.681  0.00  0.00    +0.000 Cl
ENDBRANCH  10  13
ENDBRANCH   4   7
BRANCH   1  21
ATOM     21  O   UNL     1       3.999   5.293  18.577  0.00  0.00    +0.000 OA
BRANCH  21  23
ATOM     22  C   UNL     1       2.004   4.077  17.656  0.00  0.00    +0.000 C 
ATOM     23  C   UNL     1       3.524   4.136  17.854  0.00  0.00    +0.000 C 
ATOM     24  C   UNL     1       4.323   3.962  16.561  0.00  0.00    +0.000 C 
BRANCH  23  25
ATOM     25  C   UNL     1       3.878   2.926  18.750  0.00  0.00    +0.000 C 
ATOM     26  O   UNL     1       3.119   1.997  18.990  0.00  0.00    +0.000 OA
BRANCH  25  27
ATOM     27  O   UNL     1       5.132   2.977  19.271  0.00  0.00    +0.000 OA
ATOM     28  H   UNL     1       5.444   3.906  19.257  0.00  0.00    +0.000 HD
ENDBRANCH  25  27
ENDBRANCH  23  25
ENDBRANCH  21  23
ENDBRANCH   1  21
TORSDOF 6
ENDMDL
MODEL 7
REMARK VINA RESULT:      -7.4      6.449      8.266
REMARK  Name = 
REMARK  8 active torsions:
REMARK  status: ('A' for Active; 'I' for Inactive)
REMARK    1  A    between atoms: C_1  and  C_2
REMARK    2  A    between atoms: C_2  and  C_3
REMARK    3  A    between atoms: C_2  and  O_4
REMARK    4  A    between atoms: C_2  and  C_23
REMARK    5  A    between atoms: O_4  and  C_5
REMARK    6  A    between atoms: C_8  and  N_9
REMARK    7  A    between atoms: N_12  and  C_13
REMARK    8  A    between atoms: C_23  and  O_25
REMARK                            x       y       z     vdW  Elec       q    Type
REMARK                         _______ _______ _______ _____ _____    ______ ____
ROOT
ATOM      1  C   UNL     1       2.589   5.673  18.499  0.00  0.00    +0.000 A 
ATOM      2  C   UNL     1       2.575   7.032  18.190  0.00  0.00    +0.000 A 
ATOM      3  C   UNL     1       2.177   7.981  19.136  0.00  0.00    +0.000 A 
ATOM      4  C   UNL     1       1.769   7.595  20.414  0.00  0.00    +0.000 A 
ATOM      5  C   UNL     1       1.745   6.232  20.711  0.00  0.00    +0.000 A 
ATOM      6  C   UNL     1       2.128   5.278  19.751  0.00  0.00    +0.000 A 
ENDROOT
BRANCH   4   7
ATOM      7  N   UNL     1       1.396   8.509  21.428  0.00  0.00    +0.000 N 
ATOM      8  C   UNL     1       0.372   9.438  21.343  0.00  0.00    +0.000 C 
ATOM      9  O   UNL     1      -0.429   9.513  20.418  0.00  0.00    +0.000 OA
ATOM     10  N   UNL     1       0.367  10.310  22.423  0.00  0.00    +0.000 N 
ATOM     11  H   UNL     1       1.827   8.401  22.335  0.00  0.00    +0.000 HD
ATOM     12  H   UNL     1       1.287  10.556  22.768  0.00  0.00    +0.000 HD
BRANCH  10  13
ATOM     13  C   UNL     1      -0.594  11.360  22.477  0.00  0.00    +0.000 A 
ATOM     14  C   UNL     1      -1.787  11.197  23.193  0.00  0.00    +0.000 A 
ATOM     15  C   UNL     1      -2.776  12.181  23.156  0.00  0.00    +0.000 A 
ATOM     16  C   UNL     1      -2.572  13.337  22.408  0.00  0.00    +0.000 A 
ATOM     17 CL   UNL     1      -3.813  14.525  22.325  0.00  0.00    +0.000 Cl
ATOM     18  C   UNL     1      -1.375  13.533  21.720  0.00  0.00    +0.000 A 
ATOM     19  C   UNL     1      -0.381  12.553  21.770  0.00  0.00    +0.000 A 
ATOM     20 CL   UNL     1       1.072  12.804  20.868  0.00  0.00    +0.000 Cl
ENDBRANCH  10  13
ENDBRANCH   4   7
BRANCH   1  21
ATOM     21  O   UNL     1       3.060   4.877  17.500  0.00  0.00    +0.000 OA
BRANCH  21  23
ATOM     22  C   UNL     1       4.969   3.970  16.142  0.00  0.00    +0.000 C 
ATOM     23  C   UNL     1       4.370   4.268  17.523  0.00  0.00    +0.000 C 
ATOM     24  C   UNL     1       5.301   5.061  18.442  0.00  0.00    +0.000 C 
BRANCH  23  25
ATOM     25  C   UNL     1       4.164   2.891  18.197  0.00  0.00    +0.000 C 
ATOM     26  O   UNL     1       3.328   2.068  17.852  0.00  0.00    +0.000 OA
BRANCH  25  27
ATOM     27  O   UNL     1       5.006   2.660  19.239  0.00  0.00    +0.000 OA
ATOM     28  H   UNL     1       5.529   1.853  19.052  0.00  0.00    +0.000 HD
ENDBRANCH  25  27
ENDBRANCH  23  25
ENDBRANCH  21  23
ENDBRANCH   1  21
TORSDOF 6
ENDMDL
MODEL 8
REMARK VINA RESULT:      -7.3      6.741      8.523
REMARK  Name = 
REMARK  8 active torsions:
REMARK  status: ('A' for Active; 'I' for Inactive)
REMARK    1  A    between atoms: C_1  and  C_2
REMARK    2  A    between atoms: C_2  and  C_3
REMARK    3  A    between atoms: C_2  and  O_4
REMARK    4  A    between atoms: C_2  and  C_23
REMARK    5  A    between atoms: O_4  and  C_5
REMARK    6  A    between atoms: C_8  and  N_9
REMARK    7  A    between atoms: N_12  and  C_13
REMARK    8  A    between atoms: C_23  and  O_25
REMARK                            x       y       z     vdW  Elec       q    Type
REMARK                         _______ _______ _______ _____ _____    ______ ____
ROOT
ATOM      1  C   UNL     1       2.278   5.322  18.835  0.00  0.00    +0.000 A 
ATOM      2  C   UNL     1       1.823   5.348  20.152  0.00  0.00    +0.000 A 
ATOM      3  C   UNL     1       1.586   6.560  20.808  0.00  0.00    +0.000 A 
ATOM      4  C   UNL     1       1.811   7.780  20.168  0.00  0.00    +0.000 A 
ATOM      5  C   UNL     1       2.305   7.754  18.862  0.00  0.00    +0.000 A 
ATOM      6  C   UNL     1       2.560   6.533  18.212  0.00  0.00    +0.000 A 
ENDROOT
BRANCH   4   7
ATOM      7  N   UNL     1       1.551   9.037  20.762  0.00  0.00    +0.000 N 
ATOM      8  C   UNL     1       0.298   9.545  21.065  0.00  0.00    +0.000 C 
ATOM      9  O   UNL     1      -0.752   8.920  20.968  0.00  0.00    +0.000 OA
ATOM     10  N   UNL     1       0.356  10.871  21.472  0.00  0.00    +0.000 N 
ATOM     11  H   UNL     1       2.341   9.563  21.107  0.00  0.00    +0.000 HD
ATOM     12  H   UNL     1       1.059  11.425  20.997  0.00  0.00    +0.000 HD
BRANCH  10  13
ATOM     13  C   UNL     1      -0.846  11.567  21.782  0.00  0.00    +0.000 A 
ATOM     14  C   UNL     1      -1.414  11.473  23.060  0.00  0.00    +0.000 A 
ATOM     15  C   UNL     1      -2.649  12.065  23.332  0.00  0.00    +0.000 A 
ATOM     16  C   UNL     1      -3.317  12.759  22.328  0.00  0.00    +0.000 A 
ATOM     17 CL   UNL     1      -4.862  13.444  22.653  0.00  0.00    +0.000 Cl
ATOM     18  C   UNL     1      -2.750  12.895  21.062  0.00  0.00    +0.000 A 
ATOM     19  C   UNL     1      -1.508  12.314  20.796  0.00  0.00    +0.000 A 
ATOM     20 CL   UNL     1      -0.852  12.459  19.203  0.00  0.00    +0.000 Cl
ENDBRANCH  10  13
ENDBRANCH   4   7
BRANCH   1  21
ATOM     21  O   UNL     1       2.402   4.072  18.310  0.00  0.00    +0.000 OA
BRANCH  21  23
ATOM     22  C   UNL     1       4.434   3.728  16.874  0.00  0.00    +0.000 C 
ATOM     23  C   UNL     1       3.670   3.396  18.163  0.00  0.00    +0.000 C 
ATOM     24  C   UNL     1       4.503   3.561  19.435  0.00  0.00    +0.000 C 
BRANCH  23  25
ATOM     25  C   UNL     1       3.318   1.892  18.067  0.00  0.00    +0.000 C 
ATOM     26  O   UNL     1       4.024   0.987  18.489  0.00  0.00    +0.000 OA
BRANCH  25  27
ATOM     27  O   UNL     1       2.131   1.646  17.452  0.00  0.00    +0.000 OA
ATOM     28  H   UNL     1       1.622   2.481  17.399  0.00  0.00    +0.000 HD
ENDBRANCH  25  27
ENDBRANCH  23  25
ENDBRANCH  21  23
ENDBRANCH   1  21
TORSDOF 6
ENDMDL
MODEL 9
REMARK VINA RESULT:      -7.3      7.000      8.869
REMARK  Name = 
REMARK  8 active torsions:
REMARK  status: ('A' for Active; 'I' for Inactive)
REMARK    1  A    between atoms: C_1  and  C_2
REMARK    2  A    between atoms: C_2  and  C_3
REMARK    3  A    between atoms: C_2  and  O_4
REMARK    4  A    between atoms: C_2  and  C_23
REMARK    5  A    between atoms: O_4  and  C_5
REMARK    6  A    between atoms: C_8  and  N_9
REMARK    7  A    between atoms: N_12  and  C_13
REMARK    8  A    between atoms: C_23  and  O_25
REMARK                            x       y       z     vdW  Elec       q    Type
REMARK                         _______ _______ _______ _____ _____    ______ ____
ROOT
ATOM      1  C   UNL     1       3.107   6.343  18.975  0.00  0.00    +0.000 A 
ATOM      2  C   UNL     1       3.180   7.147  17.839  0.00  0.00    +0.000 A 
ATOM      3  C   UNL     1       2.528   8.383  17.790  0.00  0.00    +0.000 A 
ATOM      4  C   UNL     1       1.775   8.843  18.873  0.00  0.00    +0.000 A 
ATOM      5  C   UNL     1       1.671   8.019  19.995  0.00  0.00    +0.000 A 
ATOM      6  C   UNL     1       2.312   6.769  20.033  0.00  0.00    +0.000 A 
ENDROOT
BRANCH   4   7
ATOM      7  N   UNL     1       1.129  10.100  18.901  0.00  0.00    +0.000 N 
ATOM      8  C   UNL     1      -0.122  10.356  19.438  0.00  0.00    +0.000 C 
ATOM      9  O   UNL     1      -0.790   9.546  20.072  0.00  0.00    +0.000 OA
ATOM     10  N   UNL     1      -0.561  11.642  19.155  0.00  0.00    +0.000 N 
ATOM     11  H   UNL     1       1.665  10.908  18.616  0.00  0.00    +0.000 HD
ATOM     12  H   UNL     1      -0.289  11.986  18.241  0.00  0.00    +0.000 HD
BRANCH  10  13
ATOM     13  C   UNL     1      -1.848  12.062  19.594  0.00  0.00    +0.000 A 
ATOM     14  C   UNL     1      -2.017  12.628  20.865  0.00  0.00    +0.000 A 
ATOM     15  C   UNL     1      -3.293  12.937  21.339  0.00  0.00    +0.000 A 
ATOM     16  C   UNL     1      -4.405  12.688  20.540  0.00  0.00    +0.000 A 
ATOM     17 CL   UNL     1      -5.979  13.025  21.147  0.00  0.00    +0.000 Cl
ATOM     18  C   UNL     1      -4.253  12.161  19.259  0.00  0.00    +0.000 A 
ATOM     19  C   UNL     1      -2.974  11.865  18.781  0.00  0.00    +0.000 A 
ATOM     20 CL   UNL     1      -2.821  11.168  17.206  0.00  0.00    +0.000 Cl
ENDBRANCH  10  13
ENDBRANCH   4   7
BRANCH   1  21
ATOM     21  O   UNL     1       3.844   5.200  18.899  0.00  0.00    +0.000 OA
BRANCH  21  23
ATOM     22  C   UNL     1       1.979   3.919  17.806  0.00  0.00    +0.000 C 
ATOM     23  C   UNL     1       3.484   4.080  18.060  0.00  0.00    +0.000 C 
ATOM     24  C   UNL     1       4.328   4.088  16.784  0.00  0.00    +0.000 C 
BRANCH  23  25
ATOM     25  C   UNL     1       3.912   2.825  18.856  0.00  0.00    +0.000 C 
ATOM     26  O   UNL     1       3.219   1.827  19.001  0.00  0.00    +0.000 OA
BRANCH  25  27
ATOM     27  O   UNL     1       5.152   2.920  19.405  0.00  0.00    +0.000 OA
ATOM     28  H   UNL     1       5.062   3.041  20.373  0.00  0.00    +0.000 HD
ENDBRANCH  25  27
ENDBRANCH  23  25
ENDBRANCH  21  23
ENDBRANCH   1  21
TORSDOF 6
ENDMDL
