MODEL 1
REMARK VINA RESULT:      -7.7      0.000      0.000
REMARK  Name = 
REMARK  4 active torsions:
REMARK  status: ('A' for Active; 'I' for Inactive)
REMARK    1  A    between atoms: N_10  and  C_11
REMARK    2  A    between atoms: C_11  and  C_12
REMARK    3  A    between atoms: N_20  and  C_21
REMARK    4  A    between atoms: C_21  and  C_22
REMARK                            x       y       z     vdW  Elec       q    Type
REMARK                         _______ _______ _______ _____ _____    ______ ____
ROOT
ATOM      1  C   UNL     1       4.327   5.183  18.660  0.00  0.00    +0.000 C 
ATOM      2  O   UNL     1       4.382   4.644  19.766  0.00  0.00    +0.000 OA
ATOM      3  N   UNL     1       5.439   5.267  17.850  0.00  0.00    +0.000 N 
ATOM      4  C   UNL     1       5.583   5.973  16.576  0.00  0.00    +0.000 C 
ATOM      5  C   UNL     1       7.127   6.158  16.501  0.00  0.00    +0.000 C 
ATOM      6  C   UNL     1       7.579   4.800  17.046  0.00  0.00    +0.000 C 
ATOM      7  C   UNL     1       6.798   4.986  18.342  0.00  0.00    +0.000 C 
ATOM      8  C   UNL     1       7.391   6.321  18.841  0.00  0.00    +0.000 C 
ATOM      9  N   UNL     1       7.685   7.047  17.565  0.00  0.00    +0.000 NA
ENDROOT
BRANCH   1  10
ATOM     10  C   UNL     1       3.035   5.797  18.093  0.00  0.00    +0.000 C 
BRANCH  10  20
ATOM     11  O   UNL     1       2.416   8.547  17.185  0.00  0.00    +0.000 OA
ATOM     12  C   UNL     1       2.209   8.152  18.319  0.00  0.00    +0.000 C 
ATOM     13  C   UNL     1       1.568   8.937  19.382  0.00  0.00    +0.000 A 
ATOM     14  C   UNL     1       1.133  10.250  19.359  0.00  0.00    +0.000 A 
ATOM     15  C   UNL     1       0.532  10.746  20.518  0.00  0.00    +0.000 A 
ATOM     16  C   UNL     1       0.377   9.925  21.651  0.00  0.00    +0.000 A 
ATOM     17  C   UNL     1       0.825   8.599  21.648  0.00  0.00    +0.000 A 
ATOM     18  C   UNL     1       1.429   8.116  20.500  0.00  0.00    +0.000 A 
ATOM     19  C   UNL     1       2.005   6.767  20.221  0.00  0.00    +0.000 C 
ATOM     20  N   UNL     1       2.475   6.904  18.851  0.00  0.00    +0.000 N 
ENDBRANCH  10  20
ENDBRANCH   1  10
BRANCH   9  21
ATOM     21  C   UNL     1       7.144   8.410  17.532  0.00  0.00    +0.000 C 
BRANCH  21  22
ATOM     22  C   UNL     1       8.113   9.454  18.049  0.00  0.00    +0.000 A 
ATOM     23  C   UNL     1       8.950   9.187  19.142  0.00  0.00    +0.000 A 
ATOM     24  C   UNL     1       9.806  10.176  19.637  0.00  0.00    +0.000 A 
ATOM     25  C   UNL     1       9.834  11.433  19.033  0.00  0.00    +0.000 A 
ATOM     26  I   UNL     1      11.070  12.921  19.794  0.00  0.00    +0.000 I 
ATOM     27  C   UNL     1       9.027  11.705  17.932  0.00  0.00    +0.000 A 
ATOM     28  C   UNL     1       8.171  10.717  17.440  0.00  0.00    +0.000 A 
ENDBRANCH  21  22
ENDBRANCH   9  21
TORSDOF 4
ENDMDL
MODEL 2
REMARK VINA RESULT:      -7.6      3.324      6.745
REMARK  Name = 
REMARK  4 active torsions:
REMARK  status: ('A' for Active; 'I' for Inactive)
REMARK    1  A    between atoms: N_10  and  C_11
REMARK    2  A    between atoms: C_11  and  C_12
REMARK    3  A    between atoms: N_20  and  C_21
REMARK    4  A    between atoms: C_21  and  C_22
REMARK                            x       y       z     vdW  Elec       q    Type
REMARK                         _______ _______ _______ _____ _____    ______ ____
ROOT
ATOM      1  C   UNL     1       2.546   2.155  18.296  0.00  0.00    +0.000 C 
ATOM      2  O   UNL     1       1.587   1.861  17.580  0.00  0.00    +0.000 OA
ATOM      3  N   UNL     1       2.366   2.550  19.604  0.00  0.00    +0.000 N 
ATOM      4  C   UNL     1       3.368   3.047  20.547  0.00  0.00    +0.000 C 
ATOM      5  C   UNL     1       2.476   3.819  21.563  0.00  0.00    +0.000 C 
ATOM      6  C   UNL     1       1.288   2.856  21.650  0.00  0.00    +0.000 C 
ATOM      7  C   UNL     1       1.047   2.914  20.146  0.00  0.00    +0.000 C 
ATOM      8  C   UNL     1       0.871   4.434  19.945  0.00  0.00    +0.000 C 
ATOM      9  N   UNL     1       1.784   5.010  20.982  0.00  0.00    +0.000 NA
ENDROOT
BRANCH   1  10
ATOM     10  C   UNL     1       4.002   2.108  17.802  0.00  0.00    +0.000 C 
BRANCH  10  20
ATOM     11  O   UNL     1       2.803   4.716  17.071  0.00  0.00    +0.000 OA
ATOM     12  C   UNL     1       3.990   4.563  17.301  0.00  0.00    +0.000 C 
ATOM     13  C   UNL     1       4.991   5.638  17.320  0.00  0.00    +0.000 A 
ATOM     14  C   UNL     1       4.836   6.984  17.038  0.00  0.00    +0.000 A 
ATOM     15  C   UNL     1       5.965   7.796  17.154  0.00  0.00    +0.000 A 
ATOM     16  C   UNL     1       7.200   7.253  17.553  0.00  0.00    +0.000 A 
ATOM     17  C   UNL     1       7.331   5.888  17.834  0.00  0.00    +0.000 A 
ATOM     18  C   UNL     1       6.211   5.085  17.706  0.00  0.00    +0.000 A 
ATOM     19  C   UNL     1       6.062   3.615  17.925  0.00  0.00    +0.000 C 
ATOM     20  N   UNL     1       4.654   3.396  17.629  0.00  0.00    +0.000 N 
ENDBRANCH  10  20
ENDBRANCH   1  10
BRANCH   9  21
ATOM     21  C   UNL     1       2.705   6.021  20.452  0.00  0.00    +0.000 C 
BRANCH  21  22
ATOM     22  C   UNL     1       2.030   7.341  20.137  0.00  0.00    +0.000 A 
ATOM     23  C   UNL     1       1.244   7.999  21.094  0.00  0.00    +0.000 A 
ATOM     24  C   UNL     1       0.590   9.192  20.774  0.00  0.00    +0.000 A 
ATOM     25  C   UNL     1       0.727   9.737  19.496  0.00  0.00    +0.000 A 
ATOM     26  I   UNL     1      -0.283  11.484  19.000  0.00  0.00    +0.000 I 
ATOM     27  C   UNL     1       1.523   9.107  18.543  0.00  0.00    +0.000 A 
ATOM     28  C   UNL     1       2.174   7.914  18.864  0.00  0.00    +0.000 A 
ENDBRANCH  21  22
ENDBRANCH   9  21
TORSDOF 4
ENDMDL
MODEL 3
REMARK VINA RESULT:      -7.5      5.637      8.219
REMARK  Name = 
REMARK  4 active torsions:
REMARK  status: ('A' for Active; 'I' for Inactive)
REMARK    1  A    between atoms: N_10  and  C_11
REMARK    2  A    between atoms: C_11  and  C_12
REMARK    3  A    between atoms: N_20  and  C_21
REMARK    4  A    between atoms: C_21  and  C_22
REMARK                            x       y       z     vdW  Elec       q    Type
REMARK                         _______ _______ _______ _____ _____    ______ ____
ROOT
ATOM      1  C   UNL     1      -0.135  11.979  20.942  0.00  0.00    +0.000 C 
ATOM      2  O   UNL     1       0.371  12.801  21.707  0.00  0.00    +0.000 OA
ATOM      3  N   UNL     1      -0.326  10.669  21.326  0.00  0.00    +0.000 N 
ATOM      4  C   UNL     1      -0.792   9.545  20.514  0.00  0.00    +0.000 C 
ATOM      5  C   UNL     1      -0.247   8.333  21.327  0.00  0.00    +0.000 C 
ATOM      6  C   UNL     1      -0.520   8.831  22.750  0.00  0.00    +0.000 C 
ATOM      7  C   UNL     1       0.297  10.101  22.533  0.00  0.00    +0.000 C 
ATOM      8  C   UNL     1       1.653   9.497  22.109  0.00  0.00    +0.000 C 
ATOM      9  N   UNL     1       1.245   8.256  21.376  0.00  0.00    +0.000 NA
ENDROOT
BRANCH   1  10
ATOM     10  C   UNL     1      -0.591  12.334  19.516  0.00  0.00    +0.000 C 
BRANCH  10  20
ATOM     11  O   UNL     1      -2.037  11.118  17.236  0.00  0.00    +0.000 OA
ATOM     12  C   UNL     1      -2.596  11.657  18.175  0.00  0.00    +0.000 C 
ATOM     13  C   UNL     1      -4.052  11.730  18.362  0.00  0.00    +0.000 A 
ATOM     14  C   UNL     1      -5.064  11.284  17.532  0.00  0.00    +0.000 A 
ATOM     15  C   UNL     1      -6.378  11.466  17.969  0.00  0.00    +0.000 A 
ATOM     16  C   UNL     1      -6.641  12.072  19.211  0.00  0.00    +0.000 A 
ATOM     17  C   UNL     1      -5.598  12.514  20.034  0.00  0.00    +0.000 A 
ATOM     18  C   UNL     1      -4.299  12.341  19.590  0.00  0.00    +0.000 A 
ATOM     19  C   UNL     1      -3.010  12.721  20.243  0.00  0.00    +0.000 C 
ATOM     20  N   UNL     1      -2.024  12.269  19.274  0.00  0.00    +0.000 N 
ENDBRANCH  10  20
ENDBRANCH   1  10
BRANCH   9  21
ATOM     21  C   UNL     1       1.869   8.129  20.054  0.00  0.00    +0.000 C 
BRANCH  21  22
ATOM     22  C   UNL     1       2.114   6.692  19.643  0.00  0.00    +0.000 A 
ATOM     23  C   UNL     1       1.903   5.635  20.540  0.00  0.00    +0.000 A 
ATOM     24  C   UNL     1       2.179   4.318  20.161  0.00  0.00    +0.000 A 
ATOM     25  C   UNL     1       2.660   4.052  18.878  0.00  0.00    +0.000 A 
ATOM     26  I   UNL     1       3.117   2.102  18.325  0.00  0.00    +0.000 I 
ATOM     27  C   UNL     1       2.852   5.089  17.969  0.00  0.00    +0.000 A 
ATOM     28  C   UNL     1       2.577   6.404  18.349  0.00  0.00    +0.000 A 
ENDBRANCH  21  22
ENDBRANCH   9  21
TORSDOF 4
ENDMDL
MODEL 4
REMARK VINA RESULT:      -7.5      4.072      7.548
REMARK  Name = 
REMARK  4 active torsions:
REMARK  status: ('A' for Active; 'I' for Inactive)
REMARK    1  A    between atoms: N_10  and  C_11
REMARK    2  A    between atoms: C_11  and  C_12
REMARK    3  A    between atoms: N_20  and  C_21
REMARK    4  A    between atoms: C_21  and  C_22
REMARK                            x       y       z     vdW  Elec       q    Type
REMARK                         _______ _______ _______ _____ _____    ______ ____
ROOT
ATOM      1  C   UNL     1       4.516   3.585  18.075  0.00  0.00    +0.000 C 
ATOM      2  O   UNL     1       4.049   2.575  17.549  0.00  0.00    +0.000 OA
ATOM      3  N   UNL     1       3.821   4.270  19.049  0.00  0.00    +0.000 N 
ATOM      4  C   UNL     1       4.165   5.542  19.684  0.00  0.00    +0.000 C 
ATOM      5  C   UNL     1       2.774   6.010  20.206  0.00  0.00    +0.000 C 
ATOM      6  C   UNL     1       2.215   4.669  20.694  0.00  0.00    +0.000 C 
ATOM      7  C   UNL     1       2.397   4.021  19.325  0.00  0.00    +0.000 C 
ATOM      8  C   UNL     1       1.581   4.990  18.442  0.00  0.00    +0.000 C 
ATOM      9  N   UNL     1       1.788   6.308  19.123  0.00  0.00    +0.000 NA
ENDROOT
BRANCH   1  10
ATOM     10  C   UNL     1       5.891   4.164  17.699  0.00  0.00    +0.000 C 
BRANCH  10  20
ATOM     11  O   UNL     1       7.699   6.049  16.303  0.00  0.00    +0.000 OA
ATOM     12  C   UNL     1       7.042   5.199  15.728  0.00  0.00    +0.000 C 
ATOM     13  C   UNL     1       7.088   4.929  14.284  0.00  0.00    +0.000 A 
ATOM     14  C   UNL     1       7.802   5.581  13.295  0.00  0.00    +0.000 A 
ATOM     15  C   UNL     1       7.676   5.098  11.991  0.00  0.00    +0.000 A 
ATOM     16  C   UNL     1       6.859   3.986  11.716  0.00  0.00    +0.000 A 
ATOM     17  C   UNL     1       6.148   3.343  12.736  0.00  0.00    +0.000 A 
ATOM     18  C   UNL     1       6.268   3.833  14.024  0.00  0.00    +0.000 A 
ATOM     19  C   UNL     1       5.624   3.361  15.287  0.00  0.00    +0.000 C 
ATOM     20  N   UNL     1       6.158   4.287  16.274  0.00  0.00    +0.000 N 
ENDBRANCH  10  20
ENDBRANCH   1  10
BRANCH   9  21
ATOM     21  C   UNL     1       2.222   7.373  18.213  0.00  0.00    +0.000 C 
BRANCH  21  22
ATOM     22  C   UNL     1       1.785   8.755  18.654  0.00  0.00    +0.000 A 
ATOM     23  C   UNL     1       2.129   9.894  17.913  0.00  0.00    +0.000 A 
ATOM     24  C   UNL     1       1.758  11.167  18.358  0.00  0.00    +0.000 A 
ATOM     25  C   UNL     1       1.034  11.303  19.544  0.00  0.00    +0.000 A 
ATOM     26  I   UNL     1       0.523  13.195  20.234  0.00  0.00    +0.000 I 
ATOM     27  C   UNL     1       0.666  10.179  20.277  0.00  0.00    +0.000 A 
ATOM     28  C   UNL     1       1.038   8.909  19.832  0.00  0.00    +0.000 A 
ENDBRANCH  21  22
ENDBRANCH   9  21
TORSDOF 4
ENDMDL
MODEL 5
REMARK VINA RESULT:      -7.5      4.295      7.981
REMARK  Name = 
REMARK  4 active torsions:
REMARK  status: ('A' for Active; 'I' for Inactive)
REMARK    1  A    between atoms: N_10  and  C_11
REMARK    2  A    between atoms: C_11  and  C_12
REMARK    3  A    between atoms: N_20  and  C_21
REMARK    4  A    between atoms: C_21  and  C_22
REMARK                            x       y       z     vdW  Elec       q    Type
REMARK                         _______ _______ _______ _____ _____    ______ ____
ROOT
ATOM      1  C   UNL     1       3.920   3.653  17.722  0.00  0.00    +0.000 C 
ATOM      2  O   UNL     1       3.286   3.100  16.823  0.00  0.00    +0.000 OA
ATOM      3  N   UNL     1       3.367   3.848  18.970  0.00  0.00    +0.000 N 
ATOM      4  C   UNL     1       3.924   4.588  20.103  0.00  0.00    +0.000 C 
ATOM      5  C   UNL     1       2.638   4.905  20.923  0.00  0.00    +0.000 C 
ATOM      6  C   UNL     1       1.888   3.580  20.754  0.00  0.00    +0.000 C 
ATOM      7  C   UNL     1       1.929   3.674  19.233  0.00  0.00    +0.000 C 
ATOM      8  C   UNL     1       1.253   5.045  19.016  0.00  0.00    +0.000 C 
ATOM      9  N   UNL     1       1.682   5.818  20.224  0.00  0.00    +0.000 NA
ENDROOT
BRANCH   1  10
ATOM     10  C   UNL     1       5.358   4.167  17.537  0.00  0.00    +0.000 C 
BRANCH  10  20
ATOM     11  O   UNL     1       7.385   6.020  16.430  0.00  0.00    +0.000 OA
ATOM     12  C   UNL     1       6.779   5.207  15.754  0.00  0.00    +0.000 C 
ATOM     13  C   UNL     1       6.998   4.970  14.321  0.00  0.00    +0.000 A 
ATOM     14  C   UNL     1       7.850   5.620  13.446  0.00  0.00    +0.000 A 
ATOM     15  C   UNL     1       7.873   5.172  12.124  0.00  0.00    +0.000 A 
ATOM     16  C   UNL     1       7.062   4.096  11.718  0.00  0.00    +0.000 A 
ATOM     17  C   UNL     1       6.209   3.455  12.624  0.00  0.00    +0.000 A 
ATOM     18  C   UNL     1       6.182   3.910  13.930  0.00  0.00    +0.000 A 
ATOM     19  C   UNL     1       5.371   3.431  15.090  0.00  0.00    +0.000 C 
ATOM     20  N   UNL     1       5.806   4.314  16.161  0.00  0.00    +0.000 N 
ENDBRANCH  10  20
ENDBRANCH   1  10
BRANCH   9  21
ATOM     21  C   UNL     1       2.254   7.130  19.904  0.00  0.00    +0.000 C 
BRANCH  21  22
ATOM     22  C   UNL     1       1.429   8.288  20.428  0.00  0.00    +0.000 A 
ATOM     23  C   UNL     1       1.099   9.374  19.603  0.00  0.00    +0.000 A 
ATOM     24  C   UNL     1       0.377  10.456  20.115  0.00  0.00    +0.000 A 
ATOM     25  C   UNL     1      -0.025  10.453  21.451  0.00  0.00    +0.000 A 
ATOM     26  I   UNL     1      -1.056  12.082  22.227  0.00  0.00    +0.000 I 
ATOM     27  C   UNL     1       0.275   9.372  22.274  0.00  0.00    +0.000 A 
ATOM     28  C   UNL     1       0.997   8.291  21.763  0.00  0.00    +0.000 A 
ENDBRANCH  21  22
ENDBRANCH   9  21
TORSDOF 4
ENDMDL
MODEL 6
REMARK VINA RESULT:      -7.4      3.452      6.986
REMARK  Name = 
REMARK  4 active torsions:
REMARK  status: ('A' for Active; 'I' for Inactive)
REMARK    1  A    between atoms: N_10  and  C_11
REMARK    2  A    between atoms: C_11  and  C_12
REMARK    3  A    between atoms: N_20  and  C_21
REMARK    4  A    between atoms: C_21  and  C_22
REMARK                            x       y       z     vdW  Elec       q    Type
REMARK                         _______ _______ _______ _____ _____    ______ ____
ROOT
ATOM      1  C   UNL     1       2.453   2.213  18.243  0.00  0.00    +0.000 C 
ATOM      2  O   UNL     1       1.517   1.991  17.475  0.00  0.00    +0.000 OA
ATOM      3  N   UNL     1       2.232   2.543  19.563  0.00  0.00    +0.000 N 
ATOM      4  C   UNL     1       3.209   2.955  20.571  0.00  0.00    +0.000 C 
ATOM      5  C   UNL     1       2.300   3.702  21.592  0.00  0.00    +0.000 C 
ATOM      6  C   UNL     1       1.079   2.777  21.578  0.00  0.00    +0.000 C 
ATOM      7  C   UNL     1       0.903   2.923  20.070  0.00  0.00    +0.000 C 
ATOM      8  C   UNL     1       0.785   4.457  19.946  0.00  0.00    +0.000 C 
ATOM      9  N   UNL     1       1.672   4.945  21.049  0.00  0.00    +0.000 NA
ENDROOT
BRANCH   1  10
ATOM     10  C   UNL     1       3.927   2.142  17.806  0.00  0.00    +0.000 C 
BRANCH  10  20
ATOM     11  O   UNL     1       5.930   3.395  19.591  0.00  0.00    +0.000 OA
ATOM     12  C   UNL     1       5.544   3.904  18.553  0.00  0.00    +0.000 C 
ATOM     13  C   UNL     1       6.050   5.164  17.992  0.00  0.00    +0.000 A 
ATOM     14  C   UNL     1       6.981   6.043  18.513  0.00  0.00    +0.000 A 
ATOM     15  C   UNL     1       7.295   7.170  17.751  0.00  0.00    +0.000 A 
ATOM     16  C   UNL     1       6.686   7.381  16.500  0.00  0.00    +0.000 A 
ATOM     17  C   UNL     1       5.747   6.474  15.994  0.00  0.00    +0.000 A 
ATOM     18  C   UNL     1       5.431   5.366  16.759  0.00  0.00    +0.000 A 
ATOM     19  C   UNL     1       4.470   4.257  16.479  0.00  0.00    +0.000 C 
ATOM     20  N   UNL     1       4.607   3.419  17.661  0.00  0.00    +0.000 N 
ENDBRANCH  10  20
ENDBRANCH   1  10
BRANCH   9  21
ATOM     21  C   UNL     1       2.647   5.951  20.613  0.00  0.00    +0.000 C 
BRANCH  21  22
ATOM     22  C   UNL     1       2.014   7.274  20.233  0.00  0.00    +0.000 A 
ATOM     23  C   UNL     1       1.217   7.983  21.144  0.00  0.00    +0.000 A 
ATOM     24  C   UNL     1       0.602   9.180  20.764  0.00  0.00    +0.000 A 
ATOM     25  C   UNL     1       0.790   9.677  19.473  0.00  0.00    +0.000 A 
ATOM     26  I   UNL     1      -0.161  11.429  18.889  0.00  0.00    +0.000 I 
ATOM     27  C   UNL     1       1.597   8.996  18.567  0.00  0.00    +0.000 A 
ATOM     28  C   UNL     1       2.210   7.800  18.947  0.00  0.00    +0.000 A 
ENDBRANCH  21  22
ENDBRANCH   9  21
TORSDOF 4
ENDMDL
MODEL 7
REMARK VINA RESULT:      -7.4      2.726      6.718
REMARK  Name = 
REMARK  4 active torsions:
REMARK  status: ('A' for Active; 'I' for Inactive)
REMARK    1  A    between atoms: N_10  and  C_11
REMARK    2  A    between atoms: C_11  and  C_12
REMARK    3  A    between atoms: N_20  and  C_21
REMARK    4  A    between atoms: C_21  and  C_22
REMARK                            x       y       z     vdW  Elec       q    Type
REMARK                         _______ _______ _______ _____ _____    ______ ____
ROOT
ATOM      1  C   UNL     1       5.062   3.943  16.874  0.00  0.00    +0.000 C 
ATOM      2  O   UNL     1       4.825   4.188  15.691  0.00  0.00    +0.000 OA
ATOM      3  N   UNL     1       4.071   3.500  17.724  0.00  0.00    +0.000 N 
ATOM      4  C   UNL     1       4.146   3.283  19.169  0.00  0.00    +0.000 C 
ATOM      5  C   UNL     1       2.643   3.360  19.569  0.00  0.00    +0.000 C 
ATOM      6  C   UNL     1       2.021   2.607  18.389  0.00  0.00    +0.000 C 
ATOM      7  C   UNL     1       2.643   3.556  17.371  0.00  0.00    +0.000 C 
ATOM      8  C   UNL     1       2.098   4.910  17.874  0.00  0.00    +0.000 C 
ATOM      9  N   UNL     1       2.026   4.705  19.355  0.00  0.00    +0.000 NA
ENDROOT
BRANCH   1  10
ATOM     10  C   UNL     1       6.459   4.105  17.497  0.00  0.00    +0.000 C 
BRANCH  10  20
ATOM     11  O   UNL     1       8.438   5.098  19.465  0.00  0.00    +0.000 OA
ATOM     12  C   UNL     1       7.834   5.824  18.694  0.00  0.00    +0.000 C 
ATOM     13  C   UNL     1       8.034   7.274  18.570  0.00  0.00    +0.000 A 
ATOM     14  C   UNL     1       8.861   8.109  19.299  0.00  0.00    +0.000 A 
ATOM     15  C   UNL     1       8.871   9.462  18.953  0.00  0.00    +0.000 A 
ATOM     16  C   UNL     1       8.071   9.936  17.897  0.00  0.00    +0.000 A 
ATOM     17  C   UNL     1       7.243   9.070  17.174  0.00  0.00    +0.000 A 
ATOM     18  C   UNL     1       7.229   7.733  17.528  0.00  0.00    +0.000 A 
ATOM     19  C   UNL     1       6.445   6.601  16.949  0.00  0.00    +0.000 C 
ATOM     20  N   UNL     1       6.882   5.472  17.756  0.00  0.00    +0.000 N 
ENDBRANCH  10  20
ENDBRANCH   1  10
BRANCH   9  21
ATOM     21  C   UNL     1       2.673   5.774  20.123  0.00  0.00    +0.000 C 
BRANCH  21  22
ATOM     22  C   UNL     1       2.097   7.147  19.842  0.00  0.00    +0.000 A 
ATOM     23  C   UNL     1       2.288   7.772  18.601  0.00  0.00    +0.000 A 
ATOM     24  C   UNL     1       1.791   9.059  18.372  0.00  0.00    +0.000 A 
ATOM     25  C   UNL     1       1.093   9.722  19.382  0.00  0.00    +0.000 A 
ATOM     26  I   UNL     1       0.394  11.653  19.064  0.00  0.00    +0.000 I 
ATOM     27  C   UNL     1       0.875   9.105  20.611  0.00  0.00    +0.000 A 
ATOM     28  C   UNL     1       1.373   7.820  20.838  0.00  0.00    +0.000 A 
ENDBRANCH  21  22
ENDBRANCH   9  21
TORSDOF 4
ENDMDL
MODEL 8
REMARK VINA RESULT:      -7.4      5.463      8.660
REMARK  Name = 
REMARK  4 active torsions:
REMARK  status: ('A' for Active; 'I' for Inactive)
REMARK    1  A    between atoms: N_10  and  C_11
REMARK    2  A    between atoms: C_11  and  C_12
REMARK    3  A    between atoms: N_20  and  C_21
REMARK    4  A    between atoms: C_21  and  C_22
REMARK                            x       y       z     vdW  Elec       q    Type
REMARK                         _______ _______ _______ _____ _____    ______ ____
ROOT
ATOM      1  C   UNL     1       0.661  12.928  20.940  0.00  0.00    +0.000 C 
ATOM      2  O   UNL     1       0.215  13.023  22.084  0.00  0.00    +0.000 OA
ATOM      3  N   UNL     1       0.124  12.039  20.035  0.00  0.00    +0.000 N 
ATOM      4  C   UNL     1       0.603  11.710  18.692  0.00  0.00    +0.000 C 
ATOM      5  C   UNL     1      -0.045  10.312  18.469  0.00  0.00    +0.000 C 
ATOM      6  C   UNL     1      -1.419  10.559  19.101  0.00  0.00    +0.000 C 
ATOM      7  C   UNL     1      -0.804  10.968  20.434  0.00  0.00    +0.000 C 
ATOM      8  C   UNL     1       0.044   9.718  20.752  0.00  0.00    +0.000 C 
ATOM      9  N   UNL     1       0.463   9.252  19.392  0.00  0.00    +0.000 NA
ENDROOT
BRANCH   1  10
ATOM     10  C   UNL     1       1.836  13.779  20.429  0.00  0.00    +0.000 C 
BRANCH  10  20
ATOM     11  O   UNL     1       3.519  15.341  18.558  0.00  0.00    +0.000 OA
ATOM     12  C   UNL     1       2.345  15.587  18.770  0.00  0.00    +0.000 C 
ATOM     13  C   UNL     1       1.567  16.634  18.094  0.00  0.00    +0.000 A 
ATOM     14  C   UNL     1       1.981  17.568  17.161  0.00  0.00    +0.000 A 
ATOM     15  C   UNL     1       1.017  18.444  16.661  0.00  0.00    +0.000 A 
ATOM     16  C   UNL     1      -0.320  18.360  17.093  0.00  0.00    +0.000 A 
ATOM     17  C   UNL     1      -0.714  17.405  18.037  0.00  0.00    +0.000 A 
ATOM     18  C   UNL     1       0.248  16.547  18.538  0.00  0.00    +0.000 A 
ATOM     19  C   UNL     1       0.119  15.455  19.549  0.00  0.00    +0.000 C 
ATOM     20  N   UNL     1       1.477  14.940  19.630  0.00  0.00    +0.000 N 
ENDBRANCH  10  20
ENDBRANCH   1  10
BRANCH   9  21
ATOM     21  C   UNL     1       1.906   9.017  19.275  0.00  0.00    +0.000 C 
BRANCH  21  22
ATOM     22  C   UNL     1       2.269   7.548  19.183  0.00  0.00    +0.000 A 
ATOM     23  C   UNL     1       2.916   7.032  18.051  0.00  0.00    +0.000 A 
ATOM     24  C   UNL     1       3.202   5.666  17.961  0.00  0.00    +0.000 A 
ATOM     25  C   UNL     1       2.850   4.813  19.008  0.00  0.00    +0.000 A 
ATOM     26  I   UNL     1       3.229   2.776  18.857  0.00  0.00    +0.000 I 
ATOM     27  C   UNL     1       2.228   5.316  20.147  0.00  0.00    +0.000 A 
ATOM     28  C   UNL     1       1.942   6.680  20.236  0.00  0.00    +0.000 A 
ENDBRANCH  21  22
ENDBRANCH   9  21
TORSDOF 4
ENDMDL
MODEL 9
REMARK VINA RESULT:      -7.4      3.349      6.774
REMARK  Name = 
REMARK  4 active torsions:
REMARK  status: ('A' for Active; 'I' for Inactive)
REMARK    1  A    between atoms: N_10  and  C_11
REMARK    2  A    between atoms: C_11  and  C_12
REMARK    3  A    between atoms: N_20  and  C_21
REMARK    4  A    between atoms: C_21  and  C_22
REMARK                            x       y       z     vdW  Elec       q    Type
REMARK                         _______ _______ _______ _____ _____    ______ ____
ROOT
ATOM      1  C   UNL     1       2.663   2.015  18.399  0.00  0.00    +0.000 C 
ATOM      2  O   UNL     1       1.748   1.703  17.636  0.00  0.00    +0.000 OA
ATOM      3  N   UNL     1       2.407   2.453  19.681  0.00  0.00    +0.000 N 
ATOM      4  C   UNL     1       3.354   2.976  20.666  0.00  0.00    +0.000 C 
ATOM      5  C   UNL     1       2.407   3.786  21.600  0.00  0.00    +0.000 C 
ATOM      6  C   UNL     1       1.208   2.832  21.646  0.00  0.00    +0.000 C 
ATOM      7  C   UNL     1       1.060   2.842  20.128  0.00  0.00    +0.000 C 
ATOM      8  C   UNL     1       0.908   4.356  19.868  0.00  0.00    +0.000 C 
ATOM      9  N   UNL     1       1.761   4.961  20.940  0.00  0.00    +0.000 NA
ENDROOT
BRANCH   1  10
ATOM     10  C   UNL     1       4.146   1.943  17.997  0.00  0.00    +0.000 C 
BRANCH  10  20
ATOM     11  O   UNL     1       3.401   4.190  16.217  0.00  0.00    +0.000 OA
ATOM     12  C   UNL     1       4.367   4.213  16.960  0.00  0.00    +0.000 C 
ATOM     13  C   UNL     1       5.265   5.363  17.141  0.00  0.00    +0.000 A 
ATOM     14  C   UNL     1       5.255   6.590  16.503  0.00  0.00    +0.000 A 
ATOM     15  C   UNL     1       6.223   7.519  16.888  0.00  0.00    +0.000 A 
ATOM     16  C   UNL     1       7.157   7.205  17.893  0.00  0.00    +0.000 A 
ATOM     17  C   UNL     1       7.144   5.956  18.525  0.00  0.00    +0.000 A 
ATOM     18  C   UNL     1       6.189   5.035  18.131  0.00  0.00    +0.000 A 
ATOM     19  C   UNL     1       5.952   3.642  18.615  0.00  0.00    +0.000 C 
ATOM     20  N   UNL     1       4.815   3.221  17.812  0.00  0.00    +0.000 N 
ENDBRANCH  10  20
ENDBRANCH   1  10
BRANCH   9  21
ATOM     21  C   UNL     1       2.720   5.949  20.434  0.00  0.00    +0.000 C 
BRANCH  21  22
ATOM     22  C   UNL     1       2.078   7.266  20.048  0.00  0.00    +0.000 A 
ATOM     23  C   UNL     1       2.262   7.814  18.771  0.00  0.00    +0.000 A 
ATOM     24  C   UNL     1       1.702   9.053  18.445  0.00  0.00    +0.000 A 
ATOM     25  C   UNL     1       0.947   9.744  19.394  0.00  0.00    +0.000 A 
ATOM     26  I   UNL     1       0.153  11.607  18.930  0.00  0.00    +0.000 I 
ATOM     27  C   UNL     1       0.736   9.200  20.658  0.00  0.00    +0.000 A 
ATOM     28  C   UNL     1       1.297   7.964  20.983  0.00  0.00    +0.000 A 
ENDBRANCH  21  22
ENDBRANCH   9  21
TORSDOF 4
ENDMDL
