MODEL 1
REMARK VINA RESULT:      -7.8      0.000      0.000
REMARK  Name = 
REMARK  2 active torsions:
REMARK  status: ('A' for Active; 'I' for Inactive)
REMARK    1  A    between atoms: C_2  and  C_3
REMARK    2  A    between atoms: C_2  and  C_10
REMARK                            x       y       z     vdW  Elec       q    Type
REMARK                         _______ _______ _______ _____ _____    ______ ____
ROOT
ATOM      1  C   UNL     1       4.726   6.371  17.574  0.00  0.00    +0.000 A 
ATOM      2  N   UNL     1       4.151   7.565  17.273  0.00  0.00    +0.000 NA
ATOM      3  C   UNL     1       2.947   7.862  17.805  0.00  0.00    +0.000 A 
ATOM      4  C   UNL     1       2.239   7.038  18.669  0.00  0.00    +0.000 A 
ATOM      5  C   UNL     1       2.831   5.808  18.998  0.00  0.00    +0.000 A 
ATOM      6  C   UNL     1       4.062   5.495  18.428  0.00  0.00    +0.000 A 
ATOM      7  N   UNL     1       4.427   4.254  18.894  0.00  0.00    +0.000 N 
ATOM      8  C   UNL     1       3.495   3.774  19.783  0.00  0.00    +0.000 A 
ATOM      9  C   UNL     1       3.481   2.587  20.523  0.00  0.00    +0.000 A 
ATOM     10  C   UNL     1       2.378   2.353  21.350  0.00  0.00    +0.000 A 
ATOM     11  C   UNL     1       1.331   3.269  21.427  0.00  0.00    +0.000 A 
ATOM     12  C   UNL     1       1.363   4.454  20.685  0.00  0.00    +0.000 A 
ATOM     13  C   UNL     1       2.468   4.717  19.849  0.00  0.00    +0.000 A 
ATOM     14  H   UNL     1       5.276   3.776  18.616  0.00  0.00    +0.000 HD
ENDROOT
BRANCH   1  16
ATOM     15  O   UNL     1       7.072   6.484  17.575  0.00  0.00    +0.000 OA
ATOM     16  C   UNL     1       6.060   6.054  17.020  0.00  0.00    +0.000 C 
BRANCH  16  17
ATOM     17  C   UNL     1       6.186   5.283  15.760  0.00  0.00    +0.000 A 
ATOM     18  C   UNL     1       7.311   5.478  14.950  0.00  0.00    +0.000 A 
ATOM     19  C   UNL     1       7.426   4.796  13.735  0.00  0.00    +0.000 A 
ATOM     20  C   UNL     1       6.407   3.936  13.326  0.00  0.00    +0.000 A 
ATOM     21 BR   UNL     1       6.554   3.021  11.679  0.00  0.00    +0.000 Br
ATOM     22  C   UNL     1       5.274   3.751  14.115  0.00  0.00    +0.000 A 
ATOM     23  C   UNL     1       5.161   4.427  15.331  0.00  0.00    +0.000 A 
ENDBRANCH  16  17
ENDBRANCH   1  16
TORSDOF 2
ENDMDL
MODEL 2
REMARK VINA RESULT:      -7.8      0.055      1.035
REMARK  Name = 
REMARK  2 active torsions:
REMARK  status: ('A' for Active; 'I' for Inactive)
REMARK    1  A    between atoms: C_2  and  C_3
REMARK    2  A    between atoms: C_2  and  C_10
REMARK                            x       y       z     vdW  Elec       q    Type
REMARK                         _______ _______ _______ _____ _____    ______ ____
ROOT
ATOM      1  C   UNL     1       4.762   6.340  17.565  0.00  0.00    +0.000 A 
ATOM      2  N   UNL     1       4.203   7.544  17.271  0.00  0.00    +0.000 NA
ATOM      3  C   UNL     1       3.007   7.857  17.814  0.00  0.00    +0.000 A 
ATOM      4  C   UNL     1       2.295   7.041  18.682  0.00  0.00    +0.000 A 
ATOM      5  C   UNL     1       2.870   5.802  19.003  0.00  0.00    +0.000 A 
ATOM      6  C   UNL     1       4.092   5.472  18.422  0.00  0.00    +0.000 A 
ATOM      7  N   UNL     1       4.442   4.224  18.883  0.00  0.00    +0.000 N 
ATOM      8  C   UNL     1       3.510   3.757  19.779  0.00  0.00    +0.000 A 
ATOM      9  C   UNL     1       3.485   2.569  20.516  0.00  0.00    +0.000 A 
ATOM     10  C   UNL     1       2.385   2.349  21.352  0.00  0.00    +0.000 A 
ATOM     11  C   UNL     1       1.353   3.281  21.440  0.00  0.00    +0.000 A 
ATOM     12  C   UNL     1       1.396   4.467  20.699  0.00  0.00    +0.000 A 
ATOM     13  C   UNL     1       2.498   4.715  19.855  0.00  0.00    +0.000 A 
ATOM     14  H   UNL     1       5.281   3.734  18.597  0.00  0.00    +0.000 HD
ENDROOT
BRANCH   1  16
ATOM     15  O   UNL     1       7.110   6.352  17.589  0.00  0.00    +0.000 OA
ATOM     16  C   UNL     1       6.086   6.004  16.999  0.00  0.00    +0.000 C 
BRANCH  16  17
ATOM     17  C   UNL     1       6.191   5.316  15.690  0.00  0.00    +0.000 A 
ATOM     18  C   UNL     1       5.174   4.438  15.297  0.00  0.00    +0.000 A 
ATOM     19  C   UNL     1       5.276   3.743  14.088  0.00  0.00    +0.000 A 
ATOM     20  C   UNL     1       6.404   3.915  13.286  0.00  0.00    +0.000 A 
ATOM     21 BR   UNL     1       6.552   2.969  11.656  0.00  0.00    +0.000 Br
ATOM     22  C   UNL     1       7.432   4.770  13.678  0.00  0.00    +0.000 A 
ATOM     23  C   UNL     1       7.327   5.469  14.882  0.00  0.00    +0.000 A 
ENDBRANCH  16  17
ENDBRANCH   1  16
TORSDOF 2
ENDMDL
MODEL 3
REMARK VINA RESULT:      -7.6      5.173      7.621
REMARK  Name = 
REMARK  2 active torsions:
REMARK  status: ('A' for Active; 'I' for Inactive)
REMARK    1  A    between atoms: C_2  and  C_3
REMARK    2  A    between atoms: C_2  and  C_10
REMARK                            x       y       z     vdW  Elec       q    Type
REMARK                         _______ _______ _______ _____ _____    ______ ____
ROOT
ATOM      1  C   UNL     1       0.891   9.710  19.134  0.00  0.00    +0.000 A 
ATOM      2  N   UNL     1       1.141  10.104  20.410  0.00  0.00    +0.000 NA
ATOM      3  C   UNL     1       0.228  10.867  21.048  0.00  0.00    +0.000 A 
ATOM      4  C   UNL     1      -0.981  11.275  20.502  0.00  0.00    +0.000 A 
ATOM      5  C   UNL     1      -1.256  10.861  19.190  0.00  0.00    +0.000 A 
ATOM      6  C   UNL     1      -0.301  10.094  18.527  0.00  0.00    +0.000 A 
ATOM      7  N   UNL     1      -0.794   9.821  17.272  0.00  0.00    +0.000 N 
ATOM      8  C   UNL     1      -2.055  10.345  17.119  0.00  0.00    +0.000 A 
ATOM      9  C   UNL     1      -2.936  10.272  16.035  0.00  0.00    +0.000 A 
ATOM     10  C   UNL     1      -4.167  10.924  16.157  0.00  0.00    +0.000 A 
ATOM     11  C   UNL     1      -4.498  11.624  17.316  0.00  0.00    +0.000 A 
ATOM     12  C   UNL     1      -3.607  11.681  18.393  0.00  0.00    +0.000 A 
ATOM     13  C   UNL     1      -2.362  11.026  18.298  0.00  0.00    +0.000 A 
ATOM     14  H   UNL     1      -0.285   9.295  16.571  0.00  0.00    +0.000 HD
ENDROOT
BRANCH   1  16
ATOM     15  O   UNL     1       2.442   9.258  17.429  0.00  0.00    +0.000 OA
ATOM     16  C   UNL     1       1.872   8.847  18.441  0.00  0.00    +0.000 C 
BRANCH  16  17
ATOM     17  C   UNL     1       2.121   7.464  18.914  0.00  0.00    +0.000 A 
ATOM     18  C   UNL     1       2.619   6.515  18.014  0.00  0.00    +0.000 A 
ATOM     19  C   UNL     1       2.815   5.193  18.427  0.00  0.00    +0.000 A 
ATOM     20  C   UNL     1       2.496   4.823  19.733  0.00  0.00    +0.000 A 
ATOM     21 BR   UNL     1       2.751   3.035  20.292  0.00  0.00    +0.000 Br
ATOM     22  C   UNL     1       1.981   5.755  20.631  0.00  0.00    +0.000 A 
ATOM     23  C   UNL     1       1.790   7.076  20.221  0.00  0.00    +0.000 A 
ENDBRANCH  16  17
ENDBRANCH   1  16
TORSDOF 2
ENDMDL
MODEL 4
REMARK VINA RESULT:      -7.5      3.582      4.843
REMARK  Name = 
REMARK  2 active torsions:
REMARK  status: ('A' for Active; 'I' for Inactive)
REMARK    1  A    between atoms: C_2  and  C_3
REMARK    2  A    between atoms: C_2  and  C_10
REMARK                            x       y       z     vdW  Elec       q    Type
REMARK                         _______ _______ _______ _____ _____    ______ ____
ROOT
ATOM      1  C   UNL     1       6.942   5.326  17.734  0.00  0.00    +0.000 A 
ATOM      2  N   UNL     1       7.418   5.039  16.494  0.00  0.00    +0.000 NA
ATOM      3  C   UNL     1       6.624   4.375  15.628  0.00  0.00    +0.000 A 
ATOM      4  C   UNL     1       5.325   3.968  15.898  0.00  0.00    +0.000 A 
ATOM      5  C   UNL     1       4.818   4.273  17.171  0.00  0.00    +0.000 A 
ATOM      6  C   UNL     1       5.649   4.937  18.070  0.00  0.00    +0.000 A 
ATOM      7  N   UNL     1       4.935   5.116  19.233  0.00  0.00    +0.000 N 
ATOM      8  C   UNL     1       3.656   4.631  19.099  0.00  0.00    +0.000 A 
ATOM      9  C   UNL     1       2.589   4.641  20.003  0.00  0.00    +0.000 A 
ATOM     10  C   UNL     1       1.388   4.053  19.593  0.00  0.00    +0.000 A 
ATOM     11  C   UNL     1       1.266   3.475  18.330  0.00  0.00    +0.000 A 
ATOM     12  C   UNL     1       2.342   3.479  17.436  0.00  0.00    +0.000 A 
ATOM     13  C   UNL     1       3.561   4.073  17.823  0.00  0.00    +0.000 A 
ATOM     14  H   UNL     1       5.315   5.555  20.063  0.00  0.00    +0.000 HD
ENDROOT
BRANCH   1  16
ATOM     15  O   UNL     1       8.231   5.530  19.686  0.00  0.00    +0.000 OA
ATOM     16  C   UNL     1       7.795   6.083  18.676  0.00  0.00    +0.000 C 
BRANCH  16  17
ATOM     17  C   UNL     1       8.068   7.522  18.451  0.00  0.00    +0.000 A 
ATOM     18  C   UNL     1       8.945   8.193  19.311  0.00  0.00    +0.000 A 
ATOM     19  C   UNL     1       9.180   9.562  19.146  0.00  0.00    +0.000 A 
ATOM     20  C   UNL     1       8.523  10.257  18.131  0.00  0.00    +0.000 A 
ATOM     21 BR   UNL     1       8.829  12.109  17.910  0.00  0.00    +0.000 Br
ATOM     22  C   UNL     1       7.632   9.604  17.282  0.00  0.00    +0.000 A 
ATOM     23  C   UNL     1       7.402   8.236  17.444  0.00  0.00    +0.000 A 
ENDBRANCH  16  17
ENDBRANCH   1  16
TORSDOF 2
ENDMDL
MODEL 5
REMARK VINA RESULT:      -7.5      3.664      5.127
REMARK  Name = 
REMARK  2 active torsions:
REMARK  status: ('A' for Active; 'I' for Inactive)
REMARK    1  A    between atoms: C_2  and  C_3
REMARK    2  A    between atoms: C_2  and  C_10
REMARK                            x       y       z     vdW  Elec       q    Type
REMARK                         _______ _______ _______ _____ _____    ______ ____
ROOT
ATOM      1  C   UNL     1       2.181   7.907  18.914  0.00  0.00    +0.000 A 
ATOM      2  N   UNL     1       2.502   8.545  17.757  0.00  0.00    +0.000 NA
ATOM      3  C   UNL     1       2.045   9.799  17.556  0.00  0.00    +0.000 A 
ATOM      4  C   UNL     1       1.274  10.515  18.462  0.00  0.00    +0.000 A 
ATOM      5  C   UNL     1       0.950   9.870  19.665  0.00  0.00    +0.000 A 
ATOM      6  C   UNL     1       1.402   8.567  19.859  0.00  0.00    +0.000 A 
ATOM      7  N   UNL     1       0.958   8.158  21.095  0.00  0.00    +0.000 N 
ATOM      8  C   UNL     1       0.274   9.169  21.726  0.00  0.00    +0.000 A 
ATOM      9  C   UNL     1      -0.307   9.208  22.997  0.00  0.00    +0.000 A 
ATOM     10  C   UNL     1      -0.962  10.385  23.375  0.00  0.00    +0.000 A 
ATOM     11  C   UNL     1      -1.034  11.475  22.509  0.00  0.00    +0.000 A 
ATOM     12  C   UNL     1      -0.442  11.422  21.243  0.00  0.00    +0.000 A 
ATOM     13  C   UNL     1       0.231  10.249  20.842  0.00  0.00    +0.000 A 
ATOM     14  H   UNL     1       1.129   7.235  21.476  0.00  0.00    +0.000 HD
ENDROOT
BRANCH   1  16
ATOM     15  O   UNL     1       2.471   5.978  20.222  0.00  0.00    +0.000 OA
ATOM     16  C   UNL     1       2.705   6.545  19.154  0.00  0.00    +0.000 C 
BRANCH  16  17
ATOM     17  C   UNL     1       3.571   5.885  18.147  0.00  0.00    +0.000 A 
ATOM     18  C   UNL     1       4.648   6.596  17.603  0.00  0.00    +0.000 A 
ATOM     19  C   UNL     1       5.448   6.009  16.618  0.00  0.00    +0.000 A 
ATOM     20  C   UNL     1       5.157   4.721  16.168  0.00  0.00    +0.000 A 
ATOM     21 BR   UNL     1       6.230   3.928  14.829  0.00  0.00    +0.000 Br
ATOM     22  C   UNL     1       4.076   4.013  16.689  0.00  0.00    +0.000 A 
ATOM     23  C   UNL     1       3.280   4.597  17.677  0.00  0.00    +0.000 A 
ENDBRANCH  16  17
ENDBRANCH   1  16
TORSDOF 2
ENDMDL
MODEL 6
REMARK VINA RESULT:      -7.5      3.346      7.030
REMARK  Name = 
REMARK  2 active torsions:
REMARK  status: ('A' for Active; 'I' for Inactive)
REMARK    1  A    between atoms: C_2  and  C_3
REMARK    2  A    between atoms: C_2  and  C_10
REMARK                            x       y       z     vdW  Elec       q    Type
REMARK                         _______ _______ _______ _____ _____    ______ ____
ROOT
ATOM      1  C   UNL     1       4.967   5.245  17.578  0.00  0.00    +0.000 A 
ATOM      2  N   UNL     1       5.782   5.988  18.373  0.00  0.00    +0.000 NA
ATOM      3  C   UNL     1       6.989   6.363  17.901  0.00  0.00    +0.000 A 
ATOM      4  C   UNL     1       7.471   6.062  16.635  0.00  0.00    +0.000 A 
ATOM      5  C   UNL     1       6.632   5.309  15.800  0.00  0.00    +0.000 A 
ATOM      6  C   UNL     1       5.397   4.903  16.299  0.00  0.00    +0.000 A 
ATOM      7  N   UNL     1       4.769   4.185  15.308  0.00  0.00    +0.000 N 
ATOM      8  C   UNL     1       5.537   4.153  14.169  0.00  0.00    +0.000 A 
ATOM      9  C   UNL     1       5.276   3.579  12.920  0.00  0.00    +0.000 A 
ATOM     10  C   UNL     1       6.263   3.692  11.936  0.00  0.00    +0.000 A 
ATOM     11  C   UNL     1       7.464   4.349  12.196  0.00  0.00    +0.000 A 
ATOM     12  C   UNL     1       7.707   4.923  13.449  0.00  0.00    +0.000 A 
ATOM     13  C   UNL     1       6.724   4.829  14.456  0.00  0.00    +0.000 A 
ATOM     14  H   UNL     1       3.860   3.752  15.417  0.00  0.00    +0.000 HD
ENDROOT
BRANCH   1  16
ATOM     15  O   UNL     1       3.146   3.773  17.755  0.00  0.00    +0.000 OA
ATOM     16  C   UNL     1       3.630   4.859  18.077  0.00  0.00    +0.000 C 
BRANCH  16  17
ATOM     17  C   UNL     1       2.836   5.800  18.903  0.00  0.00    +0.000 A 
ATOM     18  C   UNL     1       2.675   7.121  18.468  0.00  0.00    +0.000 A 
ATOM     19  C   UNL     1       1.970   8.037  19.256  0.00  0.00    +0.000 A 
ATOM     20  C   UNL     1       1.445   7.633  20.482  0.00  0.00    +0.000 A 
ATOM     21 BR   UNL     1       0.501   8.871  21.555  0.00  0.00    +0.000 Br
ATOM     22  C   UNL     1       1.617   6.326  20.934  0.00  0.00    +0.000 A 
ATOM     23  C   UNL     1       2.316   5.410  20.146  0.00  0.00    +0.000 A 
ENDBRANCH  16  17
ENDBRANCH   1  16
TORSDOF 2
ENDMDL
MODEL 7
REMARK VINA RESULT:      -7.4      3.584      6.725
REMARK  Name = 
REMARK  2 active torsions:
REMARK  status: ('A' for Active; 'I' for Inactive)
REMARK    1  A    between atoms: C_2  and  C_3
REMARK    2  A    between atoms: C_2  and  C_10
REMARK                            x       y       z     vdW  Elec       q    Type
REMARK                         _______ _______ _______ _____ _____    ______ ____
ROOT
ATOM      1  C   UNL     1       2.390   5.007  19.119  0.00  0.00    +0.000 A 
ATOM      2  N   UNL     1       1.443   4.046  18.962  0.00  0.00    +0.000 NA
ATOM      3  C   UNL     1       1.587   3.144  17.968  0.00  0.00    +0.000 A 
ATOM      4  C   UNL     1       2.656   3.106  17.084  0.00  0.00    +0.000 A 
ATOM      5  C   UNL     1       3.647   4.086  17.246  0.00  0.00    +0.000 A 
ATOM      6  C   UNL     1       3.484   5.029  18.258  0.00  0.00    +0.000 A 
ATOM      7  N   UNL     1       4.569   5.872  18.213  0.00  0.00    +0.000 N 
ATOM      8  C   UNL     1       5.452   5.477  17.237  0.00  0.00    +0.000 A 
ATOM      9  C   UNL     1       6.693   6.011  16.873  0.00  0.00    +0.000 A 
ATOM     10  C   UNL     1       7.375   5.403  15.815  0.00  0.00    +0.000 A 
ATOM     11  C   UNL     1       6.832   4.307  15.146  0.00  0.00    +0.000 A 
ATOM     12  C   UNL     1       5.592   3.782  15.526  0.00  0.00    +0.000 A 
ATOM     13  C   UNL     1       4.888   4.373  16.596  0.00  0.00    +0.000 A 
ATOM     14  H   UNL     1       4.690   6.667  18.829  0.00  0.00    +0.000 HD
ENDROOT
BRANCH   1  16
ATOM     15  O   UNL     1       2.415   5.606  21.390  0.00  0.00    +0.000 OA
ATOM     16  C   UNL     1       2.255   5.978  20.226  0.00  0.00    +0.000 C 
BRANCH  16  17
ATOM     17  C   UNL     1       1.857   7.380  19.952  0.00  0.00    +0.000 A 
ATOM     18  C   UNL     1       1.225   8.119  20.958  0.00  0.00    +0.000 A 
ATOM     19  C   UNL     1       0.799   9.427  20.704  0.00  0.00    +0.000 A 
ATOM     20  C   UNL     1       0.992   9.983  19.440  0.00  0.00    +0.000 A 
ATOM     21 BR   UNL     1       0.408  11.746  19.090  0.00  0.00    +0.000 Br
ATOM     22  C   UNL     1       1.601   9.248  18.425  0.00  0.00    +0.000 A 
ATOM     23  C   UNL     1       2.032   7.945  18.680  0.00  0.00    +0.000 A 
ENDBRANCH  16  17
ENDBRANCH   1  16
TORSDOF 2
ENDMDL
MODEL 8
REMARK VINA RESULT:      -7.4      3.677      5.218
REMARK  Name = 
REMARK  2 active torsions:
REMARK  status: ('A' for Active; 'I' for Inactive)
REMARK    1  A    between atoms: C_2  and  C_3
REMARK    2  A    between atoms: C_2  and  C_10
REMARK                            x       y       z     vdW  Elec       q    Type
REMARK                         _______ _______ _______ _____ _____    ______ ____
ROOT
ATOM      1  C   UNL     1       2.177   8.045  18.827  0.00  0.00    +0.000 A 
ATOM      2  N   UNL     1       2.489   8.723  17.692  0.00  0.00    +0.000 NA
ATOM      3  C   UNL     1       2.026   9.981  17.535  0.00  0.00    +0.000 A 
ATOM      4  C   UNL     1       1.256  10.662  18.467  0.00  0.00    +0.000 A 
ATOM      5  C   UNL     1       0.940   9.976  19.650  0.00  0.00    +0.000 A 
ATOM      6  C   UNL     1       1.399   8.669  19.798  0.00  0.00    +0.000 A 
ATOM      7  N   UNL     1       0.962   8.216  21.021  0.00  0.00    +0.000 N 
ATOM      8  C   UNL     1       0.276   9.202  21.688  0.00  0.00    +0.000 A 
ATOM      9  C   UNL     1      -0.300   9.195  22.963  0.00  0.00    +0.000 A 
ATOM     10  C   UNL     1      -0.959  10.355  23.382  0.00  0.00    +0.000 A 
ATOM     11  C   UNL     1      -1.039  11.474  22.555  0.00  0.00    +0.000 A 
ATOM     12  C   UNL     1      -0.453  11.466  21.285  0.00  0.00    +0.000 A 
ATOM     13  C   UNL     1       0.224  10.310  20.842  0.00  0.00    +0.000 A 
ATOM     14  H   UNL     1       1.138   7.282  21.370  0.00  0.00    +0.000 HD
ENDROOT
BRANCH   1  16
ATOM     15  O   UNL     1       2.507   6.086  20.081  0.00  0.00    +0.000 OA
ATOM     16  C   UNL     1       2.708   6.678  19.019  0.00  0.00    +0.000 C 
BRANCH  16  17
ATOM     17  C   UNL     1       3.543   6.043  17.971  0.00  0.00    +0.000 A 
ATOM     18  C   UNL     1       3.289   4.716  17.607  0.00  0.00    +0.000 A 
ATOM     19  C   UNL     1       4.095   4.083  16.655  0.00  0.00    +0.000 A 
ATOM     20  C   UNL     1       5.163   4.775  16.085  0.00  0.00    +0.000 A 
ATOM     21 BR   UNL     1       6.261   3.921  14.806  0.00  0.00    +0.000 Br
ATOM     22  C   UNL     1       5.437   6.090  16.456  0.00  0.00    +0.000 A 
ATOM     23  C   UNL     1       4.629   6.724  17.401  0.00  0.00    +0.000 A 
ENDBRANCH  16  17
ENDBRANCH   1  16
TORSDOF 2
ENDMDL
MODEL 9
REMARK VINA RESULT:      -7.4      3.324      7.041
REMARK  Name = 
REMARK  2 active torsions:
REMARK  status: ('A' for Active; 'I' for Inactive)
REMARK    1  A    between atoms: C_2  and  C_3
REMARK    2  A    between atoms: C_2  and  C_10
REMARK                            x       y       z     vdW  Elec       q    Type
REMARK                         _______ _______ _______ _____ _____    ______ ____
ROOT
ATOM      1  C   UNL     1       5.179   5.180  17.754  0.00  0.00    +0.000 A 
ATOM      2  N   UNL     1       6.028   5.925  18.511  0.00  0.00    +0.000 NA
ATOM      3  C   UNL     1       7.200   6.324  17.975  0.00  0.00    +0.000 A 
ATOM      4  C   UNL     1       7.612   6.047  16.679  0.00  0.00    +0.000 A 
ATOM      5  C   UNL     1       6.736   5.291  15.884  0.00  0.00    +0.000 A 
ATOM      6  C   UNL     1       5.538   4.861  16.449  0.00  0.00    +0.000 A 
ATOM      7  N   UNL     1       4.864   4.146  15.486  0.00  0.00    +0.000 N 
ATOM      8  C   UNL     1       5.565   4.140  14.304  0.00  0.00    +0.000 A 
ATOM      9  C   UNL     1       5.240   3.578  13.065  0.00  0.00    +0.000 A 
ATOM     10  C   UNL     1       6.167   3.717  12.027  0.00  0.00    +0.000 A 
ATOM     11  C   UNL     1       7.371   4.389  12.226  0.00  0.00    +0.000 A 
ATOM     12  C   UNL     1       7.679   4.950  13.470  0.00  0.00    +0.000 A 
ATOM     13  C   UNL     1       6.757   4.829  14.531  0.00  0.00    +0.000 A 
ATOM     14  H   UNL     1       3.969   3.698  15.642  0.00  0.00    +0.000 HD
ENDROOT
BRANCH   1  16
ATOM     15  O   UNL     1       3.450   3.632  18.115  0.00  0.00    +0.000 OA
ATOM     16  C   UNL     1       3.879   4.768  18.325  0.00  0.00    +0.000 C 
BRANCH  16  17
ATOM     17  C   UNL     1       3.052   5.735  19.087  0.00  0.00    +0.000 A 
ATOM     18  C   UNL     1       2.414   5.313  20.259  0.00  0.00    +0.000 A 
ATOM     19  C   UNL     1       1.592   6.196  20.967  0.00  0.00    +0.000 A 
ATOM     20  C   UNL     1       1.397   7.492  20.488  0.00  0.00    +0.000 A 
ATOM     21 BR   UNL     1       0.278   8.685  21.436  0.00  0.00    +0.000 Br
ATOM     22  C   UNL     1       2.011   7.915  19.312  0.00  0.00    +0.000 A 
ATOM     23  C   UNL     1       2.836   7.036  18.608  0.00  0.00    +0.000 A 
ENDBRANCH  16  17
ENDBRANCH   1  16
TORSDOF 2
ENDMDL
