MODEL 1
REMARK VINA RESULT:      -8.4      0.000      0.000
REMARK  Name = 
REMARK  7 active torsions:
REMARK  status: ('A' for Active; 'I' for Inactive)
REMARK    1  A    between atoms: C_1  and  N_2
REMARK    2  A    between atoms: C_3  and  C_5
REMARK    3  A    between atoms: C_9  and  N_10
REMARK    4  A    between atoms: C_18  and  C_19
REMARK    5  A    between atoms: C_18  and  O_20
REMARK    6  A    between atoms: O_20  and  C_21
REMARK    7  A    between atoms: C_24  and  C_25
REMARK                            x       y       z     vdW  Elec       q    Type
REMARK                         _______ _______ _______ _____ _____    ______ ____
ROOT
ATOM      1  N   UNL     1       2.345   8.045  18.507  0.00  0.00    +0.000 N 
ATOM      2  C   UNL     1       1.757   8.552  19.671  0.00  0.00    +0.000 A 
ATOM      3  N   UNL     1       1.656   7.806  20.767  0.00  0.00    +0.000 NA
ATOM      4  C   UNL     1       1.032   8.373  21.787  0.00  0.00    +0.000 A 
ATOM      5  N   UNL     1       0.494   9.581  21.789  0.00  0.00    +0.000 NA
ATOM      6  C   UNL     1       0.619  10.255  20.649  0.00  0.00    +0.000 A 
ATOM      7  N   UNL     1       0.018  11.522  20.563  0.00  0.00    +0.000 N 
ATOM      8  C   UNL     1      -1.132  11.906  21.326  0.00  0.00    +0.000 C 
ATOM      9  C   UNL     1      -1.836  12.346  20.018  0.00  0.00    +0.000 C 
ATOM     10  C   UNL     1      -2.315  13.792  20.155  0.00  0.00    +0.000 C 
ATOM     11  C   UNL     1      -0.464  12.095  19.343  0.00  0.00    +0.000 C 
ATOM     12  N   UNL     1       1.269   9.785  19.581  0.00  0.00    +0.000 NA
ATOM     13  H   UNL     1       2.232   8.722  17.765  0.00  0.00    +0.000 HD
ENDROOT
BRANCH   1  18
ATOM     14  C   UNL     1       4.079   4.911  17.427  0.00  0.00    +0.000 A 
ATOM     15  C   UNL     1       3.011   4.011  17.433  0.00  0.00    +0.000 A 
ATOM     16  C   UNL     1       1.734   4.458  17.759  0.00  0.00    +0.000 A 
ATOM     17  C   UNL     1       1.525   5.801  18.095  0.00  0.00    +0.000 A 
ATOM     18  C   UNL     1       2.587   6.718  18.116  0.00  0.00    +0.000 A 
ATOM     19  C   UNL     1       3.851   6.258  17.738  0.00  0.00    +0.000 A 
BRANCH  14  22
ATOM     20  C   UNL     1       7.831   4.447  17.605  0.00  0.00    +0.000 C 
ATOM     21  N   UNL     1       6.472   4.830  17.887  0.00  0.00    +0.000 N 
ATOM     22  C   UNL     1       5.437   4.428  17.066  0.00  0.00    +0.000 C 
ATOM     23  O   UNL     1       5.590   3.694  16.095  0.00  0.00    +0.000 OA
ATOM     24  H   UNL     1       6.276   5.330  18.744  0.00  0.00    +0.000 HD
ENDBRANCH  14  22
ENDBRANCH   1  18
BRANCH   9  25
ATOM     25  O   UNL     1      -2.941  11.474  19.631  0.00  0.00    +0.000 OA
BRANCH  25  26
ATOM     26  C   UNL     1      -3.125  11.161  18.303  0.00  0.00    +0.000 A 
ATOM     27  C   UNL     1      -2.262  10.204  17.769  0.00  0.00    +0.000 A 
ATOM     28  C   UNL     1      -2.376   9.824  16.427  0.00  0.00    +0.000 A 
ATOM     29  C   UNL     1      -3.366  10.389  15.615  0.00  0.00    +0.000 A 
ATOM     30  C   UNL     1      -3.525  10.009  14.175  0.00  0.00    +0.000 C 
ATOM     31  C   UNL     1      -4.236  11.334  16.164  0.00  0.00    +0.000 A 
ATOM     32  C   UNL     1      -4.110  11.719  17.498  0.00  0.00    +0.000 A 
ENDBRANCH  25  26
ENDBRANCH   9  25
TORSDOF 4
ENDMDL
MODEL 2
REMARK VINA RESULT:      -8.1      0.927      1.298
REMARK  Name = 
REMARK  7 active torsions:
REMARK  status: ('A' for Active; 'I' for Inactive)
REMARK    1  A    between atoms: C_1  and  N_2
REMARK    2  A    between atoms: C_3  and  C_5
REMARK    3  A    between atoms: C_9  and  N_10
REMARK    4  A    between atoms: C_18  and  C_19
REMARK    5  A    between atoms: C_18  and  O_20
REMARK    6  A    between atoms: O_20  and  C_21
REMARK    7  A    between atoms: C_24  and  C_25
REMARK                            x       y       z     vdW  Elec       q    Type
REMARK                         _______ _______ _______ _____ _____    ______ ____
ROOT
ATOM      1  N   UNL     1       2.582   7.790  18.290  0.00  0.00    +0.000 N 
ATOM      2  C   UNL     1       1.981   8.281  19.454  0.00  0.00    +0.000 A 
ATOM      3  N   UNL     1       1.875   7.524  20.542  0.00  0.00    +0.000 NA
ATOM      4  C   UNL     1       1.240   8.078  21.561  0.00  0.00    +0.000 A 
ATOM      5  N   UNL     1       0.694   9.282  21.571  0.00  0.00    +0.000 NA
ATOM      6  C   UNL     1       0.825   9.968  20.438  0.00  0.00    +0.000 A 
ATOM      7  N   UNL     1       0.217  11.232  20.360  0.00  0.00    +0.000 N 
ATOM      8  C   UNL     1      -0.942  11.602  21.117  0.00  0.00    +0.000 C 
ATOM      9  C   UNL     1      -1.637  12.051  19.807  0.00  0.00    +0.000 C 
ATOM     10  C   UNL     1      -2.126  13.492  19.954  0.00  0.00    +0.000 C 
ATOM     11  C   UNL     1      -0.258  11.815  19.141  0.00  0.00    +0.000 C 
ATOM     12  N   UNL     1       1.487   9.512  19.372  0.00  0.00    +0.000 NA
ATOM     13  H   UNL     1       2.472   8.473  17.553  0.00  0.00    +0.000 HD
ENDROOT
BRANCH   1  18
ATOM     14  C   UNL     1       4.234   4.765  16.834  0.00  0.00    +0.000 A 
ATOM     15  C   UNL     1       3.322   3.773  17.199  0.00  0.00    +0.000 A 
ATOM     16  C   UNL     1       2.163   4.121  17.887  0.00  0.00    +0.000 A 
ATOM     17  C   UNL     1       1.922   5.457  18.226  0.00  0.00    +0.000 A 
ATOM     18  C   UNL     1       2.835   6.468  17.888  0.00  0.00    +0.000 A 
ATOM     19  C   UNL     1       3.967   6.103  17.155  0.00  0.00    +0.000 A 
BRANCH  14  22
ATOM     20  C   UNL     1       6.959   4.896  14.210  0.00  0.00    +0.000 C 
ATOM     21  N   UNL     1       5.807   5.194  15.021  0.00  0.00    +0.000 N 
ATOM     22  C   UNL     1       5.462   4.387  16.088  0.00  0.00    +0.000 C 
ATOM     23  O   UNL     1       6.123   3.417  16.443  0.00  0.00    +0.000 OA
ATOM     24  H   UNL     1       5.300   6.052  14.848  0.00  0.00    +0.000 HD
ENDBRANCH  14  22
ENDBRANCH   1  18
BRANCH   9  25
ATOM     25  O   UNL     1      -2.733  11.176  19.403  0.00  0.00    +0.000 OA
BRANCH  25  26
ATOM     26  C   UNL     1      -2.898  10.867  18.072  0.00  0.00    +0.000 A 
ATOM     27  C   UNL     1      -3.939  11.519  17.411  0.00  0.00    +0.000 A 
ATOM     28  C   UNL     1      -4.181  11.266  16.055  0.00  0.00    +0.000 A 
ATOM     29  C   UNL     1      -3.371  10.368  15.349  0.00  0.00    +0.000 A 
ATOM     30  C   UNL     1      -3.593  10.070  13.898  0.00  0.00    +0.000 C 
ATOM     31  C   UNL     1      -2.321   9.733  16.017  0.00  0.00    +0.000 A 
ATOM     32  C   UNL     1      -2.092   9.979  17.369  0.00  0.00    +0.000 A 
ENDBRANCH  25  26
ENDBRANCH   9  25
TORSDOF 4
ENDMDL
MODEL 3
REMARK VINA RESULT:      -8.0      1.392      1.480
REMARK  Name = 
REMARK  7 active torsions:
REMARK  status: ('A' for Active; 'I' for Inactive)
REMARK    1  A    between atoms: C_1  and  N_2
REMARK    2  A    between atoms: C_3  and  C_5
REMARK    3  A    between atoms: C_9  and  N_10
REMARK    4  A    between atoms: C_18  and  C_19
REMARK    5  A    between atoms: C_18  and  O_20
REMARK    6  A    between atoms: O_20  and  C_21
REMARK    7  A    between atoms: C_24  and  C_25
REMARK                            x       y       z     vdW  Elec       q    Type
REMARK                         _______ _______ _______ _____ _____    ______ ____
ROOT
ATOM      1  N   UNL     1       2.943   7.933  18.003  0.00  0.00    +0.000 N 
ATOM      2  C   UNL     1       2.239   8.306  19.153  0.00  0.00    +0.000 A 
ATOM      3  N   UNL     1       2.169   7.496  20.205  0.00  0.00    +0.000 NA
ATOM      4  C   UNL     1       1.429   7.933  21.212  0.00  0.00    +0.000 A 
ATOM      5  N   UNL     1       0.753   9.068  21.238  0.00  0.00    +0.000 NA
ATOM      6  C   UNL     1       0.857   9.812  20.140  0.00  0.00    +0.000 A 
ATOM      7  N   UNL     1       0.116  11.004  20.078  0.00  0.00    +0.000 N 
ATOM      8  C   UNL     1      -1.111  11.211  20.790  0.00  0.00    +0.000 C 
ATOM      9  C   UNL     1      -1.791  11.636  19.464  0.00  0.00    +0.000 C 
ATOM     10  C   UNL     1      -2.445  13.007  19.640  0.00  0.00    +0.000 C 
ATOM     11  C   UNL     1      -0.365  11.582  18.860  0.00  0.00    +0.000 C 
ATOM     12  N   UNL     1       1.614   9.477  19.092  0.00  0.00    +0.000 NA
ATOM     13  H   UNL     1       2.790   8.630  17.288  0.00  0.00    +0.000 HD
ENDROOT
BRANCH   1  18
ATOM     14  C   UNL     1       4.872   5.203  16.323  0.00  0.00    +0.000 A 
ATOM     15  C   UNL     1       4.201   4.078  16.806  0.00  0.00    +0.000 A 
ATOM     16  C   UNL     1       3.104   4.238  17.649  0.00  0.00    +0.000 A 
ATOM     17  C   UNL     1       2.688   5.522  18.022  0.00  0.00    +0.000 A 
ATOM     18  C   UNL     1       3.360   6.666  17.565  0.00  0.00    +0.000 A 
ATOM     19  C   UNL     1       4.428   6.483  16.682  0.00  0.00    +0.000 A 
BRANCH  14  22
ATOM     20  C   UNL     1       6.868   4.052  13.320  0.00  0.00    +0.000 C 
ATOM     21  N   UNL     1       5.803   4.313  14.252  0.00  0.00    +0.000 N 
ATOM     22  C   UNL     1       6.034   5.024  15.414  0.00  0.00    +0.000 C 
ATOM     23  O   UNL     1       7.121   5.516  15.701  0.00  0.00    +0.000 OA
ATOM     24  H   UNL     1       4.862   4.038  14.003  0.00  0.00    +0.000 HD
ENDBRANCH  14  22
ENDBRANCH   1  18
BRANCH   9  25
ATOM     25  O   UNL     1      -2.763  10.663  18.973  0.00  0.00    +0.000 OA
BRANCH  25  26
ATOM     26  C   UNL     1      -3.013  10.577  17.622  0.00  0.00    +0.000 A 
ATOM     27  C   UNL     1      -2.209   9.694  16.901  0.00  0.00    +0.000 A 
ATOM     28  C   UNL     1      -2.392   9.542  15.522  0.00  0.00    +0.000 A 
ATOM     29  C   UNL     1      -3.393  10.262  14.858  0.00  0.00    +0.000 A 
ATOM     30  C   UNL     1      -3.625  10.128  13.385  0.00  0.00    +0.000 C 
ATOM     31  C   UNL     1      -4.203  11.131  15.593  0.00  0.00    +0.000 A 
ATOM     32  C   UNL     1      -4.009  11.289  16.965  0.00  0.00    +0.000 A 
ENDBRANCH  25  26
ENDBRANCH   9  25
TORSDOF 4
ENDMDL
MODEL 4
REMARK VINA RESULT:      -8.0      1.518      2.245
REMARK  Name = 
REMARK  7 active torsions:
REMARK  status: ('A' for Active; 'I' for Inactive)
REMARK    1  A    between atoms: C_1  and  N_2
REMARK    2  A    between atoms: C_3  and  C_5
REMARK    3  A    between atoms: C_9  and  N_10
REMARK    4  A    between atoms: C_18  and  C_19
REMARK    5  A    between atoms: C_18  and  O_20
REMARK    6  A    between atoms: O_20  and  C_21
REMARK    7  A    between atoms: C_24  and  C_25
REMARK                            x       y       z     vdW  Elec       q    Type
REMARK                         _______ _______ _______ _____ _____    ______ ____
ROOT
ATOM      1  N   UNL     1       2.532   8.673  18.474  0.00  0.00    +0.000 N 
ATOM      2  C   UNL     1       1.794   9.012  19.613  0.00  0.00    +0.000 A 
ATOM      3  N   UNL     1       1.731   8.190  20.656  0.00  0.00    +0.000 NA
ATOM      4  C   UNL     1       0.959   8.593  21.652  0.00  0.00    +0.000 A 
ATOM      5  N   UNL     1       0.245   9.706  21.676  0.00  0.00    +0.000 NA
ATOM      6  C   UNL     1       0.346  10.462  20.587  0.00  0.00    +0.000 A 
ATOM      7  N   UNL     1      -0.433  11.630  20.522  0.00  0.00    +0.000 N 
ATOM      8  C   UNL     1      -1.678  11.791  21.211  0.00  0.00    +0.000 C 
ATOM      9  C   UNL     1      -2.347  12.207  19.877  0.00  0.00    +0.000 C 
ATOM     10  C   UNL     1      -3.048  13.554  20.052  0.00  0.00    +0.000 C 
ATOM     11  C   UNL     1      -0.909  12.204  19.299  0.00  0.00    +0.000 C 
ATOM     12  N   UNL     1       1.133  10.163  19.551  0.00  0.00    +0.000 NA
ATOM     13  H   UNL     1       2.370   9.372  17.762  0.00  0.00    +0.000 HD
ENDROOT
BRANCH   1  18
ATOM     14  C   UNL     1       2.762   5.008  17.757  0.00  0.00    +0.000 A 
ATOM     15  C   UNL     1       3.951   4.962  17.028  0.00  0.00    +0.000 A 
ATOM     16  C   UNL     1       4.675   6.132  16.814  0.00  0.00    +0.000 A 
ATOM     17  C   UNL     1       4.203   7.351  17.315  0.00  0.00    +0.000 A 
ATOM     18  C   UNL     1       2.999   7.424  18.033  0.00  0.00    +0.000 A 
ATOM     19  C   UNL     1       2.314   6.231  18.277  0.00  0.00    +0.000 A 
BRANCH  14  22
ATOM     20  C   UNL     1       0.615   2.456  19.548  0.00  0.00    +0.000 C 
ATOM     21  N   UNL     1       1.350   3.646  19.206  0.00  0.00    +0.000 N 
ATOM     22  C   UNL     1       2.002   3.753  17.993  0.00  0.00    +0.000 C 
ATOM     23  O   UNL     1       1.959   2.888  17.123  0.00  0.00    +0.000 OA
ATOM     24  H   UNL     1       1.313   4.438  19.835  0.00  0.00    +0.000 HD
ENDBRANCH  14  22
ENDBRANCH   1  18
BRANCH   9  25
ATOM     25  O   UNL     1      -3.277  11.208  19.358  0.00  0.00    +0.000 OA
BRANCH  25  26
ATOM     26  C   UNL     1      -3.305  10.943  18.008  0.00  0.00    +0.000 A 
ATOM     27  C   UNL     1      -2.413   9.973  17.550  0.00  0.00    +0.000 A 
ATOM     28  C   UNL     1      -2.372   9.640  16.191  0.00  0.00    +0.000 A 
ATOM     29  C   UNL     1      -3.236  10.266  15.284  0.00  0.00    +0.000 A 
ATOM     30  C   UNL     1      -3.226   9.937  13.823  0.00  0.00    +0.000 C 
ATOM     31  C   UNL     1      -4.136  11.224  15.756  0.00  0.00    +0.000 A 
ATOM     32  C   UNL     1      -4.165  11.561  17.108  0.00  0.00    +0.000 A 
ENDBRANCH  25  26
ENDBRANCH   9  25
TORSDOF 4
ENDMDL
MODEL 5
REMARK VINA RESULT:      -7.9      1.471      2.457
REMARK  Name = 
REMARK  7 active torsions:
REMARK  status: ('A' for Active; 'I' for Inactive)
REMARK    1  A    between atoms: C_1  and  N_2
REMARK    2  A    between atoms: C_3  and  C_5
REMARK    3  A    between atoms: C_9  and  N_10
REMARK    4  A    between atoms: C_18  and  C_19
REMARK    5  A    between atoms: C_18  and  O_20
REMARK    6  A    between atoms: O_20  and  C_21
REMARK    7  A    between atoms: C_24  and  C_25
REMARK                            x       y       z     vdW  Elec       q    Type
REMARK                         _______ _______ _______ _____ _____    ______ ____
ROOT
ATOM      1  N   UNL     1       2.882   8.105  18.082  0.00  0.00    +0.000 N 
ATOM      2  C   UNL     1       2.165   8.490  19.220  0.00  0.00    +0.000 A 
ATOM      3  N   UNL     1       2.105   7.704  20.290  0.00  0.00    +0.000 NA
ATOM      4  C   UNL     1       1.353   8.150  21.283  0.00  0.00    +0.000 A 
ATOM      5  N   UNL     1       0.656   9.273  21.281  0.00  0.00    +0.000 NA
ATOM      6  C   UNL     1       0.751   9.993  20.166  0.00  0.00    +0.000 A 
ATOM      7  N   UNL     1      -0.012  11.169  20.074  0.00  0.00    +0.000 N 
ATOM      8  C   UNL     1      -1.245  11.370  20.775  0.00  0.00    +0.000 C 
ATOM      9  C   UNL     1      -1.927  11.752  19.437  0.00  0.00    +0.000 C 
ATOM     10  C   UNL     1      -2.607  13.114  19.578  0.00  0.00    +0.000 C 
ATOM     11  C   UNL     1      -0.498  11.710  18.840  0.00  0.00    +0.000 C 
ATOM     12  N   UNL     1       1.519   9.648  19.129  0.00  0.00    +0.000 NA
ATOM     13  H   UNL     1       2.719   8.782  17.350  0.00  0.00    +0.000 HD
ENDROOT
BRANCH   1  18
ATOM     14  C   UNL     1       3.085   4.407  17.546  0.00  0.00    +0.000 A 
ATOM     15  C   UNL     1       4.219   4.326  16.737  0.00  0.00    +0.000 A 
ATOM     16  C   UNL     1       4.918   5.485  16.410  0.00  0.00    +0.000 A 
ATOM     17  C   UNL     1       4.474   6.728  16.878  0.00  0.00    +0.000 A 
ATOM     18  C   UNL     1       3.324   6.835  17.675  0.00  0.00    +0.000 A 
ATOM     19  C   UNL     1       2.667   5.654  18.031  0.00  0.00    +0.000 A 
BRANCH  14  22
ATOM     20  C   UNL     1       0.461   2.173  19.111  0.00  0.00    +0.000 C 
ATOM     21  N   UNL     1       1.222   3.316  18.681  0.00  0.00    +0.000 N 
ATOM     22  C   UNL     1       2.353   3.164  17.902  0.00  0.00    +0.000 C 
ATOM     23  O   UNL     1       2.748   2.078  17.489  0.00  0.00    +0.000 OA
ATOM     24  H   UNL     1       0.869   4.241  18.889  0.00  0.00    +0.000 HD
ENDBRANCH  14  22
ENDBRANCH   1  18
BRANCH   9  25
ATOM     25  O   UNL     1      -2.879  10.750  18.965  0.00  0.00    +0.000 OA
BRANCH  25  26
ATOM     26  C   UNL     1      -3.023  10.537  17.613  0.00  0.00    +0.000 A 
ATOM     27  C   UNL     1      -4.066  11.221  16.988  0.00  0.00    +0.000 A 
ATOM     28  C   UNL     1      -4.288  11.065  15.615  0.00  0.00    +0.000 A 
ATOM     29  C   UNL     1      -3.456  10.232  14.855  0.00  0.00    +0.000 A 
ATOM     30  C   UNL     1      -3.657  10.038  13.384  0.00  0.00    +0.000 C 
ATOM     31  C   UNL     1      -2.406   9.564  15.488  0.00  0.00    +0.000 A 
ATOM     32  C   UNL     1      -2.196   9.713  16.858  0.00  0.00    +0.000 A 
ENDBRANCH  25  26
ENDBRANCH   9  25
TORSDOF 4
ENDMDL
MODEL 6
REMARK VINA RESULT:      -7.8      6.620      7.808
REMARK  Name = 
REMARK  7 active torsions:
REMARK  status: ('A' for Active; 'I' for Inactive)
REMARK    1  A    between atoms: C_1  and  N_2
REMARK    2  A    between atoms: C_3  and  C_5
REMARK    3  A    between atoms: C_9  and  N_10
REMARK    4  A    between atoms: C_18  and  C_19
REMARK    5  A    between atoms: C_18  and  O_20
REMARK    6  A    between atoms: O_20  and  C_21
REMARK    7  A    between atoms: C_24  and  C_25
REMARK                            x       y       z     vdW  Elec       q    Type
REMARK                         _______ _______ _______ _____ _____    ______ ____
ROOT
ATOM      1  N   UNL     1       8.329   9.193  17.493  0.00  0.00    +0.000 N 
ATOM      2  C   UNL     1       8.801  10.150  18.398  0.00  0.00    +0.000 A 
ATOM      3  N   UNL     1       9.276   9.791  19.587  0.00  0.00    +0.000 NA
ATOM      4  C   UNL     1       9.641  10.786  20.378  0.00  0.00    +0.000 A 
ATOM      5  N   UNL     1       9.548  12.074  20.094  0.00  0.00    +0.000 NA
ATOM      6  C   UNL     1       9.044  12.350  18.895  0.00  0.00    +0.000 A 
ATOM      7  N   UNL     1       8.862  13.701  18.552  0.00  0.00    +0.000 N 
ATOM      8  C   UNL     1       8.640  14.739  19.515  0.00  0.00    +0.000 C 
ATOM      9  C   UNL     1       7.380  15.179  18.728  0.00  0.00    +0.000 C 
ATOM     10  C   UNL     1       7.474  16.670  18.401  0.00  0.00    +0.000 C 
ATOM     11  C   UNL     1       7.849  14.166  17.653  0.00  0.00    +0.000 C 
ATOM     12  N   UNL     1       8.689  11.415  18.010  0.00  0.00    +0.000 NA
ATOM     13  H   UNL     1       7.919   9.669  16.701  0.00  0.00    +0.000 HD
ENDROOT
BRANCH   1  18
ATOM     14  C   UNL     1       6.858   5.793  16.971  0.00  0.00    +0.000 A 
ATOM     15  C   UNL     1       7.234   5.164  18.159  0.00  0.00    +0.000 A 
ATOM     16  C   UNL     1       7.935   5.880  19.127  0.00  0.00    +0.000 A 
ATOM     17  C   UNL     1       8.275   7.219  18.900  0.00  0.00    +0.000 A 
ATOM     18  C   UNL     1       7.926   7.865  17.704  0.00  0.00    +0.000 A 
ATOM     19  C   UNL     1       7.180   7.142  16.768  0.00  0.00    +0.000 A 
BRANCH  14  22
ATOM     20  C   UNL     1       6.149   3.919  13.760  0.00  0.00    +0.000 C 
ATOM     21  N   UNL     1       6.799   4.635  14.825  0.00  0.00    +0.000 N 
ATOM     22  C   UNL     1       6.099   5.026  15.950  0.00  0.00    +0.000 C 
ATOM     23  O   UNL     1       4.918   4.752  16.139  0.00  0.00    +0.000 OA
ATOM     24  H   UNL     1       7.800   4.777  14.776  0.00  0.00    +0.000 HD
ENDBRANCH  14  22
ENDBRANCH   1  18
BRANCH   9  25
ATOM     25  O   UNL     1       6.130  14.885  19.423  0.00  0.00    +0.000 OA
BRANCH  25  26
ATOM     26  C   UNL     1       4.963  15.485  19.005  0.00  0.00    +0.000 A 
ATOM     27  C   UNL     1       4.347  16.340  19.919  0.00  0.00    +0.000 A 
ATOM     28  C   UNL     1       3.157  16.994  19.579  0.00  0.00    +0.000 A 
ATOM     29  C   UNL     1       2.584  16.806  18.315  0.00  0.00    +0.000 A 
ATOM     30  C   UNL     1       1.314  17.488  17.910  0.00  0.00    +0.000 C 
ATOM     31  C   UNL     1       3.218  15.961  17.402  0.00  0.00    +0.000 A 
ATOM     32  C   UNL     1       4.397  15.302  17.749  0.00  0.00    +0.000 A 
ENDBRANCH  25  26
ENDBRANCH   9  25
TORSDOF 4
ENDMDL
MODEL 7
REMARK VINA RESULT:      -7.7      1.615      2.255
REMARK  Name = 
REMARK  7 active torsions:
REMARK  status: ('A' for Active; 'I' for Inactive)
REMARK    1  A    between atoms: C_1  and  N_2
REMARK    2  A    between atoms: C_3  and  C_5
REMARK    3  A    between atoms: C_9  and  N_10
REMARK    4  A    between atoms: C_18  and  C_19
REMARK    5  A    between atoms: C_18  and  O_20
REMARK    6  A    between atoms: O_20  and  C_21
REMARK    7  A    between atoms: C_24  and  C_25
REMARK                            x       y       z     vdW  Elec       q    Type
REMARK                         _______ _______ _______ _____ _____    ______ ____
ROOT
ATOM      1  N   UNL     1       2.812   7.637  18.215  0.00  0.00    +0.000 N 
ATOM      2  C   UNL     1       2.079   8.093  19.316  0.00  0.00    +0.000 A 
ATOM      3  N   UNL     1       1.842   7.299  20.356  0.00  0.00    +0.000 NA
ATOM      4  C   UNL     1       1.091   7.822  21.312  0.00  0.00    +0.000 A 
ATOM      5  N   UNL     1       0.553   9.030  21.299  0.00  0.00    +0.000 NA
ATOM      6  C   UNL     1       0.821   9.753  20.215  0.00  0.00    +0.000 A 
ATOM      7  N   UNL     1       0.231  11.025  20.110  0.00  0.00    +0.000 N 
ATOM      8  C   UNL     1      -1.008  11.377  20.737  0.00  0.00    +0.000 C 
ATOM      9  C   UNL     1      -1.541  11.877  19.371  0.00  0.00    +0.000 C 
ATOM     10  C   UNL     1      -2.038  13.317  19.510  0.00  0.00    +0.000 C 
ATOM     11  C   UNL     1      -0.093  11.653  18.865  0.00  0.00    +0.000 C 
ATOM     12  N   UNL     1       1.603   9.330  19.220  0.00  0.00    +0.000 NA
ATOM     13  H   UNL     1       2.793   8.346  17.495  0.00  0.00    +0.000 HD
ENDROOT
BRANCH   1  18
ATOM     14  C   UNL     1       4.529   4.691  16.676  0.00  0.00    +0.000 A 
ATOM     15  C   UNL     1       3.683   3.658  17.083  0.00  0.00    +0.000 A 
ATOM     16  C   UNL     1       2.543   3.952  17.827  0.00  0.00    +0.000 A 
ATOM     17  C   UNL     1       2.258   5.277  18.179  0.00  0.00    +0.000 A 
ATOM     18  C   UNL     1       3.106   6.329  17.799  0.00  0.00    +0.000 A 
ATOM     19  C   UNL     1       4.217   6.016  17.011  0.00  0.00    +0.000 A 
BRANCH  14  22
ATOM     20  C   UNL     1       6.678   4.050  13.627  0.00  0.00    +0.000 C 
ATOM     21  N   UNL     1       5.581   4.381  14.498  0.00  0.00    +0.000 N 
ATOM     22  C   UNL     1       5.736   4.370  15.870  0.00  0.00    +0.000 C 
ATOM     23  O   UNL     1       6.803   4.135  16.429  0.00  0.00    +0.000 OA
ATOM     24  H   UNL     1       4.715   4.704  14.087  0.00  0.00    +0.000 HD
ENDBRANCH  14  22
ENDBRANCH   1  18
BRANCH   9  25
ATOM     25  O   UNL     1      -2.585  11.026  18.808  0.00  0.00    +0.000 OA
BRANCH  25  26
ATOM     26  C   UNL     1      -3.820  11.563  18.526  0.00  0.00    +0.000 A 
ATOM     27  C   UNL     1      -4.570  11.994  19.621  0.00  0.00    +0.000 A 
ATOM     28  C   UNL     1      -5.838  12.554  19.430  0.00  0.00    +0.000 A 
ATOM     29  C   UNL     1      -6.358  12.700  18.137  0.00  0.00    +0.000 A 
ATOM     30  C   UNL     1      -7.709  13.296  17.887  0.00  0.00    +0.000 C 
ATOM     31  C   UNL     1      -5.592  12.281  17.047  0.00  0.00    +0.000 A 
ATOM     32  C   UNL     1      -4.334  11.713  17.244  0.00  0.00    +0.000 A 
ENDBRANCH  25  26
ENDBRANCH   9  25
TORSDOF 4
ENDMDL
MODEL 8
REMARK VINA RESULT:      -7.7      1.340      1.753
REMARK  Name = 
REMARK  7 active torsions:
REMARK  status: ('A' for Active; 'I' for Inactive)
REMARK    1  A    between atoms: C_1  and  N_2
REMARK    2  A    between atoms: C_3  and  C_5
REMARK    3  A    between atoms: C_9  and  N_10
REMARK    4  A    between atoms: C_18  and  C_19
REMARK    5  A    between atoms: C_18  and  O_20
REMARK    6  A    between atoms: O_20  and  C_21
REMARK    7  A    between atoms: C_24  and  C_25
REMARK                            x       y       z     vdW  Elec       q    Type
REMARK                         _______ _______ _______ _____ _____    ______ ____
ROOT
ATOM      1  N   UNL     1       1.966   8.523  19.853  0.00  0.00    +0.000 N 
ATOM      2  C   UNL     1       1.301   9.180  20.894  0.00  0.00    +0.000 A 
ATOM      3  N   UNL     1       1.075   8.570  22.054  0.00  0.00    +0.000 NA
ATOM      4  C   UNL     1       0.390   9.272  22.942  0.00  0.00    +0.000 A 
ATOM      5  N   UNL     1      -0.095  10.488  22.759  0.00  0.00    +0.000 NA
ATOM      6  C   UNL     1       0.156  11.020  21.566  0.00  0.00    +0.000 A 
ATOM      7  N   UNL     1      -0.382  12.287  21.284  0.00  0.00    +0.000 N 
ATOM      8  C   UNL     1      -1.577  12.794  21.891  0.00  0.00    +0.000 C 
ATOM      9  C   UNL     1      -2.146  13.101  20.484  0.00  0.00    +0.000 C 
ATOM     10  C   UNL     1      -2.575  14.567  20.412  0.00  0.00    +0.000 C 
ATOM     11  C   UNL     1      -0.733  12.730  19.968  0.00  0.00    +0.000 C 
ATOM     12  N   UNL     1       0.875  10.409  20.622  0.00  0.00    +0.000 NA
ATOM     13  H   UNL     1       1.945   9.112  19.031  0.00  0.00    +0.000 HD
ENDROOT
BRANCH   1  18
ATOM     14  C   UNL     1       3.208   5.297  18.422  0.00  0.00    +0.000 A 
ATOM     15  C   UNL     1       2.659   4.386  19.326  0.00  0.00    +0.000 A 
ATOM     16  C   UNL     1       1.862   4.846  20.371  0.00  0.00    +0.000 A 
ATOM     17  C   UNL     1       1.626   6.217  20.522  0.00  0.00    +0.000 A 
ATOM     18  C   UNL     1       2.184   7.153  19.638  0.00  0.00    +0.000 A 
ATOM     19  C   UNL     1       2.940   6.665  18.568  0.00  0.00    +0.000 A 
BRANCH  14  22
ATOM     20  C   UNL     1       5.542   5.375  15.443  0.00  0.00    +0.000 C 
ATOM     21  N   UNL     1       4.729   5.750  16.571  0.00  0.00    +0.000 N 
ATOM     22  C   UNL     1       4.046   4.797  17.302  0.00  0.00    +0.000 C 
ATOM     23  O   UNL     1       4.122   3.593  17.081  0.00  0.00    +0.000 OA
ATOM     24  H   UNL     1       4.732   6.716  16.872  0.00  0.00    +0.000 HD
ENDBRANCH  14  22
ENDBRANCH   1  18
BRANCH   9  25
ATOM     25  O   UNL     1      -3.249  12.225  20.100  0.00  0.00    +0.000 OA
BRANCH  25  26
ATOM     26  C   UNL     1      -3.276  11.682  18.835  0.00  0.00    +0.000 A 
ATOM     27  C   UNL     1      -4.363  12.033  18.035  0.00  0.00    +0.000 A 
ATOM     28  C   UNL     1      -4.472  11.528  16.734  0.00  0.00    +0.000 A 
ATOM     29  C   UNL     1      -3.484  10.678  16.221  0.00  0.00    +0.000 A 
ATOM     30  C   UNL     1      -3.561  10.117  14.835  0.00  0.00    +0.000 C 
ATOM     31  C   UNL     1      -2.392  10.346  17.026  0.00  0.00    +0.000 A 
ATOM     32  C   UNL     1      -2.294  10.842  18.325  0.00  0.00    +0.000 A 
ENDBRANCH  25  26
ENDBRANCH   9  25
TORSDOF 4
ENDMDL
MODEL 9
REMARK VINA RESULT:      -7.7      2.026      2.125
REMARK  Name = 
REMARK  7 active torsions:
REMARK  status: ('A' for Active; 'I' for Inactive)
REMARK    1  A    between atoms: C_1  and  N_2
REMARK    2  A    between atoms: C_3  and  C_5
REMARK    3  A    between atoms: C_9  and  N_10
REMARK    4  A    between atoms: C_18  and  C_19
REMARK    5  A    between atoms: C_18  and  O_20
REMARK    6  A    between atoms: O_20  and  C_21
REMARK    7  A    between atoms: C_24  and  C_25
REMARK                            x       y       z     vdW  Elec       q    Type
REMARK                         _______ _______ _______ _____ _____    ______ ____
ROOT
ATOM      1  N   UNL     1       2.271   7.247  19.013  0.00  0.00    +0.000 N 
ATOM      2  C   UNL     1       1.826   8.060  20.062  0.00  0.00    +0.000 A 
ATOM      3  N   UNL     1       1.659   7.567  21.286  0.00  0.00    +0.000 NA
ATOM      4  C   UNL     1       1.182   8.416  22.181  0.00  0.00    +0.000 A 
ATOM      5  N   UNL     1       0.844   9.673  21.951  0.00  0.00    +0.000 NA
ATOM      6  C   UNL     1       1.021  10.083  20.698  0.00  0.00    +0.000 A 
ATOM      7  N   UNL     1       0.625  11.392  20.371  0.00  0.00    +0.000 N 
ATOM      8  C   UNL     1      -0.412  12.101  21.060  0.00  0.00    +0.000 C 
ATOM      9  C   UNL     1      -1.097  12.390  19.701  0.00  0.00    +0.000 C 
ATOM     10  C   UNL     1      -1.334  13.893  19.555  0.00  0.00    +0.000 C 
ATOM     11  C   UNL     1       0.184  11.790  19.068  0.00  0.00    +0.000 C 
ATOM     12  N   UNL     1       1.537   9.315  19.736  0.00  0.00    +0.000 NA
ATOM     13  H   UNL     1       2.232   7.776  18.153  0.00  0.00    +0.000 HD
ENDROOT
BRANCH   1  18
ATOM     14  C   UNL     1       2.831   3.614  19.710  0.00  0.00    +0.000 A 
ATOM     15  C   UNL     1       2.170   3.039  18.624  0.00  0.00    +0.000 A 
ATOM     16  C   UNL     1       1.580   3.856  17.663  0.00  0.00    +0.000 A 
ATOM     17  C   UNL     1       1.638   5.248  17.795  0.00  0.00    +0.000 A 
ATOM     18  C   UNL     1       2.279   5.848  18.890  0.00  0.00    +0.000 A 
ATOM     19  C   UNL     1       2.906   5.010  19.816  0.00  0.00    +0.000 A 
BRANCH  14  22
ATOM     20  C   UNL     1       5.323   1.212  21.242  0.00  0.00    +0.000 C 
ATOM     21  N   UNL     1       4.643   2.111  20.348  0.00  0.00    +0.000 N 
ATOM     22  C   UNL     1       3.469   2.735  20.724  0.00  0.00    +0.000 C 
ATOM     23  O   UNL     1       2.964   2.612  21.835  0.00  0.00    +0.000 OA
ATOM     24  H   UNL     1       5.083   2.345  19.467  0.00  0.00    +0.000 HD
ENDBRANCH  14  22
ENDBRANCH   1  18
BRANCH   9  25
ATOM     25  O   UNL     1      -2.344  11.654  19.511  0.00  0.00    +0.000 OA
BRANCH  25  26
ATOM     26  C   UNL     1      -2.729  11.287  18.242  0.00  0.00    +0.000 A 
ATOM     27  C   UNL     1      -1.914  10.360  17.592  0.00  0.00    +0.000 A 
ATOM     28  C   UNL     1      -2.229   9.930  16.298  0.00  0.00    +0.000 A 
ATOM     29  C   UNL     1      -3.372  10.415  15.651  0.00  0.00    +0.000 A 
ATOM     30  C   UNL     1      -3.747   9.980  14.268  0.00  0.00    +0.000 C 
ATOM     31  C   UNL     1      -4.190  11.331  16.317  0.00  0.00    +0.000 A 
ATOM     32  C   UNL     1      -3.866  11.765  17.601  0.00  0.00    +0.000 A 
ENDBRANCH  25  26
ENDBRANCH   9  25
TORSDOF 4
ENDMDL
