MODEL 1
REMARK VINA RESULT:      -9.5      0.000      0.000
REMARK  Name = 
REMARK  6 active torsions:
REMARK  status: ('A' for Active; 'I' for Inactive)
REMARK    1  A    between atoms: C_2  and  O_3
REMARK    2  A    between atoms: C_2  and  C_17
REMARK    3  A    between atoms: O_3  and  C_4
REMARK    4  A    between atoms: C_4  and  C_5
REMARK    5  A    between atoms: C_6  and  C_7
REMARK    6  A    between atoms: C_22  and  N_23
REMARK                            x       y       z     vdW  Elec       q    Type
REMARK                         _______ _______ _______ _____ _____    ______ ____
ROOT
ATOM      1  C   UNL     1       2.344   5.025  19.900  0.00  0.00    +0.000 A 
ATOM      2  C   UNL     1       1.563   4.713  21.029  0.00  0.00    +0.000 A 
ATOM      3  C   UNL     1       1.711   3.487  21.682  0.00  0.00    +0.000 A 
ATOM      4  C   UNL     1       2.646   2.565  21.225  0.00  0.00    +0.000 A 
ATOM      5  C   UNL     1       3.443   2.872  20.123  0.00  0.00    +0.000 A 
ATOM      6  C   UNL     1       3.300   4.094  19.442  0.00  0.00    +0.000 A 
ENDROOT
BRANCH   6   7
ATOM      7  N   UNL     1       4.162   4.347  18.354  0.00  0.00    +0.000 N 
ATOM      8  C   UNL     1       3.844   4.014  17.063  0.00  0.00    +0.000 C 
ATOM      9  O   UNL     1       2.820   3.556  16.591  0.00  0.00    +0.000 OA
ATOM     10  C   UNL     1       5.026   4.302  16.255  0.00  0.00    +0.000 A 
ATOM     11  C   UNL     1       5.262   4.045  14.920  0.00  0.00    +0.000 A 
ATOM     12  C   UNL     1       6.512   4.404  14.413  0.00  0.00    +0.000 A 
ATOM     13  C   UNL     1       7.471   5.021  15.242  0.00  0.00    +0.000 A 
ATOM     14  C   UNL     1       7.204   5.270  16.596  0.00  0.00    +0.000 A 
ATOM     15  C   UNL     1       5.971   4.879  17.081  0.00  0.00    +0.000 A 
ATOM     16  C   UNL     1       5.404   4.929  18.437  0.00  0.00    +0.000 C 
ATOM     17  O   UNL     1       5.953   5.461  19.385  0.00  0.00    +0.000 OA
ENDBRANCH   6   7
BRANCH   1  19
ATOM     18  O   UNL     1       2.345   6.636  18.113  0.00  0.00    +0.000 OA
ATOM     19  C   UNL     1       2.232   6.386  19.303  0.00  0.00    +0.000 C 
BRANCH  19  20
ATOM     20  O   UNL     1       1.926   7.295  20.266  0.00  0.00    +0.000 OA
BRANCH  20  21
ATOM     21  C   UNL     1       1.666   8.623  19.779  0.00  0.00    +0.000 C 
BRANCH  21  22
ATOM     22  C   UNL     1       0.796   9.443  20.632  0.00  0.00    +0.000 A 
ATOM     23  C   UNL     1      -0.370  10.219  20.422  0.00  0.00    +0.000 A 
ATOM     24  N   UNL     1      -0.735  10.818  21.565  0.00  0.00    +0.000 NA
ATOM     25  O   UNL     1       0.210  10.484  22.522  0.00  0.00    +0.000 OA
ATOM     26  N   UNL     1       1.145   9.595  21.910  0.00  0.00    +0.000 N 
ATOM     27  O   UNL     1       2.145   9.282  22.595  0.00  0.00    +0.000 OA
BRANCH  23  28
ATOM     28  C   UNL     1      -1.135  10.449  19.194  0.00  0.00    +0.000 A 
ATOM     29  C   UNL     1      -2.040  11.519  19.114  0.00  0.00    +0.000 A 
ATOM     30  C   UNL     1      -2.770  11.753  17.945  0.00  0.00    +0.000 A 
ATOM     31  C   UNL     1      -2.601  10.920  16.841  0.00  0.00    +0.000 A 
ATOM     32  C   UNL     1      -1.695   9.865  16.899  0.00  0.00    +0.000 A 
ATOM     33  C   UNL     1      -0.963   9.635  18.067  0.00  0.00    +0.000 A 
ENDBRANCH  23  28
ENDBRANCH  21  22
ENDBRANCH  20  21
ENDBRANCH  19  20
ENDBRANCH   1  19
TORSDOF 6
ENDMDL
MODEL 2
REMARK VINA RESULT:      -9.4      2.108      2.721
REMARK  Name = 
REMARK  6 active torsions:
REMARK  status: ('A' for Active; 'I' for Inactive)
REMARK    1  A    between atoms: C_2  and  O_3
REMARK    2  A    between atoms: C_2  and  C_17
REMARK    3  A    between atoms: O_3  and  C_4
REMARK    4  A    between atoms: C_4  and  C_5
REMARK    5  A    between atoms: C_6  and  C_7
REMARK    6  A    between atoms: C_22  and  N_23
REMARK                            x       y       z     vdW  Elec       q    Type
REMARK                         _______ _______ _______ _____ _____    ______ ____
ROOT
ATOM      1  C   UNL     1       2.128   4.101  19.873  0.00  0.00    +0.000 A 
ATOM      2  C   UNL     1       1.370   3.658  20.974  0.00  0.00    +0.000 A 
ATOM      3  C   UNL     1       1.827   2.616  21.784  0.00  0.00    +0.000 A 
ATOM      4  C   UNL     1       3.049   2.011  21.512  0.00  0.00    +0.000 A 
ATOM      5  C   UNL     1       3.821   2.455  20.439  0.00  0.00    +0.000 A 
ATOM      6  C   UNL     1       3.373   3.493  19.603  0.00  0.00    +0.000 A 
ENDROOT
BRANCH   6   7
ATOM      7  N   UNL     1       4.222   3.910  18.556  0.00  0.00    +0.000 N 
ATOM      8  C   UNL     1       4.053   3.502  17.258  0.00  0.00    +0.000 C 
ATOM      9  O   UNL     1       3.175   2.833  16.744  0.00  0.00    +0.000 OA
ATOM     10  C   UNL     1       5.191   4.023  16.506  0.00  0.00    +0.000 A 
ATOM     11  C   UNL     1       5.549   3.806  15.191  0.00  0.00    +0.000 A 
ATOM     12  C   UNL     1       6.723   4.414  14.742  0.00  0.00    +0.000 A 
ATOM     13  C   UNL     1       7.483   5.229  15.605  0.00  0.00    +0.000 A 
ATOM     14  C   UNL     1       7.095   5.433  16.938  0.00  0.00    +0.000 A 
ATOM     15  C   UNL     1       5.947   4.796  17.367  0.00  0.00    +0.000 A 
ATOM     16  C   UNL     1       5.308   4.742  18.689  0.00  0.00    +0.000 C 
ATOM     17  O   UNL     1       5.679   5.388  19.653  0.00  0.00    +0.000 OA
ENDBRANCH   6   7
BRANCH   1  19
ATOM     18  O   UNL     1       1.453   5.302  17.901  0.00  0.00    +0.000 OA
ATOM     19  C   UNL     1       1.656   5.287  19.105  0.00  0.00    +0.000 C 
BRANCH  19  20
ATOM     20  O   UNL     1       1.427   6.328  19.948  0.00  0.00    +0.000 OA
BRANCH  20  21
ATOM     21  C   UNL     1       2.405   7.381  19.882  0.00  0.00    +0.000 C 
BRANCH  21  22
ATOM     22  C   UNL     1       1.964   8.603  19.197  0.00  0.00    +0.000 A 
ATOM     23  C   UNL     1       1.135   9.699  19.538  0.00  0.00    +0.000 A 
ATOM     24  N   UNL     1       1.027  10.536  18.495  0.00  0.00    +0.000 NA
ATOM     25  O   UNL     1       1.740   9.976  17.447  0.00  0.00    +0.000 OA
ATOM     26  N   UNL     1       2.341   8.773  17.930  0.00  0.00    +0.000 N 
ATOM     27  O   UNL     1       2.928   8.065  17.081  0.00  0.00    +0.000 OA
BRANCH  23  28
ATOM     28  C   UNL     1       0.416   9.980  20.783  0.00  0.00    +0.000 A 
ATOM     29  C   UNL     1      -0.444  11.086  20.869  0.00  0.00    +0.000 A 
ATOM     30  C   UNL     1      -1.142  11.360  22.049  0.00  0.00    +0.000 A 
ATOM     31  C   UNL     1      -0.990  10.528  23.157  0.00  0.00    +0.000 A 
ATOM     32  C   UNL     1      -0.154   9.418  23.081  0.00  0.00    +0.000 A 
ATOM     33  C   UNL     1       0.540   9.143  21.899  0.00  0.00    +0.000 A 
ENDBRANCH  23  28
ENDBRANCH  21  22
ENDBRANCH  20  21
ENDBRANCH  19  20
ENDBRANCH   1  19
TORSDOF 6
ENDMDL
MODEL 3
REMARK VINA RESULT:      -9.3      2.189      3.226
REMARK  Name = 
REMARK  6 active torsions:
REMARK  status: ('A' for Active; 'I' for Inactive)
REMARK    1  A    between atoms: C_2  and  O_3
REMARK    2  A    between atoms: C_2  and  C_17
REMARK    3  A    between atoms: O_3  and  C_4
REMARK    4  A    between atoms: C_4  and  C_5
REMARK    5  A    between atoms: C_6  and  C_7
REMARK    6  A    between atoms: C_22  and  N_23
REMARK                            x       y       z     vdW  Elec       q    Type
REMARK                         _______ _______ _______ _____ _____    ______ ____
ROOT
ATOM      1  C   UNL     1       2.086   4.009  19.800  0.00  0.00    +0.000 A 
ATOM      2  C   UNL     1       1.249   3.645  20.872  0.00  0.00    +0.000 A 
ATOM      3  C   UNL     1       1.642   2.663  21.784  0.00  0.00    +0.000 A 
ATOM      4  C   UNL     1       2.878   2.041  21.645  0.00  0.00    +0.000 A 
ATOM      5  C   UNL     1       3.727   2.409  20.601  0.00  0.00    +0.000 A 
ATOM      6  C   UNL     1       3.344   3.384  19.664  0.00  0.00    +0.000 A 
ENDROOT
BRANCH   6   7
ATOM      7  N   UNL     1       4.268   3.726  18.653  0.00  0.00    +0.000 N 
ATOM      8  C   UNL     1       5.224   4.695  18.821  0.00  0.00    +0.000 C 
ATOM      9  O   UNL     1       5.527   5.350  19.801  0.00  0.00    +0.000 OA
ATOM     10  C   UNL     1       5.886   4.854  17.529  0.00  0.00    +0.000 A 
ATOM     11  C   UNL     1       6.841   5.771  17.138  0.00  0.00    +0.000 A 
ATOM     12  C   UNL     1       7.276   5.711  15.813  0.00  0.00    +0.000 A 
ATOM     13  C   UNL     1       6.766   4.734  14.935  0.00  0.00    +0.000 A 
ATOM     14  C   UNL     1       5.796   3.814  15.359  0.00  0.00    +0.000 A 
ATOM     15  C   UNL     1       5.359   3.913  16.666  0.00  0.00    +0.000 A 
ATOM     16  C   UNL     1       4.327   3.167  17.400  0.00  0.00    +0.000 C 
ATOM     17  O   UNL     1       3.729   2.206  16.948  0.00  0.00    +0.000 OA
ENDBRANCH   6   7
BRANCH   1  19
ATOM     18  O   UNL     1       1.605   5.080  17.700  0.00  0.00    +0.000 OA
ATOM     19  C   UNL     1       1.675   5.137  18.918  0.00  0.00    +0.000 C 
BRANCH  19  20
ATOM     20  O   UNL     1       1.335   6.217  19.669  0.00  0.00    +0.000 OA
BRANCH  20  21
ATOM     21  C   UNL     1       2.347   7.236  19.751  0.00  0.00    +0.000 C 
BRANCH  21  22
ATOM     22  C   UNL     1       2.000   8.517  19.122  0.00  0.00    +0.000 A 
ATOM     23  C   UNL     1       1.234   9.645  19.504  0.00  0.00    +0.000 A 
ATOM     24  N   UNL     1       1.202  10.538  18.503  0.00  0.00    +0.000 NA
ATOM     25  O   UNL     1       1.900   9.988  17.441  0.00  0.00    +0.000 OA
ATOM     26  N   UNL     1       2.414   8.726  17.872  0.00  0.00    +0.000 N 
ATOM     27  O   UNL     1       2.974   8.026  16.999  0.00  0.00    +0.000 OA
BRANCH  23  28
ATOM     28  C   UNL     1       0.507   9.908  20.748  0.00  0.00    +0.000 A 
ATOM     29  C   UNL     1       0.794   9.168  21.906  0.00  0.00    +0.000 A 
ATOM     30  C   UNL     1       0.111   9.416  23.101  0.00  0.00    +0.000 A 
ATOM     31  C   UNL     1      -0.863  10.410  23.153  0.00  0.00    +0.000 A 
ATOM     32  C   UNL     1      -1.147  11.164  22.017  0.00  0.00    +0.000 A 
ATOM     33  C   UNL     1      -0.461  10.918  20.824  0.00  0.00    +0.000 A 
ENDBRANCH  23  28
ENDBRANCH  21  22
ENDBRANCH  20  21
ENDBRANCH  19  20
ENDBRANCH   1  19
TORSDOF 6
ENDMDL
MODEL 4
REMARK VINA RESULT:      -9.2      0.252      1.753
REMARK  Name = 
REMARK  6 active torsions:
REMARK  status: ('A' for Active; 'I' for Inactive)
REMARK    1  A    between atoms: C_2  and  O_3
REMARK    2  A    between atoms: C_2  and  C_17
REMARK    3  A    between atoms: O_3  and  C_4
REMARK    4  A    between atoms: C_4  and  C_5
REMARK    5  A    between atoms: C_6  and  C_7
REMARK    6  A    between atoms: C_22  and  N_23
REMARK                            x       y       z     vdW  Elec       q    Type
REMARK                         _______ _______ _______ _____ _____    ______ ____
ROOT
ATOM      1  C   UNL     1       2.332   5.023  19.829  0.00  0.00    +0.000 A 
ATOM      2  C   UNL     1       1.520   4.841  20.965  0.00  0.00    +0.000 A 
ATOM      3  C   UNL     1       1.511   3.622  21.648  0.00  0.00    +0.000 A 
ATOM      4  C   UNL     1       2.320   2.577  21.214  0.00  0.00    +0.000 A 
ATOM      5  C   UNL     1       3.146   2.753  20.105  0.00  0.00    +0.000 A 
ATOM      6  C   UNL     1       3.160   3.966  19.394  0.00  0.00    +0.000 A 
ENDROOT
BRANCH   6   7
ATOM      7  N   UNL     1       4.045   4.081  18.301  0.00  0.00    +0.000 N 
ATOM      8  C   UNL     1       5.351   4.474  18.444  0.00  0.00    +0.000 C 
ATOM      9  O   UNL     1       6.007   4.702  19.444  0.00  0.00    +0.000 OA
ATOM     10  C   UNL     1       5.896   4.604  17.095  0.00  0.00    +0.000 A 
ATOM     11  C   UNL     1       7.127   5.074  16.687  0.00  0.00    +0.000 A 
ATOM     12  C   UNL     1       7.368   5.119  15.313  0.00  0.00    +0.000 A 
ATOM     13  C   UNL     1       6.390   4.677  14.399  0.00  0.00    +0.000 A 
ATOM     14  C   UNL     1       5.146   4.204  14.842  0.00  0.00    +0.000 A 
ATOM     15  C   UNL     1       4.921   4.198  16.205  0.00  0.00    +0.000 A 
ATOM     16  C   UNL     1       3.729   3.837  16.987  0.00  0.00    +0.000 C 
ATOM     17  O   UNL     1       2.719   3.356  16.506  0.00  0.00    +0.000 OA
ENDBRANCH   6   7
BRANCH   1  19
ATOM     18  O   UNL     1       2.575   6.578  18.010  0.00  0.00    +0.000 OA
ATOM     19  C   UNL     1       2.394   6.373  19.200  0.00  0.00    +0.000 C 
BRANCH  19  20
ATOM     20  O   UNL     1       2.162   7.334  20.132  0.00  0.00    +0.000 OA
BRANCH  20  21
ATOM     21  C   UNL     1       1.715   8.593  19.599  0.00  0.00    +0.000 C 
BRANCH  21  22
ATOM     22  C   UNL     1       0.844   9.375  20.486  0.00  0.00    +0.000 A 
ATOM     23  C   UNL     1      -0.330  10.147  20.310  0.00  0.00    +0.000 A 
ATOM     24  N   UNL     1      -0.693  10.702  21.477  0.00  0.00    +0.000 NA
ATOM     25  O   UNL     1       0.259  10.341  22.415  0.00  0.00    +0.000 OA
ATOM     26  N   UNL     1       1.199   9.482  21.766  0.00  0.00    +0.000 N 
ATOM     27  O   UNL     1       2.205   9.153  22.434  0.00  0.00    +0.000 OA
BRANCH  23  28
ATOM     28  C   UNL     1      -1.104  10.416  19.096  0.00  0.00    +0.000 A 
ATOM     29  C   UNL     1      -0.975   9.581  17.975  0.00  0.00    +0.000 A 
ATOM     30  C   UNL     1      -1.715   9.823  16.814  0.00  0.00    +0.000 A 
ATOM     31  C   UNL     1      -2.595  10.901  16.761  0.00  0.00    +0.000 A 
ATOM     32  C   UNL     1      -2.746  11.728  17.870  0.00  0.00    +0.000 A 
ATOM     33  C   UNL     1      -2.009  11.483  19.033  0.00  0.00    +0.000 A 
ENDBRANCH  23  28
ENDBRANCH  21  22
ENDBRANCH  20  21
ENDBRANCH  19  20
ENDBRANCH   1  19
TORSDOF 6
ENDMDL
MODEL 5
REMARK VINA RESULT:      -9.1      1.975      3.078
REMARK  Name = 
REMARK  6 active torsions:
REMARK  status: ('A' for Active; 'I' for Inactive)
REMARK    1  A    between atoms: C_2  and  O_3
REMARK    2  A    between atoms: C_2  and  C_17
REMARK    3  A    between atoms: O_3  and  C_4
REMARK    4  A    between atoms: C_4  and  C_5
REMARK    5  A    between atoms: C_6  and  C_7
REMARK    6  A    between atoms: C_22  and  N_23
REMARK                            x       y       z     vdW  Elec       q    Type
REMARK                         _______ _______ _______ _____ _____    ______ ____
ROOT
ATOM      1  C   UNL     1       2.744   5.005  19.970  0.00  0.00    +0.000 A 
ATOM      2  C   UNL     1       2.006   4.845  21.158  0.00  0.00    +0.000 A 
ATOM      3  C   UNL     1       1.934   3.602  21.791  0.00  0.00    +0.000 A 
ATOM      4  C   UNL     1       2.606   2.509  21.254  0.00  0.00    +0.000 A 
ATOM      5  C   UNL     1       3.360   2.660  20.091  0.00  0.00    +0.000 A 
ATOM      6  C   UNL     1       3.433   3.899  19.430  0.00  0.00    +0.000 A 
ENDROOT
BRANCH   6   7
ATOM      7  N   UNL     1       4.241   3.983  18.275  0.00  0.00    +0.000 N 
ATOM      8  C   UNL     1       5.576   4.292  18.326  0.00  0.00    +0.000 C 
ATOM      9  O   UNL     1       6.317   4.456  19.278  0.00  0.00    +0.000 OA
ATOM     10  C   UNL     1       6.026   4.418  16.943  0.00  0.00    +0.000 A 
ATOM     11  C   UNL     1       7.252   4.820  16.452  0.00  0.00    +0.000 A 
ATOM     12  C   UNL     1       7.393   4.881  15.064  0.00  0.00    +0.000 A 
ATOM     13  C   UNL     1       6.324   4.522  14.219  0.00  0.00    +0.000 A 
ATOM     14  C   UNL     1       5.089   4.117  14.746  0.00  0.00    +0.000 A 
ATOM     15  C   UNL     1       4.965   4.094  16.121  0.00  0.00    +0.000 A 
ATOM     16  C   UNL     1       3.813   3.790  16.984  0.00  0.00    +0.000 C 
ATOM     17  O   UNL     1       2.742   3.383  16.572  0.00  0.00    +0.000 OA
ENDBRANCH   6   7
BRANCH   1  19
ATOM     18  O   UNL     1       3.517   6.637  18.381  0.00  0.00    +0.000 OA
ATOM     19  C   UNL     1       2.884   6.371  19.390  0.00  0.00    +0.000 C 
BRANCH  19  20
ATOM     20  O   UNL     1       2.157   7.262  20.114  0.00  0.00    +0.000 OA
BRANCH  20  21
ATOM     21  C   UNL     1       1.123   7.936  19.376  0.00  0.00    +0.000 C 
BRANCH  21  22
ATOM     22  C   UNL     1       1.350   9.369  19.145  0.00  0.00    +0.000 A 
ATOM     23  C   UNL     1       0.933  10.563  19.781  0.00  0.00    +0.000 A 
ATOM     24  N   UNL     1       1.402  11.628  19.110  0.00  0.00    +0.000 NA
ATOM     25  O   UNL     1       2.086  11.146  18.006  0.00  0.00    +0.000 OA
ATOM     26  N   UNL     1       2.059   9.719  18.072  0.00  0.00    +0.000 N 
ATOM     27  O   UNL     1       2.528   9.108  17.086  0.00  0.00    +0.000 OA
BRANCH  23  28
ATOM     28  C   UNL     1       0.091  10.753  20.964  0.00  0.00    +0.000 A 
ATOM     29  C   UNL     1       0.158   9.846  22.033  0.00  0.00    +0.000 A 
ATOM     30  C   UNL     1      -0.636  10.021  23.171  0.00  0.00    +0.000 A 
ATOM     31  C   UNL     1      -1.503  11.107  23.254  0.00  0.00    +0.000 A 
ATOM     32  C   UNL     1      -1.568  12.025  22.209  0.00  0.00    +0.000 A 
ATOM     33  C   UNL     1      -0.772  11.851  21.074  0.00  0.00    +0.000 A 
ENDBRANCH  23  28
ENDBRANCH  21  22
ENDBRANCH  20  21
ENDBRANCH  19  20
ENDBRANCH   1  19
TORSDOF 6
ENDMDL
MODEL 6
REMARK VINA RESULT:      -8.8      2.492      3.431
REMARK  Name = 
REMARK  6 active torsions:
REMARK  status: ('A' for Active; 'I' for Inactive)
REMARK    1  A    between atoms: C_2  and  O_3
REMARK    2  A    between atoms: C_2  and  C_17
REMARK    3  A    between atoms: O_3  and  C_4
REMARK    4  A    between atoms: C_4  and  C_5
REMARK    5  A    between atoms: C_6  and  C_7
REMARK    6  A    between atoms: C_22  and  N_23
REMARK                            x       y       z     vdW  Elec       q    Type
REMARK                         _______ _______ _______ _____ _____    ______ ____
ROOT
ATOM      1  C   UNL     1       2.077   4.165  19.304  0.00  0.00    +0.000 A 
ATOM      2  C   UNL     1       0.946   3.335  19.416  0.00  0.00    +0.000 A 
ATOM      3  C   UNL     1       0.851   2.153  18.677  0.00  0.00    +0.000 A 
ATOM      4  C   UNL     1       1.888   1.781  17.828  0.00  0.00    +0.000 A 
ATOM      5  C   UNL     1       3.024   2.582  17.725  0.00  0.00    +0.000 A 
ATOM      6  C   UNL     1       3.133   3.783  18.449  0.00  0.00    +0.000 A 
ENDROOT
BRANCH   6   7
ATOM      7  N   UNL     1       4.326   4.525  18.319  0.00  0.00    +0.000 N 
ATOM      8  C   UNL     1       5.370   4.411  19.200  0.00  0.00    +0.000 C 
ATOM      9  O   UNL     1       5.534   3.659  20.143  0.00  0.00    +0.000 OA
ATOM     10  C   UNL     1       6.350   5.423  18.818  0.00  0.00    +0.000 A 
ATOM     11  C   UNL     1       7.523   5.792  19.445  0.00  0.00    +0.000 A 
ATOM     12  C   UNL     1       8.256   6.830  18.867  0.00  0.00    +0.000 A 
ATOM     13  C   UNL     1       7.811   7.446  17.680  0.00  0.00    +0.000 A 
ATOM     14  C   UNL     1       6.615   7.051  17.063  0.00  0.00    +0.000 A 
ATOM     15  C   UNL     1       5.893   6.043  17.671  0.00  0.00    +0.000 A 
ATOM     16  C   UNL     1       4.592   5.446  17.334  0.00  0.00    +0.000 C 
ATOM     17  O   UNL     1       3.961   5.711  16.327  0.00  0.00    +0.000 OA
ENDBRANCH   6   7
BRANCH   1  19
ATOM     18  O   UNL     1       2.422   5.314  21.389  0.00  0.00    +0.000 OA
ATOM     19  C   UNL     1       2.185   5.357  20.192  0.00  0.00    +0.000 C 
BRANCH  19  20
ATOM     20  O   UNL     1       2.042   6.496  19.465  0.00  0.00    +0.000 OA
BRANCH  20  21
ATOM     21  C   UNL     1       1.885   7.693  20.246  0.00  0.00    +0.000 C 
BRANCH  21  22
ATOM     22  C   UNL     1       1.590   8.909  19.478  0.00  0.00    +0.000 A 
ATOM     23  C   UNL     1       0.821  10.076  19.707  0.00  0.00    +0.000 A 
ATOM     24  N   UNL     1       0.855  10.868  18.623  0.00  0.00    +0.000 NA
ATOM     25  O   UNL     1       1.601  10.209  17.659  0.00  0.00    +0.000 OA
ATOM     26  N   UNL     1       2.073   8.991  18.238  0.00  0.00    +0.000 N 
ATOM     27  O   UNL     1       2.669   8.204  17.468  0.00  0.00    +0.000 OA
BRANCH  23  28
ATOM     28  C   UNL     1       0.033  10.466  20.878  0.00  0.00    +0.000 A 
ATOM     29  C   UNL     1      -0.760  11.624  20.843  0.00  0.00    +0.000 A 
ATOM     30  C   UNL     1      -1.523  12.002  21.952  0.00  0.00    +0.000 A 
ATOM     31  C   UNL     1      -1.504  11.224  23.108  0.00  0.00    +0.000 A 
ATOM     32  C   UNL     1      -0.735  10.064  23.151  0.00  0.00    +0.000 A 
ATOM     33  C   UNL     1       0.024   9.685  22.040  0.00  0.00    +0.000 A 
ENDBRANCH  23  28
ENDBRANCH  21  22
ENDBRANCH  20  21
ENDBRANCH  19  20
ENDBRANCH   1  19
TORSDOF 6
ENDMDL
MODEL 7
REMARK VINA RESULT:      -8.7      1.893      2.838
REMARK  Name = 
REMARK  6 active torsions:
REMARK  status: ('A' for Active; 'I' for Inactive)
REMARK    1  A    between atoms: C_2  and  O_3
REMARK    2  A    between atoms: C_2  and  C_17
REMARK    3  A    between atoms: O_3  and  C_4
REMARK    4  A    between atoms: C_4  and  C_5
REMARK    5  A    between atoms: C_6  and  C_7
REMARK    6  A    between atoms: C_22  and  N_23
REMARK                            x       y       z     vdW  Elec       q    Type
REMARK                         _______ _______ _______ _____ _____    ______ ____
ROOT
ATOM      1  C   UNL     1       2.488   5.084  19.854  0.00  0.00    +0.000 A 
ATOM      2  C   UNL     1       1.717   4.936  21.023  0.00  0.00    +0.000 A 
ATOM      3  C   UNL     1       1.738   3.741  21.746  0.00  0.00    +0.000 A 
ATOM      4  C   UNL     1       2.536   2.686  21.319  0.00  0.00    +0.000 A 
ATOM      5  C   UNL     1       3.322   2.827  20.176  0.00  0.00    +0.000 A 
ATOM      6  C   UNL     1       3.305   4.016  19.426  0.00  0.00    +0.000 A 
ENDROOT
BRANCH   6   7
ATOM      7  N   UNL     1       4.151   4.098  18.300  0.00  0.00    +0.000 N 
ATOM      8  C   UNL     1       5.468   4.470  18.387  0.00  0.00    +0.000 C 
ATOM      9  O   UNL     1       6.164   4.702  19.359  0.00  0.00    +0.000 OA
ATOM     10  C   UNL     1       5.964   4.569  17.018  0.00  0.00    +0.000 A 
ATOM     11  C   UNL     1       7.188   5.010  16.557  0.00  0.00    +0.000 A 
ATOM     12  C   UNL     1       7.379   5.029  15.174  0.00  0.00    +0.000 A 
ATOM     13  C   UNL     1       6.360   4.590  14.304  0.00  0.00    +0.000 A 
ATOM     14  C   UNL     1       5.125   4.146  14.801  0.00  0.00    +0.000 A 
ATOM     15  C   UNL     1       4.950   4.166  16.171  0.00  0.00    +0.000 A 
ATOM     16  C   UNL     1       3.782   3.839  17.002  0.00  0.00    +0.000 C 
ATOM     17  O   UNL     1       2.747   3.368  16.566  0.00  0.00    +0.000 OA
ENDBRANCH   6   7
BRANCH   1  19
ATOM     18  O   UNL     1       2.793   6.587  18.001  0.00  0.00    +0.000 OA
ATOM     19  C   UNL     1       2.521   6.412  19.178  0.00  0.00    +0.000 C 
BRANCH  19  20
ATOM     20  O   UNL     1       2.147   7.387  20.047  0.00  0.00    +0.000 OA
BRANCH  20  21
ATOM     21  C   UNL     1       1.525   8.531  19.436  0.00  0.00    +0.000 C 
BRANCH  21  22
ATOM     22  C   UNL     1       0.795   9.413  20.356  0.00  0.00    +0.000 A 
ATOM     23  C   UNL     1       0.782  10.806  20.609  0.00  0.00    +0.000 A 
ATOM     24  N   UNL     1      -0.059  11.082  21.618  0.00  0.00    +0.000 NA
ATOM     25  O   UNL     1      -0.568   9.874  22.067  0.00  0.00    +0.000 OA
ATOM     26  N   UNL     1      -0.032   8.845  21.234  0.00  0.00    +0.000 N 
ATOM     27  O   UNL     1      -0.289   7.667  21.571  0.00  0.00    +0.000 OA
BRANCH  23  28
ATOM     28  C   UNL     1       1.545  11.883  19.973  0.00  0.00    +0.000 A 
ATOM     29  C   UNL     1       1.790  11.856  18.591  0.00  0.00    +0.000 A 
ATOM     30  C   UNL     1       2.510  12.882  17.972  0.00  0.00    +0.000 A 
ATOM     31  C   UNL     1       2.990  13.949  18.728  0.00  0.00    +0.000 A 
ATOM     32  C   UNL     1       2.740  13.999  20.096  0.00  0.00    +0.000 A 
ATOM     33  C   UNL     1       2.016  12.974  20.713  0.00  0.00    +0.000 A 
ENDBRANCH  23  28
ENDBRANCH  21  22
ENDBRANCH  20  21
ENDBRANCH  19  20
ENDBRANCH   1  19
TORSDOF 6
ENDMDL
MODEL 8
REMARK VINA RESULT:      -8.7      3.438      6.913
REMARK  Name = 
REMARK  6 active torsions:
REMARK  status: ('A' for Active; 'I' for Inactive)
REMARK    1  A    between atoms: C_2  and  O_3
REMARK    2  A    between atoms: C_2  and  C_17
REMARK    3  A    between atoms: O_3  and  C_4
REMARK    4  A    between atoms: C_4  and  C_5
REMARK    5  A    between atoms: C_6  and  C_7
REMARK    6  A    between atoms: C_22  and  N_23
REMARK                            x       y       z     vdW  Elec       q    Type
REMARK                         _______ _______ _______ _____ _____    ______ ____
ROOT
ATOM      1  C   UNL     1      -0.482  11.684  18.528  0.00  0.00    +0.000 A 
ATOM      2  C   UNL     1      -0.800  13.036  18.297  0.00  0.00    +0.000 A 
ATOM      3  C   UNL     1       0.099  14.050  18.636  0.00  0.00    +0.000 A 
ATOM      4  C   UNL     1       1.329  13.727  19.199  0.00  0.00    +0.000 A 
ATOM      5  C   UNL     1       1.666  12.390  19.412  0.00  0.00    +0.000 A 
ATOM      6  C   UNL     1       0.770  11.356  19.091  0.00  0.00    +0.000 A 
ENDROOT
BRANCH   6   7
ATOM      7  N   UNL     1       1.193  10.026  19.305  0.00  0.00    +0.000 N 
ATOM      8  C   UNL     1       1.866   9.301  18.357  0.00  0.00    +0.000 C 
ATOM      9  O   UNL     1       2.291   9.626  17.263  0.00  0.00    +0.000 OA
ATOM     10  C   UNL     1       2.006   7.949  18.889  0.00  0.00    +0.000 A 
ATOM     11  C   UNL     1       2.509   6.815  18.285  0.00  0.00    +0.000 A 
ATOM     12  C   UNL     1       2.489   5.634  19.029  0.00  0.00    +0.000 A 
ATOM     13  C   UNL     1       1.992   5.627  20.348  0.00  0.00    +0.000 A 
ATOM     14  C   UNL     1       1.486   6.795  20.937  0.00  0.00    +0.000 A 
ATOM     15  C   UNL     1       1.489   7.943  20.170  0.00  0.00    +0.000 A 
ATOM     16  C   UNL     1       0.982   9.295  20.449  0.00  0.00    +0.000 C 
ATOM     17  O   UNL     1       0.540   9.647  21.528  0.00  0.00    +0.000 OA
ENDBRANCH   6   7
BRANCH   1  19
ATOM     18  O   UNL     1      -1.193   9.857  17.134  0.00  0.00    +0.000 OA
ATOM     19  C   UNL     1      -1.423  10.632  18.049  0.00  0.00    +0.000 C 
BRANCH  19  20
ATOM     20  O   UNL     1      -2.544  10.624  18.817  0.00  0.00    +0.000 OA
BRANCH  20  21
ATOM     21  C   UNL     1      -3.618  11.444  18.323  0.00  0.00    +0.000 C 
BRANCH  21  22
ATOM     22  C   UNL     1      -4.485  12.029  19.353  0.00  0.00    +0.000 A 
ATOM     23  C   UNL     1      -4.269  12.756  20.549  0.00  0.00    +0.000 A 
ATOM     24  N   UNL     1      -5.442  13.010  21.150  0.00  0.00    +0.000 NA
ATOM     25  O   UNL     1      -6.431  12.413  20.385  0.00  0.00    +0.000 OA
ATOM     26  N   UNL     1      -5.798  11.828  19.245  0.00  0.00    +0.000 N 
ATOM     27  O   UNL     1      -6.527  11.136  18.499  0.00  0.00    +0.000 OA
BRANCH  23  28
ATOM     28  C   UNL     1      -3.016  13.193  21.169  0.00  0.00    +0.000 A 
ATOM     29  C   UNL     1      -2.676  14.555  21.195  0.00  0.00    +0.000 A 
ATOM     30  C   UNL     1      -1.487  14.984  21.791  0.00  0.00    +0.000 A 
ATOM     31  C   UNL     1      -0.624  14.056  22.370  0.00  0.00    +0.000 A 
ATOM     32  C   UNL     1      -0.955  12.704  22.366  0.00  0.00    +0.000 A 
ATOM     33  C   UNL     1      -2.146  12.276  21.774  0.00  0.00    +0.000 A 
ENDBRANCH  23  28
ENDBRANCH  21  22
ENDBRANCH  20  21
ENDBRANCH  19  20
ENDBRANCH   1  19
TORSDOF 6
ENDMDL
MODEL 9
REMARK VINA RESULT:      -8.7      3.623      7.286
REMARK  Name = 
REMARK  6 active torsions:
REMARK  status: ('A' for Active; 'I' for Inactive)
REMARK    1  A    between atoms: C_2  and  O_3
REMARK    2  A    between atoms: C_2  and  C_17
REMARK    3  A    between atoms: O_3  and  C_4
REMARK    4  A    between atoms: C_4  and  C_5
REMARK    5  A    between atoms: C_6  and  C_7
REMARK    6  A    between atoms: C_22  and  N_23
REMARK                            x       y       z     vdW  Elec       q    Type
REMARK                         _______ _______ _______ _____ _____    ______ ____
ROOT
ATOM      1  C   UNL     1      -0.564  12.304  18.987  0.00  0.00    +0.000 A 
ATOM      2  C   UNL     1      -0.786  13.694  19.006  0.00  0.00    +0.000 A 
ATOM      3  C   UNL     1       0.160  14.561  19.559  0.00  0.00    +0.000 A 
ATOM      4  C   UNL     1       1.341  14.053  20.088  0.00  0.00    +0.000 A 
ATOM      5  C   UNL     1       1.584  12.680  20.054  0.00  0.00    +0.000 A 
ATOM      6  C   UNL     1       0.640  11.789  19.515  0.00  0.00    +0.000 A 
ENDROOT
BRANCH   6   7
ATOM      7  N   UNL     1       0.969  10.417  19.487  0.00  0.00    +0.000 N 
ATOM      8  C   UNL     1       0.638   9.555  20.500  0.00  0.00    +0.000 C 
ATOM      9  O   UNL     1      -0.023   9.730  21.507  0.00  0.00    +0.000 OA
ATOM     10  C   UNL     1       1.261   8.275  20.176  0.00  0.00    +0.000 A 
ATOM     11  C   UNL     1       1.323   7.114  20.921  0.00  0.00    +0.000 A 
ATOM     12  C   UNL     1       2.023   6.040  20.369  0.00  0.00    +0.000 A 
ATOM     13  C   UNL     1       2.614   6.149  19.095  0.00  0.00    +0.000 A 
ATOM     14  C   UNL     1       2.535   7.340  18.359  0.00  0.00    +0.000 A 
ATOM     15  C   UNL     1       1.863   8.399  18.939  0.00  0.00    +0.000 A 
ATOM     16  C   UNL     1       1.656   9.780  18.482  0.00  0.00    +0.000 C 
ATOM     17  O   UNL     1       1.990  10.193  17.386  0.00  0.00    +0.000 OA
ENDBRANCH   6   7
BRANCH   1  19
ATOM     18  O   UNL     1      -1.423  11.016  17.147  0.00  0.00    +0.000 OA
ATOM     19  C   UNL     1      -1.547  11.428  18.289  0.00  0.00    +0.000 C 
BRANCH  19  20
ATOM     20  O   UNL     1      -2.567  11.110  19.128  0.00  0.00    +0.000 OA
BRANCH  20  21
ATOM     21  C   UNL     1      -3.806  11.785  18.851  0.00  0.00    +0.000 C 
BRANCH  21  22
ATOM     22  C   UNL     1      -4.662  12.028  20.019  0.00  0.00    +0.000 A 
ATOM     23  C   UNL     1      -4.464  12.580  21.308  0.00  0.00    +0.000 A 
ATOM     24  N   UNL     1      -5.602  12.515  22.016  0.00  0.00    +0.000 NA
ATOM     25  O   UNL     1      -6.542  11.879  21.221  0.00  0.00    +0.000 OA
ATOM     26  N   UNL     1      -5.926  11.611  19.960  0.00  0.00    +0.000 N 
ATOM     27  O   UNL     1      -6.593  10.927  19.150  0.00  0.00    +0.000 OA
BRANCH  23  28
ATOM     28  C   UNL     1      -3.251  13.133  21.917  0.00  0.00    +0.000 A 
ATOM     29  C   UNL     1      -2.245  12.278  22.393  0.00  0.00    +0.000 A 
ATOM     30  C   UNL     1      -1.080  12.794  22.969  0.00  0.00    +0.000 A 
ATOM     31  C   UNL     1      -0.906  14.173  23.070  0.00  0.00    +0.000 A 
ATOM     32  C   UNL     1      -1.887  15.033  22.586  0.00  0.00    +0.000 A 
ATOM     33  C   UNL     1      -3.050  14.516  22.008  0.00  0.00    +0.000 A 
ENDBRANCH  23  28
ENDBRANCH  21  22
ENDBRANCH  20  21
ENDBRANCH  19  20
ENDBRANCH   1  19
TORSDOF 6
ENDMDL
