MODEL 1
REMARK VINA RESULT:      -7.1      0.000      0.000
REMARK  Name = 
REMARK  11 active torsions:
REMARK  status: ('A' for Active; 'I' for Inactive)
REMARK    1  A    between atoms: C_1  and  C_2
REMARK    2  A    between atoms: C_2  and  C_3
REMARK    3  A    between atoms: C_2  and  C_4
REMARK    4  A    between atoms: C_2  and  O_5
REMARK    5  A    between atoms: O_5  and  C_6
REMARK    6  A    between atoms: N_8  and  C_9
REMARK    7  A    between atoms: C_9  and  C_10
REMARK    8  A    between atoms: N_13  and  C_14
REMARK    9  A    between atoms: C_14  and  C_15
REMARK   10  A    between atoms: N_17  and  C_18
REMARK   11  A    between atoms: C_18  and  C_19
REMARK                            x       y       z     vdW  Elec       q    Type
REMARK                         _______ _______ _______ _____ _____    ______ ____
ROOT
ATOM      1  C   UNL     1       2.209   2.635  18.395  0.00  0.00    +0.000 C 
ATOM      2  C   UNL     1       2.241   2.154  19.839  0.00  0.00    +0.000 C 
ATOM      3  C   UNL     1       1.087   2.912  20.469  0.00  0.00    +0.000 C 
ATOM      4  N   UNL     1       1.122   4.255  19.858  0.00  0.00    +0.000 NA
ATOM      5  C   UNL     1       1.661   4.059  18.492  0.00  0.00    +0.000 C 
ENDROOT
BRANCH   1   6
ATOM      6  C   UNL     1       3.578   2.574  17.718  0.00  0.00    +0.000 C 
BRANCH   6   9
ATOM      7  C   UNL     1       5.063   4.328  18.560  0.00  0.00    +0.000 C 
ATOM      8  O   UNL     1       5.365   3.667  19.538  0.00  0.00    +0.000 OA
ATOM      9  N   UNL     1       4.204   3.878  17.596  0.00  0.00    +0.000 N 
ATOM     10  H   UNL     1       4.049   4.470  16.796  0.00  0.00    +0.000 HD
BRANCH   7  11
ATOM     11  O   UNL     1       5.514   5.574  18.266  0.00  0.00    +0.000 OA
BRANCH  11  13
ATOM     12  C   UNL     1       7.136   7.145  17.298  0.00  0.00    +0.000 C 
ATOM     13  C   UNL     1       6.878   5.708  17.773  0.00  0.00    +0.000 C 
ATOM     14  C   UNL     1       7.183   4.671  16.681  0.00  0.00    +0.000 C 
ATOM     15  C   UNL     1       7.822   5.434  18.957  0.00  0.00    +0.000 C 
ENDBRANCH  11  13
ENDBRANCH   7  11
ENDBRANCH   6   9
ENDBRANCH   1   6
BRANCH   4  16
ATOM     16  C   UNL     1       1.993   5.159  20.657  0.00  0.00    +0.000 C 
BRANCH  16  17
ATOM     17  C   UNL     1       2.029   6.590  20.097  0.00  0.00    +0.000 C 
ATOM     18  O   UNL     1       2.542   6.841  19.010  0.00  0.00    +0.000 OA
ATOM     19  N   UNL     1       1.459   7.552  20.895  0.00  0.00    +0.000 N 
ATOM     20  H   UNL     1       1.174   7.282  21.833  0.00  0.00    +0.000 HD
BRANCH  19  21
ATOM     21  C   UNL     1       1.400   8.933  20.491  0.00  0.00    +0.000 C 
BRANCH  21  22
ATOM     22  C   UNL     1       0.461   9.679  21.364  0.00  0.00    +0.000 A 
ATOM     23  C   UNL     1      -0.286  10.826  21.177  0.00  0.00    +0.000 A 
ATOM     24  C   UNL     1      -0.932  11.088  22.409  0.00  0.00    +0.000 A 
ATOM     25  C   UNL     1      -0.553  10.080  23.263  0.00  0.00    +0.000 A 
ATOM     26  O   UNL     1       0.291   9.217  22.637  0.00  0.00    +0.000 OA
ENDBRANCH  21  22
ENDBRANCH  19  21
ENDBRANCH  16  17
ENDBRANCH   4  16
TORSDOF 8
ENDMDL
MODEL 2
REMARK VINA RESULT:      -7.1      3.838      8.913
REMARK  Name = 
REMARK  11 active torsions:
REMARK  status: ('A' for Active; 'I' for Inactive)
REMARK    1  A    between atoms: C_1  and  C_2
REMARK    2  A    between atoms: C_2  and  C_3
REMARK    3  A    between atoms: C_2  and  C_4
REMARK    4  A    between atoms: C_2  and  O_5
REMARK    5  A    between atoms: O_5  and  C_6
REMARK    6  A    between atoms: N_8  and  C_9
REMARK    7  A    between atoms: C_9  and  C_10
REMARK    8  A    between atoms: N_13  and  C_14
REMARK    9  A    between atoms: C_14  and  C_15
REMARK   10  A    between atoms: N_17  and  C_18
REMARK   11  A    between atoms: C_18  and  C_19
REMARK                            x       y       z     vdW  Elec       q    Type
REMARK                         _______ _______ _______ _____ _____    ______ ____
ROOT
ATOM      1  C   UNL     1       5.266   6.496  17.964  0.00  0.00    +0.000 C 
ATOM      2  C   UNL     1       5.875   5.366  18.784  0.00  0.00    +0.000 C 
ATOM      3  C   UNL     1       7.338   5.412  18.383  0.00  0.00    +0.000 C 
ATOM      4  N   UNL     1       7.338   5.716  16.939  0.00  0.00    +0.000 NA
ATOM      5  C   UNL     1       6.132   6.546  16.705  0.00  0.00    +0.000 C 
ENDROOT
BRANCH   1   6
ATOM      6  C   UNL     1       3.786   6.275  17.655  0.00  0.00    +0.000 C 
BRANCH   6   9
ATOM      7  C   UNL     1       2.091   4.718  18.487  0.00  0.00    +0.000 C 
ATOM      8  O   UNL     1       1.782   4.377  17.359  0.00  0.00    +0.000 OA
ATOM      9  N   UNL     1       3.074   5.634  18.745  0.00  0.00    +0.000 N 
ATOM     10  H   UNL     1       3.297   5.819  19.710  0.00  0.00    +0.000 HD
BRANCH   7  11
ATOM     11  O   UNL     1       1.538   4.261  19.640  0.00  0.00    +0.000 OA
BRANCH  11  13
ATOM     12  C   UNL     1       3.291   2.568  19.951  0.00  0.00    +0.000 C 
ATOM     13  C   UNL     1       1.788   2.876  20.016  0.00  0.00    +0.000 C 
ATOM     14  C   UNL     1       0.958   1.906  19.161  0.00  0.00    +0.000 C 
ATOM     15  C   UNL     1       1.342   2.711  21.479  0.00  0.00    +0.000 C 
ENDBRANCH  11  13
ENDBRANCH   7  11
ENDBRANCH   6   9
ENDBRANCH   1   6
BRANCH   4  16
ATOM     16  C   UNL     1       7.287   4.456  16.149  0.00  0.00    +0.000 C 
BRANCH  16  17
ATOM     17  C   UNL     1       6.980   4.703  14.664  0.00  0.00    +0.000 C 
ATOM     18  O   UNL     1       7.700   5.417  13.970  0.00  0.00    +0.000 OA
ATOM     19  N   UNL     1       5.856   4.080  14.181  0.00  0.00    +0.000 N 
ATOM     20  H   UNL     1       5.248   3.615  14.849  0.00  0.00    +0.000 HD
BRANCH  19  21
ATOM     21  C   UNL     1       5.455   4.203  12.803  0.00  0.00    +0.000 C 
BRANCH  21  22
ATOM     22  C   UNL     1       5.954   3.044  12.022  0.00  0.00    +0.000 A 
ATOM     23  C   UNL     1       5.350   1.890  11.562  0.00  0.00    +0.000 A 
ATOM     24  C   UNL     1       6.367   1.125  10.943  0.00  0.00    +0.000 A 
ATOM     25  C   UNL     1       7.521   1.863  11.050  0.00  0.00    +0.000 A 
ATOM     26  O   UNL     1       7.281   3.032  11.701  0.00  0.00    +0.000 OA
ENDBRANCH  21  22
ENDBRANCH  19  21
ENDBRANCH  16  17
ENDBRANCH   4  16
TORSDOF 8
ENDMDL
MODEL 3
REMARK VINA RESULT:      -6.9      1.524      7.081
REMARK  Name = 
REMARK  11 active torsions:
REMARK  status: ('A' for Active; 'I' for Inactive)
REMARK    1  A    between atoms: C_1  and  C_2
REMARK    2  A    between atoms: C_2  and  C_3
REMARK    3  A    between atoms: C_2  and  C_4
REMARK    4  A    between atoms: C_2  and  O_5
REMARK    5  A    between atoms: O_5  and  C_6
REMARK    6  A    between atoms: N_8  and  C_9
REMARK    7  A    between atoms: C_9  and  C_10
REMARK    8  A    between atoms: N_13  and  C_14
REMARK    9  A    between atoms: C_14  and  C_15
REMARK   10  A    between atoms: N_17  and  C_18
REMARK   11  A    between atoms: C_18  and  C_19
REMARK                            x       y       z     vdW  Elec       q    Type
REMARK                         _______ _______ _______ _____ _____    ______ ____
ROOT
ATOM      1  C   UNL     1       2.667   4.498  20.379  0.00  0.00    +0.000 C 
ATOM      2  C   UNL     1       1.847   3.242  20.122  0.00  0.00    +0.000 C 
ATOM      3  C   UNL     1       2.910   2.163  20.019  0.00  0.00    +0.000 C 
ATOM      4  N   UNL     1       4.035   2.792  19.299  0.00  0.00    +0.000 NA
ATOM      5  C   UNL     1       3.991   4.227  19.664  0.00  0.00    +0.000 C 
ENDROOT
BRANCH   1   6
ATOM      6  C   UNL     1       1.978   5.769  19.885  0.00  0.00    +0.000 C 
BRANCH   6   9
ATOM      7  C   UNL     1       1.705   8.095  20.596  0.00  0.00    +0.000 C 
ATOM      8  O   UNL     1       1.668   8.492  19.444  0.00  0.00    +0.000 OA
ATOM      9  N   UNL     1       1.840   6.774  20.923  0.00  0.00    +0.000 N 
ATOM     10  H   UNL     1       1.812   6.531  21.900  0.00  0.00    +0.000 HD
BRANCH   7  11
ATOM     11  O   UNL     1       1.617   8.866  21.710  0.00  0.00    +0.000 OA
BRANCH  11  13
ATOM     12  C   UNL     1      -0.805   8.475  21.585  0.00  0.00    +0.000 C 
ATOM     13  C   UNL     1       0.314   9.412  22.061  0.00  0.00    +0.000 C 
ATOM     14  C   UNL     1       0.143  10.842  21.525  0.00  0.00    +0.000 C 
ATOM     15  C   UNL     1       0.243   9.477  23.597  0.00  0.00    +0.000 C 
ENDBRANCH  11  13
ENDBRANCH   7  11
ENDBRANCH   6   9
ENDBRANCH   1   6
BRANCH   4  16
ATOM     16  C   UNL     1       3.874   2.603  17.832  0.00  0.00    +0.000 C 
BRANCH  16  17
ATOM     17  C   UNL     1       4.543   3.721  17.017  0.00  0.00    +0.000 C 
ATOM     18  O   UNL     1       3.911   4.702  16.633  0.00  0.00    +0.000 OA
ATOM     19  N   UNL     1       5.878   3.540  16.750  0.00  0.00    +0.000 N 
ATOM     20  H   UNL     1       6.293   2.644  16.990  0.00  0.00    +0.000 HD
BRANCH  19  21
ATOM     21  C   UNL     1       6.642   4.515  16.014  0.00  0.00    +0.000 C 
BRANCH  21  22
ATOM     22  C   UNL     1       7.154   5.560  16.934  0.00  0.00    +0.000 A 
ATOM     23  C   UNL     1       7.658   5.515  18.220  0.00  0.00    +0.000 A 
ATOM     24  C   UNL     1       7.910   6.855  18.598  0.00  0.00    +0.000 A 
ATOM     25  C   UNL     1       7.562   7.631  17.519  0.00  0.00    +0.000 A 
ATOM     26  O   UNL     1       7.104   6.853  16.501  0.00  0.00    +0.000 OA
ENDBRANCH  21  22
ENDBRANCH  19  21
ENDBRANCH  16  17
ENDBRANCH   4  16
TORSDOF 8
ENDMDL
MODEL 4
REMARK VINA RESULT:      -6.9      0.705      1.213
REMARK  Name = 
REMARK  11 active torsions:
REMARK  status: ('A' for Active; 'I' for Inactive)
REMARK    1  A    between atoms: C_1  and  C_2
REMARK    2  A    between atoms: C_2  and  C_3
REMARK    3  A    between atoms: C_2  and  C_4
REMARK    4  A    between atoms: C_2  and  O_5
REMARK    5  A    between atoms: O_5  and  C_6
REMARK    6  A    between atoms: N_8  and  C_9
REMARK    7  A    between atoms: C_9  and  C_10
REMARK    8  A    between atoms: N_13  and  C_14
REMARK    9  A    between atoms: C_14  and  C_15
REMARK   10  A    between atoms: N_17  and  C_18
REMARK   11  A    between atoms: C_18  and  C_19
REMARK                            x       y       z     vdW  Elec       q    Type
REMARK                         _______ _______ _______ _____ _____    ______ ____
ROOT
ATOM      1  C   UNL     1       2.180   2.966  18.142  0.00  0.00    +0.000 C 
ATOM      2  C   UNL     1       2.336   2.198  19.447  0.00  0.00    +0.000 C 
ATOM      3  C   UNL     1       1.143   2.670  20.258  0.00  0.00    +0.000 C 
ATOM      4  N   UNL     1       1.006   4.107  19.950  0.00  0.00    +0.000 NA
ATOM      5  C   UNL     1       1.492   4.265  18.558  0.00  0.00    +0.000 C 
ENDROOT
BRANCH   1   6
ATOM      6  C   UNL     1       3.512   3.205  17.431  0.00  0.00    +0.000 C 
BRANCH   6   9
ATOM      7  C   UNL     1       4.992   5.150  17.539  0.00  0.00    +0.000 C 
ATOM      8  O   UNL     1       4.811   5.413  16.363  0.00  0.00    +0.000 OA
ATOM      9  N   UNL     1       4.391   4.095  18.167  0.00  0.00    +0.000 N 
ATOM     10  H   UNL     1       4.559   3.981  19.154  0.00  0.00    +0.000 HD
BRANCH   7  11
ATOM     11  O   UNL     1       5.789   5.837  18.398  0.00  0.00    +0.000 OA
BRANCH  11  13
ATOM     12  C   UNL     1       8.021   5.782  19.424  0.00  0.00    +0.000 C 
ATOM     13  C   UNL     1       7.218   5.877  18.119  0.00  0.00    +0.000 C 
ATOM     14  C   UNL     1       7.592   7.119  17.294  0.00  0.00    +0.000 C 
ATOM     15  C   UNL     1       7.555   4.635  17.275  0.00  0.00    +0.000 C 
ENDBRANCH  11  13
ENDBRANCH   7  11
ENDBRANCH   6   9
ENDBRANCH   1   6
BRANCH   4  16
ATOM     16  C   UNL     1       1.816   4.915  20.900  0.00  0.00    +0.000 C 
BRANCH  16  17
ATOM     17  C   UNL     1       2.060   6.346  20.397  0.00  0.00    +0.000 C 
ATOM     18  O   UNL     1       2.923   6.593  19.558  0.00  0.00    +0.000 OA
ATOM     19  N   UNL     1       1.259   7.313  20.953  0.00  0.00    +0.000 N 
ATOM     20  H   UNL     1       0.662   7.045  21.731  0.00  0.00    +0.000 HD
BRANCH  19  21
ATOM     21  C   UNL     1       1.360   8.696  20.563  0.00  0.00    +0.000 C 
BRANCH  21  22
ATOM     22  C   UNL     1       0.446   9.525  21.387  0.00  0.00    +0.000 A 
ATOM     23  C   UNL     1      -0.215  10.715  21.149  0.00  0.00    +0.000 A 
ATOM     24  C   UNL     1      -0.881  11.050  22.352  0.00  0.00    +0.000 A 
ATOM     25  C   UNL     1      -0.600  10.041  23.241  0.00  0.00    +0.000 A 
ATOM     26  O   UNL     1       0.204   9.107  22.664  0.00  0.00    +0.000 OA
ENDBRANCH  21  22
ENDBRANCH  19  21
ENDBRANCH  16  17
ENDBRANCH   4  16
TORSDOF 8
ENDMDL
MODEL 5
REMARK VINA RESULT:      -6.9      1.422      6.965
REMARK  Name = 
REMARK  11 active torsions:
REMARK  status: ('A' for Active; 'I' for Inactive)
REMARK    1  A    between atoms: C_1  and  C_2
REMARK    2  A    between atoms: C_2  and  C_3
REMARK    3  A    between atoms: C_2  and  C_4
REMARK    4  A    between atoms: C_2  and  O_5
REMARK    5  A    between atoms: O_5  and  C_6
REMARK    6  A    between atoms: N_8  and  C_9
REMARK    7  A    between atoms: C_9  and  C_10
REMARK    8  A    between atoms: N_13  and  C_14
REMARK    9  A    between atoms: C_14  and  C_15
REMARK   10  A    between atoms: N_17  and  C_18
REMARK   11  A    between atoms: C_18  and  C_19
REMARK                            x       y       z     vdW  Elec       q    Type
REMARK                         _______ _______ _______ _____ _____    ______ ____
ROOT
ATOM      1  C   UNL     1       2.324   4.822  20.792  0.00  0.00    +0.000 C 
ATOM      2  C   UNL     1       1.244   3.749  20.776  0.00  0.00    +0.000 C 
ATOM      3  C   UNL     1       2.045   2.466  20.903  0.00  0.00    +0.000 C 
ATOM      4  N   UNL     1       3.257   2.681  20.089  0.00  0.00    +0.000 NA
ATOM      5  C   UNL     1       3.536   4.135  20.164  0.00  0.00    +0.000 C 
ENDROOT
BRANCH   1   6
ATOM      6  C   UNL     1       1.912   6.091  20.047  0.00  0.00    +0.000 C 
BRANCH   6   9
ATOM      7  C   UNL     1       1.553   8.473  20.476  0.00  0.00    +0.000 C 
ATOM      8  O   UNL     1       1.762   8.763  19.311  0.00  0.00    +0.000 OA
ATOM      9  N   UNL     1       1.587   7.188  20.940  0.00  0.00    +0.000 N 
ATOM     10  H   UNL     1       1.352   7.035  21.908  0.00  0.00    +0.000 HD
BRANCH   7  11
ATOM     11  O   UNL     1       1.256   9.344  21.475  0.00  0.00    +0.000 OA
BRANCH  11  13
ATOM     12  C   UNL     1      -0.723   9.935  20.144  0.00  0.00    +0.000 C 
ATOM     13  C   UNL     1       0.294  10.401  21.196  0.00  0.00    +0.000 C 
ATOM     14  C   UNL     1       0.998  11.705  20.787  0.00  0.00    +0.000 C 
ATOM     15  C   UNL     1      -0.478  10.674  22.499  0.00  0.00    +0.000 C 
ENDBRANCH  11  13
ENDBRANCH   7  11
ENDBRANCH   6   9
ENDBRANCH   1   6
BRANCH   4  16
ATOM     16  C   UNL     1       3.017   2.249  18.687  0.00  0.00    +0.000 C 
BRANCH  16  17
ATOM     17  C   UNL     1       3.609   3.226  17.659  0.00  0.00    +0.000 C 
ATOM     18  O   UNL     1       2.889   3.883  16.910  0.00  0.00    +0.000 OA
ATOM     19  N   UNL     1       4.980   3.303  17.636  0.00  0.00    +0.000 N 
ATOM     20  H   UNL     1       5.501   2.633  18.195  0.00  0.00    +0.000 HD
BRANCH  19  21
ATOM     21  C   UNL     1       5.674   4.191  16.739  0.00  0.00    +0.000 C 
BRANCH  21  22
ATOM     22  C   UNL     1       6.526   5.129  17.511  0.00  0.00    +0.000 A 
ATOM     23  C   UNL     1       6.980   6.410  17.259  0.00  0.00    +0.000 A 
ATOM     24  C   UNL     1       7.825   6.754  18.341  0.00  0.00    +0.000 A 
ATOM     25  C   UNL     1       7.821   5.674  19.191  0.00  0.00    +0.000 A 
ATOM     26  O   UNL     1       7.032   4.682  18.697  0.00  0.00    +0.000 OA
ENDBRANCH  21  22
ENDBRANCH  19  21
ENDBRANCH  16  17
ENDBRANCH   4  16
TORSDOF 8
ENDMDL
MODEL 6
REMARK VINA RESULT:      -6.9      4.174      6.463
REMARK  Name = 
REMARK  11 active torsions:
REMARK  status: ('A' for Active; 'I' for Inactive)
REMARK    1  A    between atoms: C_1  and  C_2
REMARK    2  A    between atoms: C_2  and  C_3
REMARK    3  A    between atoms: C_2  and  C_4
REMARK    4  A    between atoms: C_2  and  O_5
REMARK    5  A    between atoms: O_5  and  C_6
REMARK    6  A    between atoms: N_8  and  C_9
REMARK    7  A    between atoms: C_9  and  C_10
REMARK    8  A    between atoms: N_13  and  C_14
REMARK    9  A    between atoms: C_14  and  C_15
REMARK   10  A    between atoms: N_17  and  C_18
REMARK   11  A    between atoms: C_18  and  C_19
REMARK                            x       y       z     vdW  Elec       q    Type
REMARK                         _______ _______ _______ _____ _____    ______ ____
ROOT
ATOM      1  C   UNL     1       7.092   5.988  16.545  0.00  0.00    +0.000 C 
ATOM      2  C   UNL     1       7.175   7.199  17.464  0.00  0.00    +0.000 C 
ATOM      3  C   UNL     1       8.060   6.701  18.593  0.00  0.00    +0.000 C 
ATOM      4  N   UNL     1       7.657   5.299  18.815  0.00  0.00    +0.000 NA
ATOM      5  C   UNL     1       7.216   4.796  17.493  0.00  0.00    +0.000 C 
ENDROOT
BRANCH   1   6
ATOM      6  C   UNL     1       5.806   5.956  15.720  0.00  0.00    +0.000 C 
BRANCH   6   9
ATOM      7  C   UNL     1       6.431   4.374  13.960  0.00  0.00    +0.000 C 
ATOM      8  O   UNL     1       7.345   5.086  13.580  0.00  0.00    +0.000 OA
ATOM      9  N   UNL     1       5.622   4.702  15.013  0.00  0.00    +0.000 N 
ATOM     10  H   UNL     1       4.923   4.032  15.290  0.00  0.00    +0.000 HD
BRANCH   7  11
ATOM     11  O   UNL     1       6.074   3.178  13.427  0.00  0.00    +0.000 OA
BRANCH  11  13
ATOM     12  C   UNL     1       6.922   3.930  11.247  0.00  0.00    +0.000 C 
ATOM     13  C   UNL     1       5.858   3.109  11.988  0.00  0.00    +0.000 C 
ATOM     14  C   UNL     1       4.429   3.536  11.616  0.00  0.00    +0.000 C 
ATOM     15  C   UNL     1       6.031   1.638  11.569  0.00  0.00    +0.000 C 
ENDBRANCH  11  13
ENDBRANCH   7  11
ENDBRANCH   6   9
ENDBRANCH   1   6
BRANCH   4  16
ATOM     16  C   UNL     1       6.556   5.234  19.813  0.00  0.00    +0.000 C 
BRANCH  16  17
ATOM     17  C   UNL     1       5.288   4.574  19.249  0.00  0.00    +0.000 C 
ATOM     18  O   UNL     1       4.420   5.233  18.680  0.00  0.00    +0.000 OA
ATOM     19  N   UNL     1       5.196   3.216  19.430  0.00  0.00    +0.000 N 
ATOM     20  H   UNL     1       5.891   2.769  20.022  0.00  0.00    +0.000 HD
BRANCH  19  21
ATOM     21  C   UNL     1       4.073   2.460  18.937  0.00  0.00    +0.000 C 
BRANCH  21  22
ATOM     22  C   UNL     1       2.878   2.718  19.776  0.00  0.00    +0.000 A 
ATOM     23  C   UNL     1       2.653   2.654  21.138  0.00  0.00    +0.000 A 
ATOM     24  C   UNL     1       1.281   2.939  21.331  0.00  0.00    +0.000 A 
ATOM     25  C   UNL     1       0.757   3.173  20.083  0.00  0.00    +0.000 A 
ATOM     26  O   UNL     1       1.720   3.045  19.130  0.00  0.00    +0.000 OA
ENDBRANCH  21  22
ENDBRANCH  19  21
ENDBRANCH  16  17
ENDBRANCH   4  16
TORSDOF 8
ENDMDL
MODEL 7
REMARK VINA RESULT:      -6.8      2.544      5.918
REMARK  Name = 
REMARK  11 active torsions:
REMARK  status: ('A' for Active; 'I' for Inactive)
REMARK    1  A    between atoms: C_1  and  C_2
REMARK    2  A    between atoms: C_2  and  C_3
REMARK    3  A    between atoms: C_2  and  C_4
REMARK    4  A    between atoms: C_2  and  O_5
REMARK    5  A    between atoms: O_5  and  C_6
REMARK    6  A    between atoms: N_8  and  C_9
REMARK    7  A    between atoms: C_9  and  C_10
REMARK    8  A    between atoms: N_13  and  C_14
REMARK    9  A    between atoms: C_14  and  C_15
REMARK   10  A    between atoms: N_17  and  C_18
REMARK   11  A    between atoms: C_18  and  C_19
REMARK                            x       y       z     vdW  Elec       q    Type
REMARK                         _______ _______ _______ _____ _____    ______ ____
ROOT
ATOM      1  C   UNL     1       1.812   3.018  20.769  0.00  0.00    +0.000 C 
ATOM      2  C   UNL     1       0.624   3.450  19.921  0.00  0.00    +0.000 C 
ATOM      3  C   UNL     1       0.626   2.431  18.797  0.00  0.00    +0.000 C 
ATOM      4  N   UNL     1       2.050   2.199  18.484  0.00  0.00    +0.000 NA
ATOM      5  C   UNL     1       2.777   2.394  19.761  0.00  0.00    +0.000 C 
ENDROOT
BRANCH   1   6
ATOM      6  C   UNL     1       2.439   4.175  21.547  0.00  0.00    +0.000 C 
BRANCH   6   9
ATOM      7  C   UNL     1       3.021   6.036  20.069  0.00  0.00    +0.000 C 
ATOM      8  O   UNL     1       4.050   5.491  19.709  0.00  0.00    +0.000 OA
ATOM      9  N   UNL     1       2.151   5.470  20.958  0.00  0.00    +0.000 N 
ATOM     10  H   UNL     1       1.300   5.970  21.161  0.00  0.00    +0.000 HD
BRANCH   7  11
ATOM     11  O   UNL     1       2.577   7.253  19.661  0.00  0.00    +0.000 OA
BRANCH  11  13
ATOM     12  C   UNL     1       1.644   8.793  17.989  0.00  0.00    +0.000 C 
ATOM     13  C   UNL     1       2.365   7.459  18.235  0.00  0.00    +0.000 C 
ATOM     14  C   UNL     1       1.624   6.272  17.601  0.00  0.00    +0.000 C 
ATOM     15  C   UNL     1       3.752   7.553  17.574  0.00  0.00    +0.000 C 
ENDBRANCH  11  13
ENDBRANCH   7  11
ENDBRANCH   6   9
ENDBRANCH   1   6
BRANCH   4  16
ATOM     16  C   UNL     1       2.511   3.161  17.448  0.00  0.00    +0.000 C 
BRANCH  16  17
ATOM     17  C   UNL     1       4.014   3.037  17.155  0.00  0.00    +0.000 C 
ATOM     18  O   UNL     1       4.597   1.959  17.239  0.00  0.00    +0.000 OA
ATOM     19  N   UNL     1       4.647   4.204  16.803  0.00  0.00    +0.000 N 
ATOM     20  H   UNL     1       4.122   5.071  16.883  0.00  0.00    +0.000 HD
BRANCH  19  21
ATOM     21  C   UNL     1       6.050   4.237  16.480  0.00  0.00    +0.000 C 
BRANCH  21  22
ATOM     22  C   UNL     1       6.764   5.151  17.405  0.00  0.00    +0.000 A 
ATOM     23  C   UNL     1       7.265   6.430  17.262  0.00  0.00    +0.000 A 
ATOM     24  C   UNL     1       7.914   6.744  18.480  0.00  0.00    +0.000 A 
ATOM     25  C   UNL     1       7.756   5.648  19.293  0.00  0.00    +0.000 A 
ATOM     26  O   UNL     1       7.056   4.675  18.651  0.00  0.00    +0.000 OA
ENDBRANCH  21  22
ENDBRANCH  19  21
ENDBRANCH  16  17
ENDBRANCH   4  16
TORSDOF 8
ENDMDL
MODEL 8
REMARK VINA RESULT:      -6.8      1.383      1.649
REMARK  Name = 
REMARK  11 active torsions:
REMARK  status: ('A' for Active; 'I' for Inactive)
REMARK    1  A    between atoms: C_1  and  C_2
REMARK    2  A    between atoms: C_2  and  C_3
REMARK    3  A    between atoms: C_2  and  C_4
REMARK    4  A    between atoms: C_2  and  O_5
REMARK    5  A    between atoms: O_5  and  C_6
REMARK    6  A    between atoms: N_8  and  C_9
REMARK    7  A    between atoms: C_9  and  C_10
REMARK    8  A    between atoms: N_13  and  C_14
REMARK    9  A    between atoms: C_14  and  C_15
REMARK   10  A    between atoms: N_17  and  C_18
REMARK   11  A    between atoms: C_18  and  C_19
REMARK                            x       y       z     vdW  Elec       q    Type
REMARK                         _______ _______ _______ _____ _____    ______ ____
ROOT
ATOM      1  C   UNL     1       2.283   2.951  17.876  0.00  0.00    +0.000 C 
ATOM      2  C   UNL     1       1.955   2.203  19.161  0.00  0.00    +0.000 C 
ATOM      3  C   UNL     1       0.763   2.972  19.700  0.00  0.00    +0.000 C 
ATOM      4  N   UNL     1       1.049   4.391  19.410  0.00  0.00    +0.000 NA
ATOM      5  C   UNL     1       1.854   4.389  18.166  0.00  0.00    +0.000 C 
ENDROOT
BRANCH   1   6
ATOM      6  C   UNL     1       3.756   2.841  17.484  0.00  0.00    +0.000 C 
BRANCH   6   9
ATOM      7  C   UNL     1       5.285   4.177  18.851  0.00  0.00    +0.000 C 
ATOM      8  O   UNL     1       5.425   3.275  19.659  0.00  0.00    +0.000 OA
ATOM      9  N   UNL     1       4.498   4.062  17.738  0.00  0.00    +0.000 N 
ATOM     10  H   UNL     1       4.479   4.841  17.098  0.00  0.00    +0.000 HD
BRANCH   7  11
ATOM     11  O   UNL     1       5.867   5.402  18.911  0.00  0.00    +0.000 OA
BRANCH  11  13
ATOM     12  C   UNL     1       6.125   6.435  16.697  0.00  0.00    +0.000 C 
ATOM     13  C   UNL     1       6.831   5.751  17.876  0.00  0.00    +0.000 C 
ATOM     14  C   UNL     1       7.647   4.526  17.435  0.00  0.00    +0.000 C 
ATOM     15  C   UNL     1       7.809   6.771  18.487  0.00  0.00    +0.000 C 
ENDBRANCH  11  13
ENDBRANCH   7  11
ENDBRANCH   6   9
ENDBRANCH   1   6
BRANCH   4  16
ATOM     16  C   UNL     1       1.800   5.003  20.539  0.00  0.00    +0.000 C 
BRANCH  16  17
ATOM     17  C   UNL     1       2.135   6.482  20.290  0.00  0.00    +0.000 C 
ATOM     18  O   UNL     1       2.967   6.819  19.451  0.00  0.00    +0.000 OA
ATOM     19  N   UNL     1       1.451   7.383  21.068  0.00  0.00    +0.000 N 
ATOM     20  H   UNL     1       0.879   7.018  21.824  0.00  0.00    +0.000 HD
BRANCH  19  21
ATOM     21  C   UNL     1       1.646   8.804  20.931  0.00  0.00    +0.000 C 
BRANCH  21  22
ATOM     22  C   UNL     1       0.752   9.341  19.876  0.00  0.00    +0.000 A 
ATOM     23  C   UNL     1       0.924   9.568  18.524  0.00  0.00    +0.000 A 
ATOM     24  C   UNL     1      -0.271  10.171  18.064  0.00  0.00    +0.000 A 
ATOM     25  C   UNL     1      -1.101  10.260  19.155  0.00  0.00    +0.000 A 
ATOM     26  O   UNL     1      -0.490   9.756  20.262  0.00  0.00    +0.000 OA
ENDBRANCH  21  22
ENDBRANCH  19  21
ENDBRANCH  16  17
ENDBRANCH   4  16
TORSDOF 8
ENDMDL
MODEL 9
REMARK VINA RESULT:      -6.8      3.621      8.964
REMARK  Name = 
REMARK  11 active torsions:
REMARK  status: ('A' for Active; 'I' for Inactive)
REMARK    1  A    between atoms: C_1  and  C_2
REMARK    2  A    between atoms: C_2  and  C_3
REMARK    3  A    between atoms: C_2  and  C_4
REMARK    4  A    between atoms: C_2  and  O_5
REMARK    5  A    between atoms: O_5  and  C_6
REMARK    6  A    between atoms: N_8  and  C_9
REMARK    7  A    between atoms: C_9  and  C_10
REMARK    8  A    between atoms: N_13  and  C_14
REMARK    9  A    between atoms: C_14  and  C_15
REMARK   10  A    between atoms: N_17  and  C_18
REMARK   11  A    between atoms: C_18  and  C_19
REMARK                            x       y       z     vdW  Elec       q    Type
REMARK                         _______ _______ _______ _____ _____    ______ ____
ROOT
ATOM      1  C   UNL     1       5.329   6.432  18.102  0.00  0.00    +0.000 C 
ATOM      2  C   UNL     1       6.208   5.450  18.865  0.00  0.00    +0.000 C 
ATOM      3  C   UNL     1       7.579   5.688  18.258  0.00  0.00    +0.000 C 
ATOM      4  N   UNL     1       7.336   5.908  16.819  0.00  0.00    +0.000 NA
ATOM      5  C   UNL     1       5.997   6.538  16.732  0.00  0.00    +0.000 C 
ENDROOT
BRANCH   1   6
ATOM      6  C   UNL     1       3.871   5.980  18.015  0.00  0.00    +0.000 C 
BRANCH   6   9
ATOM      7  C   UNL     1       3.297   3.751  18.846  0.00  0.00    +0.000 C 
ATOM      8  O   UNL     1       3.444   3.251  17.745  0.00  0.00    +0.000 OA
ATOM      9  N   UNL     1       3.496   5.081  19.091  0.00  0.00    +0.000 N 
ATOM     10  H   UNL     1       3.399   5.400  20.042  0.00  0.00    +0.000 HD
BRANCH   7  11
ATOM     11  O   UNL     1       2.929   3.098  19.978  0.00  0.00    +0.000 OA
BRANCH  11  13
ATOM     12  C   UNL     1       1.226   4.764  20.578  0.00  0.00    +0.000 C 
ATOM     13  C   UNL     1       1.562   3.271  20.453  0.00  0.00    +0.000 C 
ATOM     14  C   UNL     1       1.325   2.509  21.766  0.00  0.00    +0.000 C 
ATOM     15  C   UNL     1       0.628   2.672  19.388  0.00  0.00    +0.000 C 
ENDBRANCH  11  13
ENDBRANCH   7  11
ENDBRANCH   6   9
ENDBRANCH   1   6
BRANCH   4  16
ATOM     16  C   UNL     1       7.371   4.613  16.089  0.00  0.00    +0.000 C 
BRANCH  16  17
ATOM     17  C   UNL     1       6.987   4.760  14.609  0.00  0.00    +0.000 C 
ATOM     18  O   UNL     1       7.621   5.490  13.850  0.00  0.00    +0.000 OA
ATOM     19  N   UNL     1       5.896   4.030  14.205  0.00  0.00    +0.000 N 
ATOM     20  H   UNL     1       5.352   3.556  14.920  0.00  0.00    +0.000 HD
BRANCH  19  21
ATOM     21  C   UNL     1       5.432   4.053  12.841  0.00  0.00    +0.000 C 
BRANCH  21  22
ATOM     22  C   UNL     1       6.084   2.970  12.064  0.00  0.00    +0.000 A 
ATOM     23  C   UNL     1       7.369   2.802  11.583  0.00  0.00    +0.000 A 
ATOM     24  C   UNL     1       7.364   1.594  10.845  0.00  0.00    +0.000 A 
ATOM     25  C   UNL     1       6.087   1.094  10.935  0.00  0.00    +0.000 A 
ATOM     26  O   UNL     1       5.302   1.921  11.676  0.00  0.00    +0.000 OA
ENDBRANCH  21  22
ENDBRANCH  19  21
ENDBRANCH  16  17
ENDBRANCH   4  16
TORSDOF 8
ENDMDL
