MODEL 1
REMARK VINA RESULT:      -6.6      0.000      0.000
REMARK  Name = 
REMARK  6 active torsions:
REMARK  status: ('A' for Active; 'I' for Inactive)
REMARK    1  A    between atoms: C_2  and  C_4
REMARK    2  A    between atoms: C_4  and  C_7
REMARK    3  A    between atoms: C_7  and  C_10
REMARK    4  A    between atoms: C_10  and  C_13
REMARK    5  A    between atoms: C_13  and  C_16
REMARK    6  A    between atoms: C_16  and  O_18
REMARK                            x       y       z     vdW  Elec       q    Type
REMARK                         _______ _______ _______ _____ _____    ______ ____
ROOT
ATOM      1  C   UNL     1       3.774   4.199  18.463  0.00  0.00    +0.000 C 
ATOM      2  F   UNL     1       4.208   3.133  19.194  0.00  0.00    +0.000 F 
ATOM      3  F   UNL     1       3.652   5.220  19.351  0.00  0.00    +0.000 F 
ENDROOT
BRANCH   1   4
ATOM      4  C   UNL     1       4.787   4.508  17.376  0.00  0.00    +0.000 C 
ATOM      5  F   UNL     1       4.251   5.291  16.401  0.00  0.00    +0.000 F 
ATOM      6  F   UNL     1       5.117   3.340  16.734  0.00  0.00    +0.000 F 
BRANCH   4   7
ATOM      7  C   UNL     1       6.054   5.103  17.929  0.00  0.00    +0.000 C 
ATOM      8  F   UNL     1       6.279   4.665  19.211  0.00  0.00    +0.000 F 
ATOM      9  F   UNL     1       5.959   6.462  18.039  0.00  0.00    +0.000 F 
BRANCH   7  11
ATOM     10  O   UNL     1       8.235   4.120  17.733  0.00  0.00    +0.000 OA
ATOM     11  C   UNL     1       7.329   4.765  17.148  0.00  0.00    +0.000 C 
ATOM     12  O   UNL     1       7.440   5.327  16.003  0.00  0.00    +0.000 OA
ENDBRANCH   7  11
ENDBRANCH   4   7
ENDBRANCH   1   4
BRANCH   1  13
ATOM     13  C   UNL     1       2.421   3.908  17.846  0.00  0.00    +0.000 C 
ATOM     14  F   UNL     1       1.747   5.071  17.581  0.00  0.00    +0.000 F 
ATOM     15  F   UNL     1       2.541   3.272  16.650  0.00  0.00    +0.000 F 
BRANCH  13  16
ATOM     16  C   UNL     1       1.603   3.086  18.832  0.00  0.00    +0.000 C 
ATOM     17  O   UNL     1       1.081   3.511  19.858  0.00  0.00    +0.000 OA
BRANCH  16  18
ATOM     18  O   UNL     1       1.530   1.769  18.492  0.00  0.00    +0.000 OA
ATOM     19  H   UNL     1       2.388   1.427  18.147  0.00  0.00    +0.000 HD
ENDBRANCH  16  18
ENDBRANCH  13  16
ENDBRANCH   1  13
TORSDOF 6
ENDMDL
MODEL 2
REMARK VINA RESULT:      -6.4      0.960      4.838
REMARK  Name = 
REMARK  6 active torsions:
REMARK  status: ('A' for Active; 'I' for Inactive)
REMARK    1  A    between atoms: C_2  and  C_4
REMARK    2  A    between atoms: C_4  and  C_7
REMARK    3  A    between atoms: C_7  and  C_10
REMARK    4  A    between atoms: C_10  and  C_13
REMARK    5  A    between atoms: C_13  and  C_16
REMARK    6  A    between atoms: C_16  and  O_18
REMARK                            x       y       z     vdW  Elec       q    Type
REMARK                         _______ _______ _______ _____ _____    ______ ____
ROOT
ATOM      1  C   UNL     1       4.820   4.934  17.511  0.00  0.00    +0.000 C 
ATOM      2  F   UNL     1       4.282   6.183  17.405  0.00  0.00    +0.000 F 
ATOM      3  F   UNL     1       5.601   4.971  18.622  0.00  0.00    +0.000 F 
ENDROOT
BRANCH   1   4
ATOM      4  C   UNL     1       3.703   3.914  17.634  0.00  0.00    +0.000 C 
ATOM      5  F   UNL     1       4.155   2.735  18.139  0.00  0.00    +0.000 F 
ATOM      6  F   UNL     1       3.253   3.598  16.375  0.00  0.00    +0.000 F 
BRANCH   4   7
ATOM      7  C   UNL     1       2.534   4.441  18.421  0.00  0.00    +0.000 C 
ATOM      8  F   UNL     1       1.714   5.204  17.625  0.00  0.00    +0.000 F 
ATOM      9  F   UNL     1       2.943   5.291  19.411  0.00  0.00    +0.000 F 
BRANCH   7  11
ATOM     10  O   UNL     1       1.773   3.096  20.257  0.00  0.00    +0.000 OA
ATOM     11  C   UNL     1       1.627   3.371  19.040  0.00  0.00    +0.000 C 
ATOM     12  O   UNL     1       0.906   2.713  18.212  0.00  0.00    +0.000 OA
ENDBRANCH   7  11
ENDBRANCH   4   7
ENDBRANCH   1   4
BRANCH   1  13
ATOM     13  C   UNL     1       5.682   4.620  16.304  0.00  0.00    +0.000 C 
ATOM     14  F   UNL     1       5.727   3.270  16.078  0.00  0.00    +0.000 F 
ATOM     15  F   UNL     1       5.171   5.165  15.168  0.00  0.00    +0.000 F 
BRANCH  13  16
ATOM     16  C   UNL     1       7.095   5.117  16.572  0.00  0.00    +0.000 C 
ATOM     17  O   UNL     1       7.486   6.271  16.430  0.00  0.00    +0.000 OA
BRANCH  16  18
ATOM     18  O   UNL     1       7.942   4.122  16.957  0.00  0.00    +0.000 OA
ATOM     19  H   UNL     1       7.981   3.391  16.296  0.00  0.00    +0.000 HD
ENDBRANCH  16  18
ENDBRANCH  13  16
ENDBRANCH   1  13
TORSDOF 6
ENDMDL
MODEL 3
REMARK VINA RESULT:      -6.4      1.171      4.565
REMARK  Name = 
REMARK  6 active torsions:
REMARK  status: ('A' for Active; 'I' for Inactive)
REMARK    1  A    between atoms: C_2  and  C_4
REMARK    2  A    between atoms: C_4  and  C_7
REMARK    3  A    between atoms: C_7  and  C_10
REMARK    4  A    between atoms: C_10  and  C_13
REMARK    5  A    between atoms: C_13  and  C_16
REMARK    6  A    between atoms: C_16  and  O_18
REMARK                            x       y       z     vdW  Elec       q    Type
REMARK                         _______ _______ _______ _____ _____    ______ ____
ROOT
ATOM      1  C   UNL     1       4.741   5.301  17.307  0.00  0.00    +0.000 C 
ATOM      2  F   UNL     1       4.271   6.516  16.906  0.00  0.00    +0.000 F 
ATOM      3  F   UNL     1       5.484   5.549  18.417  0.00  0.00    +0.000 F 
ENDROOT
BRANCH   1   4
ATOM      4  C   UNL     1       3.571   4.380  17.599  0.00  0.00    +0.000 C 
ATOM      5  F   UNL     1       3.271   3.597  16.529  0.00  0.00    +0.000 F 
ATOM      6  F   UNL     1       2.445   5.143  17.790  0.00  0.00    +0.000 F 
BRANCH   4   7
ATOM      7  C   UNL     1       3.786   3.560  18.842  0.00  0.00    +0.000 C 
ATOM      8  F   UNL     1       3.363   4.243  19.956  0.00  0.00    +0.000 F 
ATOM      9  F   UNL     1       5.116   3.330  19.062  0.00  0.00    +0.000 F 
BRANCH   7  11
ATOM     10  O   UNL     1       3.652   1.192  18.475  0.00  0.00    +0.000 OA
ATOM     11  C   UNL     1       3.047   2.218  18.876  0.00  0.00    +0.000 C 
ATOM     12  O   UNL     1       1.798   2.283  19.148  0.00  0.00    +0.000 OA
ENDBRANCH   7  11
ENDBRANCH   4   7
ENDBRANCH   1   4
BRANCH   1  13
ATOM     13  C   UNL     1       5.628   4.692  16.239  0.00  0.00    +0.000 C 
ATOM     14  F   UNL     1       5.591   3.324  16.298  0.00  0.00    +0.000 F 
ATOM     15  F   UNL     1       5.202   5.017  14.989  0.00  0.00    +0.000 F 
BRANCH  13  16
ATOM     16  C   UNL     1       7.060   5.151  16.475  0.00  0.00    +0.000 C 
ATOM     17  O   UNL     1       7.500   6.271  16.236  0.00  0.00    +0.000 OA
BRANCH  16  18
ATOM     18  O   UNL     1       7.862   4.159  16.952  0.00  0.00    +0.000 OA
ATOM     19  H   UNL     1       8.782   4.473  17.117  0.00  0.00    +0.000 HD
ENDBRANCH  16  18
ENDBRANCH  13  16
ENDBRANCH   1  13
TORSDOF 6
ENDMDL
MODEL 4
REMARK VINA RESULT:      -6.4      0.977      2.357
REMARK  Name = 
REMARK  6 active torsions:
REMARK  status: ('A' for Active; 'I' for Inactive)
REMARK    1  A    between atoms: C_2  and  C_4
REMARK    2  A    between atoms: C_4  and  C_7
REMARK    3  A    between atoms: C_7  and  C_10
REMARK    4  A    between atoms: C_10  and  C_13
REMARK    5  A    between atoms: C_13  and  C_16
REMARK    6  A    between atoms: C_16  and  O_18
REMARK                            x       y       z     vdW  Elec       q    Type
REMARK                         _______ _______ _______ _____ _____    ______ ____
ROOT
ATOM      1  C   UNL     1       3.680   3.821  17.673  0.00  0.00    +0.000 C 
ATOM      2  F   UNL     1       3.198   3.572  16.421  0.00  0.00    +0.000 F 
ATOM      3  F   UNL     1       4.114   2.621  18.137  0.00  0.00    +0.000 F 
ENDROOT
BRANCH   1   4
ATOM      4  C   UNL     1       4.802   4.838  17.586  0.00  0.00    +0.000 C 
ATOM      5  F   UNL     1       5.503   4.911  18.749  0.00  0.00    +0.000 F 
ATOM      6  F   UNL     1       4.255   6.089  17.438  0.00  0.00    +0.000 F 
BRANCH   4   7
ATOM      7  C   UNL     1       5.707   4.590  16.410  0.00  0.00    +0.000 C 
ATOM      8  F   UNL     1       5.225   5.212  15.284  0.00  0.00    +0.000 F 
ATOM      9  F   UNL     1       5.745   3.263  16.082  0.00  0.00    +0.000 F 
BRANCH   7  11
ATOM     10  O   UNL     1       7.431   6.240  16.149  0.00  0.00    +0.000 OA
ATOM     11  C   UNL     1       7.146   5.092  16.575  0.00  0.00    +0.000 C 
ATOM     12  O   UNL     1       7.991   4.220  16.980  0.00  0.00    +0.000 OA
ENDBRANCH   7  11
ENDBRANCH   4   7
ENDBRANCH   1   4
BRANCH   1  13
ATOM     13  C   UNL     1       2.578   4.337  18.577  0.00  0.00    +0.000 C 
ATOM     14  F   UNL     1       3.102   4.890  19.715  0.00  0.00    +0.000 F 
ATOM     15  F   UNL     1       1.865   5.331  17.981  0.00  0.00    +0.000 F 
BRANCH  13  16
ATOM     16  C   UNL     1       1.683   3.171  18.970  0.00  0.00    +0.000 C 
ATOM     17  O   UNL     1       0.862   2.622  18.242  0.00  0.00    +0.000 OA
BRANCH  16  18
ATOM     18  O   UNL     1       1.842   2.796  20.270  0.00  0.00    +0.000 OA
ATOM     19  H   UNL     1       2.743   2.436  20.445  0.00  0.00    +0.000 HD
ENDBRANCH  16  18
ENDBRANCH  13  16
ENDBRANCH   1  13
TORSDOF 6
ENDMDL
MODEL 5
REMARK VINA RESULT:      -6.4      0.393      4.977
REMARK  Name = 
REMARK  6 active torsions:
REMARK  status: ('A' for Active; 'I' for Inactive)
REMARK    1  A    between atoms: C_2  and  C_4
REMARK    2  A    between atoms: C_4  and  C_7
REMARK    3  A    between atoms: C_7  and  C_10
REMARK    4  A    between atoms: C_10  and  C_13
REMARK    5  A    between atoms: C_13  and  C_16
REMARK    6  A    between atoms: C_16  and  O_18
REMARK                            x       y       z     vdW  Elec       q    Type
REMARK                         _______ _______ _______ _____ _____    ______ ____
ROOT
ATOM      1  C   UNL     1       4.751   4.616  17.467  0.00  0.00    +0.000 C 
ATOM      2  F   UNL     1       5.051   3.406  16.914  0.00  0.00    +0.000 F 
ATOM      3  F   UNL     1       4.291   5.378  16.441  0.00  0.00    +0.000 F 
ENDROOT
BRANCH   1   4
ATOM      4  C   UNL     1       3.705   4.429  18.550  0.00  0.00    +0.000 C 
ATOM      5  F   UNL     1       3.766   5.417  19.482  0.00  0.00    +0.000 F 
ATOM      6  F   UNL     1       3.993   3.282  19.249  0.00  0.00    +0.000 F 
BRANCH   4   7
ATOM      7  C   UNL     1       2.318   4.287  17.985  0.00  0.00    +0.000 C 
ATOM      8  F   UNL     1       2.338   3.561  16.819  0.00  0.00    +0.000 F 
ATOM      9  F   UNL     1       1.800   5.501  17.628  0.00  0.00    +0.000 F 
BRANCH   7  11
ATOM     10  O   UNL     1       1.185   3.981  20.079  0.00  0.00    +0.000 OA
ATOM     11  C   UNL     1       1.310   3.576  18.896  0.00  0.00    +0.000 C 
ATOM     12  O   UNL     1       0.799   2.503  18.421  0.00  0.00    +0.000 OA
ENDBRANCH   7  11
ENDBRANCH   4   7
ENDBRANCH   1   4
BRANCH   1  13
ATOM     13  C   UNL     1       5.994   5.260  18.049  0.00  0.00    +0.000 C 
ATOM     14  F   UNL     1       5.889   6.626  18.028  0.00  0.00    +0.000 F 
ATOM     15  F   UNL     1       6.166   4.926  19.356  0.00  0.00    +0.000 F 
BRANCH  13  16
ATOM     16  C   UNL     1       7.194   4.851  17.208  0.00  0.00    +0.000 C 
ATOM     17  O   UNL     1       7.401   5.188  16.046  0.00  0.00    +0.000 OA
BRANCH  16  18
ATOM     18  O   UNL     1       8.037   4.005  17.863  0.00  0.00    +0.000 OA
ATOM     19  H   UNL     1       8.482   3.375  17.249  0.00  0.00    +0.000 HD
ENDBRANCH  16  18
ENDBRANCH  13  16
ENDBRANCH   1  13
TORSDOF 6
ENDMDL
MODEL 6
REMARK VINA RESULT:      -6.4      1.040      4.877
REMARK  Name = 
REMARK  6 active torsions:
REMARK  status: ('A' for Active; 'I' for Inactive)
REMARK    1  A    between atoms: C_2  and  C_4
REMARK    2  A    between atoms: C_4  and  C_7
REMARK    3  A    between atoms: C_7  and  C_10
REMARK    4  A    between atoms: C_10  and  C_13
REMARK    5  A    between atoms: C_13  and  C_16
REMARK    6  A    between atoms: C_16  and  O_18
REMARK                            x       y       z     vdW  Elec       q    Type
REMARK                         _______ _______ _______ _____ _____    ______ ____
ROOT
ATOM      1  C   UNL     1       4.970   4.601  18.075  0.00  0.00    +0.000 C 
ATOM      2  F   UNL     1       5.026   5.800  18.723  0.00  0.00    +0.000 F 
ATOM      3  F   UNL     1       5.598   3.718  18.894  0.00  0.00    +0.000 F 
ENDROOT
BRANCH   1   4
ATOM      4  C   UNL     1       3.519   4.225  17.837  0.00  0.00    +0.000 C 
ATOM      5  F   UNL     1       3.367   3.523  16.683  0.00  0.00    +0.000 F 
ATOM      6  F   UNL     1       2.792   5.373  17.637  0.00  0.00    +0.000 F 
BRANCH   4   7
ATOM      7  C   UNL     1       2.919   3.499  19.010  0.00  0.00    +0.000 C 
ATOM      8  F   UNL     1       3.336   4.056  20.194  0.00  0.00    +0.000 F 
ATOM      9  F   UNL     1       3.350   2.203  19.066  0.00  0.00    +0.000 F 
BRANCH   7  11
ATOM     10  O   UNL     1       0.827   4.140  19.997  0.00  0.00    +0.000 OA
ATOM     11  C   UNL     1       1.387   3.506  19.069  0.00  0.00    +0.000 C 
ATOM     12  O   UNL     1       0.801   2.709  18.256  0.00  0.00    +0.000 OA
ENDBRANCH   7  11
ENDBRANCH   4   7
ENDBRANCH   1   4
BRANCH   1  13
ATOM     13  C   UNL     1       5.712   4.673  16.755  0.00  0.00    +0.000 C 
ATOM     14  F   UNL     1       5.764   3.440  16.160  0.00  0.00    +0.000 F 
ATOM     15  F   UNL     1       5.078   5.483  15.866  0.00  0.00    +0.000 F 
BRANCH  13  16
ATOM     16  C   UNL     1       7.134   5.145  17.021  0.00  0.00    +0.000 C 
ATOM     17  O   UNL     1       7.498   6.315  17.089  0.00  0.00    +0.000 OA
BRANCH  16  18
ATOM     18  O   UNL     1       8.021   4.117  17.138  0.00  0.00    +0.000 OA
ATOM     19  H   UNL     1       8.600   4.215  17.929  0.00  0.00    +0.000 HD
ENDBRANCH  16  18
ENDBRANCH  13  16
ENDBRANCH   1  13
TORSDOF 6
ENDMDL
MODEL 7
REMARK VINA RESULT:      -6.4      1.332      2.808
REMARK  Name = 
REMARK  6 active torsions:
REMARK  status: ('A' for Active; 'I' for Inactive)
REMARK    1  A    between atoms: C_2  and  C_4
REMARK    2  A    between atoms: C_4  and  C_7
REMARK    3  A    between atoms: C_7  and  C_10
REMARK    4  A    between atoms: C_10  and  C_13
REMARK    5  A    between atoms: C_13  and  C_16
REMARK    6  A    between atoms: C_16  and  O_18
REMARK                            x       y       z     vdW  Elec       q    Type
REMARK                         _______ _______ _______ _____ _____    ______ ____
ROOT
ATOM      1  C   UNL     1       3.759   4.691  17.535  0.00  0.00    +0.000 C 
ATOM      2  F   UNL     1       2.692   5.529  17.680  0.00  0.00    +0.000 F 
ATOM      3  F   UNL     1       3.323   3.686  16.733  0.00  0.00    +0.000 F 
ENDROOT
BRANCH   1   4
ATOM      4  C   UNL     1       4.916   5.453  16.914  0.00  0.00    +0.000 C 
ATOM      5  F   UNL     1       5.731   5.985  17.864  0.00  0.00    +0.000 F 
ATOM      6  F   UNL     1       4.418   6.543  16.242  0.00  0.00    +0.000 F 
BRANCH   4   7
ATOM      7  C   UNL     1       5.686   4.617  15.928  0.00  0.00    +0.000 C 
ATOM      8  F   UNL     1       5.200   4.793  14.656  0.00  0.00    +0.000 F 
ATOM      9  F   UNL     1       5.527   3.282  16.178  0.00  0.00    +0.000 F 
BRANCH   7  11
ATOM     10  O   UNL     1       7.608   5.574  14.856  0.00  0.00    +0.000 OA
ATOM     11  C   UNL     1       7.186   4.923  15.844  0.00  0.00    +0.000 C 
ATOM     12  O   UNL     1       7.919   4.329  16.710  0.00  0.00    +0.000 OA
ENDBRANCH   7  11
ENDBRANCH   4   7
ENDBRANCH   1   4
BRANCH   1  13
ATOM     13  C   UNL     1       4.173   4.118  18.876  0.00  0.00    +0.000 C 
ATOM     14  F   UNL     1       5.517   3.853  18.897  0.00  0.00    +0.000 F 
ATOM     15  F   UNL     1       3.957   5.001  19.887  0.00  0.00    +0.000 F 
BRANCH  13  16
ATOM     16  C   UNL     1       3.418   2.817  19.103  0.00  0.00    +0.000 C 
ATOM     17  O   UNL     1       2.253   2.722  19.476  0.00  0.00    +0.000 OA
BRANCH  16  18
ATOM     18  O   UNL     1       4.188   1.713  18.893  0.00  0.00    +0.000 OA
ATOM     19  H   UNL     1       4.559   1.687  17.980  0.00  0.00    +0.000 HD
ENDBRANCH  16  18
ENDBRANCH  13  16
ENDBRANCH   1  13
TORSDOF 6
ENDMDL
MODEL 8
REMARK VINA RESULT:      -6.4      0.988      4.928
REMARK  Name = 
REMARK  6 active torsions:
REMARK  status: ('A' for Active; 'I' for Inactive)
REMARK    1  A    between atoms: C_2  and  C_4
REMARK    2  A    between atoms: C_4  and  C_7
REMARK    3  A    between atoms: C_7  and  C_10
REMARK    4  A    between atoms: C_10  and  C_13
REMARK    5  A    between atoms: C_13  and  C_16
REMARK    6  A    between atoms: C_16  and  O_18
REMARK                            x       y       z     vdW  Elec       q    Type
REMARK                         _______ _______ _______ _____ _____    ______ ____
ROOT
ATOM      1  C   UNL     1       4.786   5.022  17.344  0.00  0.00    +0.000 C 
ATOM      2  F   UNL     1       4.187   6.219  17.079  0.00  0.00    +0.000 F 
ATOM      3  F   UNL     1       5.533   5.232  18.459  0.00  0.00    +0.000 F 
ENDROOT
BRANCH   1   4
ATOM      4  C   UNL     1       3.720   3.964  17.563  0.00  0.00    +0.000 C 
ATOM      5  F   UNL     1       4.245   2.828  18.096  0.00  0.00    +0.000 F 
ATOM      6  F   UNL     1       3.227   3.574  16.342  0.00  0.00    +0.000 F 
BRANCH   4   7
ATOM      7  C   UNL     1       2.567   4.478  18.382  0.00  0.00    +0.000 C 
ATOM      8  F   UNL     1       1.733   5.255  17.617  0.00  0.00    +0.000 F 
ATOM      9  F   UNL     1       2.996   5.309  19.380  0.00  0.00    +0.000 F 
BRANCH   7  11
ATOM     10  O   UNL     1       0.836   2.819  18.261  0.00  0.00    +0.000 OA
ATOM     11  C   UNL     1       1.672   3.397  19.000  0.00  0.00    +0.000 C 
ATOM     12  O   UNL     1       1.731   3.295  20.275  0.00  0.00    +0.000 OA
ENDBRANCH   7  11
ENDBRANCH   4   7
ENDBRANCH   1   4
BRANCH   1  13
ATOM     13  C   UNL     1       5.696   4.616  16.202  0.00  0.00    +0.000 C 
ATOM     14  F   UNL     1       5.677   3.258  16.025  0.00  0.00    +0.000 F 
ATOM     15  F   UNL     1       5.284   5.146  15.019  0.00  0.00    +0.000 F 
BRANCH  13  16
ATOM     16  C   UNL     1       7.118   5.042  16.536  0.00  0.00    +0.000 C 
ATOM     17  O   UNL     1       7.972   4.335  17.062  0.00  0.00    +0.000 OA
BRANCH  16  18
ATOM     18  O   UNL     1       7.365   6.347  16.233  0.00  0.00    +0.000 OA
ATOM     19  H   UNL     1       6.573   6.797  15.857  0.00  0.00    +0.000 HD
ENDBRANCH  16  18
ENDBRANCH  13  16
ENDBRANCH   1  13
TORSDOF 6
ENDMDL
MODEL 9
REMARK VINA RESULT:      -6.4      1.013      2.520
REMARK  Name = 
REMARK  6 active torsions:
REMARK  status: ('A' for Active; 'I' for Inactive)
REMARK    1  A    between atoms: C_2  and  C_4
REMARK    2  A    between atoms: C_4  and  C_7
REMARK    3  A    between atoms: C_7  and  C_10
REMARK    4  A    between atoms: C_10  and  C_13
REMARK    5  A    between atoms: C_13  and  C_16
REMARK    6  A    between atoms: C_16  and  O_18
REMARK                            x       y       z     vdW  Elec       q    Type
REMARK                         _______ _______ _______ _____ _____    ______ ____
ROOT
ATOM      1  C   UNL     1       3.446   4.193  17.807  0.00  0.00    +0.000 C 
ATOM      2  F   UNL     1       2.710   5.329  17.644  0.00  0.00    +0.000 F 
ATOM      3  F   UNL     1       3.196   3.439  16.705  0.00  0.00    +0.000 F 
ENDROOT
BRANCH   1   4
ATOM      4  C   UNL     1       4.914   4.558  17.927  0.00  0.00    +0.000 C 
ATOM      5  F   UNL     1       5.568   3.729  18.784  0.00  0.00    +0.000 F 
ATOM      6  F   UNL     1       5.015   5.799  18.507  0.00  0.00    +0.000 F 
BRANCH   4   7
ATOM      7  C   UNL     1       5.597   4.619  16.588  0.00  0.00    +0.000 C 
ATOM      8  F   UNL     1       4.909   5.437  15.726  0.00  0.00    +0.000 F 
ATOM      9  F   UNL     1       5.602   3.397  15.975  0.00  0.00    +0.000 F 
BRANCH   7  11
ATOM     10  O   UNL     1       7.951   4.396  17.003  0.00  0.00    +0.000 OA
ATOM     11  C   UNL     1       7.032   5.158  16.610  0.00  0.00    +0.000 C 
ATOM     12  O   UNL     1       7.153   6.414  16.391  0.00  0.00    +0.000 OA
ENDBRANCH   7  11
ENDBRANCH   4   7
ENDBRANCH   1   4
BRANCH   1  13
ATOM     13  C   UNL     1       2.995   3.437  19.042  0.00  0.00    +0.000 C 
ATOM     14  F   UNL     1       3.486   2.158  19.035  0.00  0.00    +0.000 F 
ATOM     15  F   UNL     1       3.472   4.007  20.181  0.00  0.00    +0.000 F 
BRANCH  13  16
ATOM     16  C   UNL     1       1.475   3.375  19.047  0.00  0.00    +0.000 C 
ATOM     17  O   UNL     1       0.782   2.744  18.255  0.00  0.00    +0.000 OA
BRANCH  16  18
ATOM     18  O   UNL     1       0.916   4.148  20.019  0.00  0.00    +0.000 OA
ATOM     19  H   UNL     1       0.257   4.784  19.654  0.00  0.00    +0.000 HD
ENDBRANCH  16  18
ENDBRANCH  13  16
ENDBRANCH   1  13
TORSDOF 6
ENDMDL
