MODEL 1
REMARK VINA RESULT:      -9.4      0.000      0.000
REMARK  Name = 
REMARK  7 active torsions:
REMARK  status: ('A' for Active; 'I' for Inactive)
REMARK    1  A    between atoms: C_1  and  C_2
REMARK    2  A    between atoms: C_2  and  C_3
REMARK    3  A    between atoms: C_3  and  C_4
REMARK    4  A    between atoms: C_4  and  N_5
REMARK    5  A    between atoms: C_14  and  C_15
REMARK    6  A    between atoms: C_18  and  C_19
REMARK    7  A    between atoms: N_23  and  C_24
REMARK                            x       y       z     vdW  Elec       q    Type
REMARK                         _______ _______ _______ _____ _____    ______ ____
ROOT
ATOM      1  N   UNL     1       6.364   5.986  17.652  0.00  0.00    +0.000 N 
ATOM      2  C   UNL     1       6.947   4.720  17.699  0.00  0.00    +0.000 A 
ATOM      3  O   UNL     1       8.079   4.465  17.291  0.00  0.00    +0.000 OA
ATOM      4  N   UNL     1       6.190   3.702  18.236  0.00  0.00    +0.000 N 
ATOM      5  C   UNL     1       4.912   3.783  18.740  0.00  0.00    +0.000 A 
ATOM      6  O   UNL     1       4.359   2.795  19.206  0.00  0.00    +0.000 OA
ATOM      7  C   UNL     1       4.361   5.101  18.651  0.00  0.00    +0.000 A 
ATOM      8  C   UNL     1       5.076   6.140  18.132  0.00  0.00    +0.000 A 
ATOM      9  N   UNL     1       4.364   7.296  18.152  0.00  0.00    +0.000 NA
ATOM     10  C   UNL     1       3.194   7.004  18.711  0.00  0.00    +0.000 A 
ATOM     11  N   UNL     1       3.136   5.631  18.981  0.00  0.00    +0.000 N 
ATOM     12  H   UNL     1       6.623   2.793  18.259  0.00  0.00    +0.000 HD
ENDROOT
BRANCH  10  13
ATOM     13  C   UNL     1       2.113   7.998  18.890  0.00  0.00    +0.000 A 
ATOM     14  C   UNL     1       1.613   8.229  20.181  0.00  0.00    +0.000 A 
ATOM     15  C   UNL     1       0.672   9.239  20.423  0.00  0.00    +0.000 A 
ATOM     16  C   UNL     1       0.221  10.042  19.375  0.00  0.00    +0.000 A 
ATOM     17  C   UNL     1       0.660   9.784  18.077  0.00  0.00    +0.000 A 
ATOM     18  C   UNL     1       1.562   8.740  17.836  0.00  0.00    +0.000 A 
BRANCH  16  19
ATOM     19  C   UNL     1      -0.693  11.119  19.624  0.00  0.00    +0.000 C 
ATOM     20  N   UNL     1      -1.443  11.982  19.822  0.00  0.00    +0.000 NA
ENDBRANCH  16  19
ENDBRANCH  10  13
BRANCH  11  21
ATOM     21  C   UNL     1       1.992   4.897  19.478  0.00  0.00    +0.000 C 
ATOM     22  C   UNL     1       1.491   3.743  18.614  0.00  0.00    +0.000 C 
ATOM     23  C   UNL     1       0.635   2.927  19.572  0.00  0.00    +0.000 C 
ATOM     24  C   UNL     1       1.183   3.173  20.978  0.00  0.00    +0.000 C 
ATOM     25  C   UNL     1       2.178   4.322  20.881  0.00  0.00    +0.000 C 
ENDBRANCH  11  21
BRANCH   1  26
ATOM     26  C   UNL     1       7.097   7.101  17.064  0.00  0.00    +0.000 C 
BRANCH  26  27
ATOM     27  C   UNL     1       8.028   7.787  18.063  0.00  0.00    +0.000 C 
BRANCH  27  29
ATOM     28  C   UNL     1       8.981   9.976  18.841  0.00  0.00    +0.000 C 
ATOM     29  C   UNL     1       8.134   9.285  17.785  0.00  0.00    +0.000 C 
ENDBRANCH  27  29
ENDBRANCH  26  27
ENDBRANCH   1  26
TORSDOF 6
ENDMDL
MODEL 2
REMARK VINA RESULT:      -7.8      1.356      1.748
REMARK  Name = 
REMARK  7 active torsions:
REMARK  status: ('A' for Active; 'I' for Inactive)
REMARK    1  A    between atoms: C_1  and  C_2
REMARK    2  A    between atoms: C_2  and  C_3
REMARK    3  A    between atoms: C_3  and  C_4
REMARK    4  A    between atoms: C_4  and  N_5
REMARK    5  A    between atoms: C_14  and  C_15
REMARK    6  A    between atoms: C_18  and  C_19
REMARK    7  A    between atoms: N_23  and  C_24
REMARK                            x       y       z     vdW  Elec       q    Type
REMARK                         _______ _______ _______ _____ _____    ______ ____
ROOT
ATOM      1  N   UNL     1       5.293   5.317  16.501  0.00  0.00    +0.000 N 
ATOM      2  C   UNL     1       5.650   3.994  16.240  0.00  0.00    +0.000 A 
ATOM      3  O   UNL     1       6.504   3.657  15.421  0.00  0.00    +0.000 OA
ATOM      4  N   UNL     1       4.993   3.015  16.953  0.00  0.00    +0.000 N 
ATOM      5  C   UNL     1       4.014   3.186  17.904  0.00  0.00    +0.000 A 
ATOM      6  O   UNL     1       3.522   2.222  18.477  0.00  0.00    +0.000 OA
ATOM      7  C   UNL     1       3.678   4.561  18.118  0.00  0.00    +0.000 A 
ATOM      8  C   UNL     1       4.306   5.562  17.439  0.00  0.00    +0.000 A 
ATOM      9  N   UNL     1       3.838   6.784  17.803  0.00  0.00    +0.000 NA
ATOM     10  C   UNL     1       2.920   6.567  18.739  0.00  0.00    +0.000 A 
ATOM     11  N   UNL     1       2.753   5.189  18.919  0.00  0.00    +0.000 N 
ATOM     12  H   UNL     1       5.260   2.066  16.750  0.00  0.00    +0.000 HD
ENDROOT
BRANCH  10  13
ATOM     13  C   UNL     1       2.145   7.653  19.378  0.00  0.00    +0.000 A 
ATOM     14  C   UNL     1       1.760   8.758  18.601  0.00  0.00    +0.000 A 
ATOM     15  C   UNL     1       0.929   9.757  19.126  0.00  0.00    +0.000 A 
ATOM     16  C   UNL     1       0.461   9.664  20.437  0.00  0.00    +0.000 A 
ATOM     17  C   UNL     1       0.886   8.606  21.241  0.00  0.00    +0.000 A 
ATOM     18  C   UNL     1       1.758   7.639  20.725  0.00  0.00    +0.000 A 
BRANCH  16  19
ATOM     19  C   UNL     1      -0.440  10.648  20.961  0.00  0.00    +0.000 C 
ATOM     20  N   UNL     1      -1.162  11.446  21.396  0.00  0.00    +0.000 NA
ENDBRANCH  16  19
ENDBRANCH  10  13
BRANCH  11  21
ATOM     21  C   UNL     1       1.769   4.540  19.759  0.00  0.00    +0.000 C 
ATOM     22  C   UNL     1       0.940   3.434  19.113  0.00  0.00    +0.000 C 
ATOM     23  C   UNL     1       0.366   2.679  20.304  0.00  0.00    +0.000 C 
ATOM     24  C   UNL     1       1.339   2.873  21.465  0.00  0.00    +0.000 C 
ATOM     25  C   UNL     1       2.337   3.944  21.045  0.00  0.00    +0.000 C 
ENDBRANCH  11  21
BRANCH   1  26
ATOM     26  C   UNL     1       5.925   6.399  15.757  0.00  0.00    +0.000 C 
BRANCH  26  27
ATOM     27  C   UNL     1       7.359   6.669  16.212  0.00  0.00    +0.000 C 
BRANCH  27  29
ATOM     28  C   UNL     1       7.870   6.472  18.663  0.00  0.00    +0.000 C 
ATOM     29  C   UNL     1       7.388   7.395  17.557  0.00  0.00    +0.000 C 
ENDBRANCH  27  29
ENDBRANCH  26  27
ENDBRANCH   1  26
TORSDOF 6
ENDMDL
MODEL 3
REMARK VINA RESULT:      -7.7      1.115      1.275
REMARK  Name = 
REMARK  7 active torsions:
REMARK  status: ('A' for Active; 'I' for Inactive)
REMARK    1  A    between atoms: C_1  and  C_2
REMARK    2  A    between atoms: C_2  and  C_3
REMARK    3  A    between atoms: C_3  and  C_4
REMARK    4  A    between atoms: C_4  and  N_5
REMARK    5  A    between atoms: C_14  and  C_15
REMARK    6  A    between atoms: C_18  and  C_19
REMARK    7  A    between atoms: N_23  and  C_24
REMARK                            x       y       z     vdW  Elec       q    Type
REMARK                         _______ _______ _______ _____ _____    ______ ____
ROOT
ATOM      1  N   UNL     1       6.003   5.840  16.795  0.00  0.00    +0.000 N 
ATOM      2  C   UNL     1       6.468   4.570  16.457  0.00  0.00    +0.000 A 
ATOM      3  O   UNL     1       7.509   4.357  15.838  0.00  0.00    +0.000 OA
ATOM      4  N   UNL     1       5.697   3.496  16.848  0.00  0.00    +0.000 N 
ATOM      5  C   UNL     1       4.509   3.525  17.541  0.00  0.00    +0.000 A 
ATOM      6  O   UNL     1       3.933   2.487  17.840  0.00  0.00    +0.000 OA
ATOM      7  C   UNL     1       4.075   4.854  17.846  0.00  0.00    +0.000 A 
ATOM      8  C   UNL     1       4.807   5.945  17.484  0.00  0.00    +0.000 A 
ATOM      9  N   UNL     1       4.213   7.100  17.879  0.00  0.00    +0.000 NA
ATOM     10  C   UNL     1       3.104   6.748  18.521  0.00  0.00    +0.000 A 
ATOM     11  N   UNL     1       2.956   5.357  18.468  0.00  0.00    +0.000 N 
ATOM     12  H   UNL     1       6.045   2.586  16.593  0.00  0.00    +0.000 HD
ENDROOT
BRANCH  10  13
ATOM     13  C   UNL     1       2.152   7.729  19.087  0.00  0.00    +0.000 A 
ATOM     14  C   UNL     1       1.769   7.604  20.431  0.00  0.00    +0.000 A 
ATOM     15  C   UNL     1       0.961   8.569  21.047  0.00  0.00    +0.000 A 
ATOM     16  C   UNL     1       0.528   9.684  20.328  0.00  0.00    +0.000 A 
ATOM     17  C   UNL     1       0.848   9.791  18.975  0.00  0.00    +0.000 A 
ATOM     18  C   UNL     1       1.613   8.795  18.354  0.00  0.00    +0.000 A 
BRANCH  16  19
ATOM     19  C   UNL     1      -0.245  10.708  20.967  0.00  0.00    +0.000 C 
ATOM     20  N   UNL     1      -0.882  11.533  21.478  0.00  0.00    +0.000 NA
ENDBRANCH  16  19
ENDBRANCH  10  13
BRANCH  11  21
ATOM     21  C   UNL     1       1.824   4.591  18.944  0.00  0.00    +0.000 C 
ATOM     22  C   UNL     1       1.280   3.519  18.005  0.00  0.00    +0.000 C 
ATOM     23  C   UNL     1       0.453   2.630  18.922  0.00  0.00    +0.000 C 
ATOM     24  C   UNL     1       1.055   2.750  20.321  0.00  0.00    +0.000 C 
ATOM     25  C   UNL     1       2.057   3.896  20.285  0.00  0.00    +0.000 C 
ENDBRANCH  11  21
BRANCH   1  26
ATOM     26  C   UNL     1       6.751   7.021  16.382  0.00  0.00    +0.000 C 
BRANCH  26  27
ATOM     27  C   UNL     1       7.113   7.930  17.556  0.00  0.00    +0.000 C 
BRANCH  27  29
ATOM     28  C   UNL     1       7.943   6.258  19.235  0.00  0.00    +0.000 C 
ATOM     29  C   UNL     1       8.330   7.401  18.314  0.00  0.00    +0.000 C 
ENDBRANCH  27  29
ENDBRANCH  26  27
ENDBRANCH   1  26
TORSDOF 6
ENDMDL
MODEL 4
REMARK VINA RESULT:      -7.4      1.097      1.895
REMARK  Name = 
REMARK  7 active torsions:
REMARK  status: ('A' for Active; 'I' for Inactive)
REMARK    1  A    between atoms: C_1  and  C_2
REMARK    2  A    between atoms: C_2  and  C_3
REMARK    3  A    between atoms: C_3  and  C_4
REMARK    4  A    between atoms: C_4  and  N_5
REMARK    5  A    between atoms: C_14  and  C_15
REMARK    6  A    between atoms: C_18  and  C_19
REMARK    7  A    between atoms: N_23  and  C_24
REMARK                            x       y       z     vdW  Elec       q    Type
REMARK                         _______ _______ _______ _____ _____    ______ ____
ROOT
ATOM      1  N   UNL     1       6.291   5.713  17.697  0.00  0.00    +0.000 N 
ATOM      2  C   UNL     1       6.881   4.463  17.880  0.00  0.00    +0.000 A 
ATOM      3  O   UNL     1       7.986   4.148  17.439  0.00  0.00    +0.000 OA
ATOM      4  N   UNL     1       6.166   3.532  18.602  0.00  0.00    +0.000 N 
ATOM      5  C   UNL     1       4.924   3.688  19.171  0.00  0.00    +0.000 A 
ATOM      6  O   UNL     1       4.406   2.776  19.805  0.00  0.00    +0.000 OA
ATOM      7  C   UNL     1       4.362   4.983  18.937  0.00  0.00    +0.000 A 
ATOM      8  C   UNL     1       5.036   5.936  18.234  0.00  0.00    +0.000 A 
ATOM      9  N   UNL     1       4.321   7.087  18.140  0.00  0.00    +0.000 NA
ATOM     10  C   UNL     1       3.192   6.880  18.809  0.00  0.00    +0.000 A 
ATOM     11  N   UNL     1       3.158   5.558  19.269  0.00  0.00    +0.000 N 
ATOM     12  H   UNL     1       6.605   2.634  18.722  0.00  0.00    +0.000 HD
ENDROOT
BRANCH  10  13
ATOM     13  C   UNL     1       2.120   7.894  18.919  0.00  0.00    +0.000 A 
ATOM     14  C   UNL     1       1.588   8.183  20.185  0.00  0.00    +0.000 A 
ATOM     15  C   UNL     1       0.654   9.213  20.361  0.00  0.00    +0.000 A 
ATOM     16  C   UNL     1       0.243   9.980  19.270  0.00  0.00    +0.000 A 
ATOM     17  C   UNL     1       0.714   9.664  17.996  0.00  0.00    +0.000 A 
ATOM     18  C   UNL     1       1.607   8.600  17.822  0.00  0.00    +0.000 A 
BRANCH  16  19
ATOM     19  C   UNL     1      -0.663  11.077  19.451  0.00  0.00    +0.000 C 
ATOM     20  N   UNL     1      -1.405  11.958  19.590  0.00  0.00    +0.000 NA
ENDBRANCH  16  19
ENDBRANCH  10  13
BRANCH  11  21
ATOM     21  C   UNL     1       2.052   4.905  19.937  0.00  0.00    +0.000 C 
ATOM     22  C   UNL     1       1.341   3.800  19.161  0.00  0.00    +0.000 C 
ATOM     23  C   UNL     1       0.584   3.039  20.241  0.00  0.00    +0.000 C 
ATOM     24  C   UNL     1       1.357   3.229  21.545  0.00  0.00    +0.000 C 
ATOM     25  C   UNL     1       2.407   4.303  21.295  0.00  0.00    +0.000 C 
ENDBRANCH  11  21
BRANCH   1  26
ATOM     26  C   UNL     1       6.978   6.732  16.913  0.00  0.00    +0.000 C 
BRANCH  26  27
ATOM     27  C   UNL     1       7.001   6.411  15.419  0.00  0.00    +0.000 C 
BRANCH  27  29
ATOM     28  C   UNL     1       6.095   4.366  14.277  0.00  0.00    +0.000 C 
ATOM     29  C   UNL     1       5.741   5.659  14.993  0.00  0.00    +0.000 C 
ENDBRANCH  27  29
ENDBRANCH  26  27
ENDBRANCH   1  26
TORSDOF 6
ENDMDL
MODEL 5
REMARK VINA RESULT:      -7.1      4.315      7.048
REMARK  Name = 
REMARK  7 active torsions:
REMARK  status: ('A' for Active; 'I' for Inactive)
REMARK    1  A    between atoms: C_1  and  C_2
REMARK    2  A    between atoms: C_2  and  C_3
REMARK    3  A    between atoms: C_3  and  C_4
REMARK    4  A    between atoms: C_4  and  N_5
REMARK    5  A    between atoms: C_14  and  C_15
REMARK    6  A    between atoms: C_18  and  C_19
REMARK    7  A    between atoms: N_23  and  C_24
REMARK                            x       y       z     vdW  Elec       q    Type
REMARK                         _______ _______ _______ _____ _____    ______ ____
ROOT
ATOM      1  N   UNL     1       5.900   3.670  12.472  0.00  0.00    +0.000 N 
ATOM      2  C   UNL     1       6.964   4.089  11.674  0.00  0.00    +0.000 A 
ATOM      3  O   UNL     1       7.089   3.805  10.483  0.00  0.00    +0.000 OA
ATOM      4  N   UNL     1       7.930   4.867  12.275  0.00  0.00    +0.000 N 
ATOM      5  C   UNL     1       7.973   5.287  13.584  0.00  0.00    +0.000 A 
ATOM      6  O   UNL     1       8.888   5.994  13.985  0.00  0.00    +0.000 OA
ATOM      7  C   UNL     1       6.865   4.814  14.357  0.00  0.00    +0.000 A 
ATOM      8  C   UNL     1       5.884   4.047  13.803  0.00  0.00    +0.000 A 
ATOM      9  N   UNL     1       4.931   3.719  14.714  0.00  0.00    +0.000 NA
ATOM     10  C   UNL     1       5.290   4.300  15.854  0.00  0.00    +0.000 A 
ATOM     11  N   UNL     1       6.521   4.943  15.683  0.00  0.00    +0.000 N 
ATOM     12  H   UNL     1       8.693   5.158  11.686  0.00  0.00    +0.000 HD
ENDROOT
BRANCH  10  13
ATOM     13  C   UNL     1       4.520   4.159  17.109  0.00  0.00    +0.000 A 
ATOM     14  C   UNL     1       4.372   2.882  17.673  0.00  0.00    +0.000 A 
ATOM     15  C   UNL     1       3.752   2.707  18.917  0.00  0.00    +0.000 A 
ATOM     16  C   UNL     1       3.277   3.811  19.626  0.00  0.00    +0.000 A 
ATOM     17  C   UNL     1       3.361   5.079  19.051  0.00  0.00    +0.000 A 
ATOM     18  C   UNL     1       3.935   5.239  17.784  0.00  0.00    +0.000 A 
BRANCH  16  19
ATOM     19  C   UNL     1       2.700   3.648  20.928  0.00  0.00    +0.000 C 
ATOM     20  N   UNL     1       2.221   3.518  21.977  0.00  0.00    +0.000 NA
ENDBRANCH  16  19
ENDBRANCH  10  13
BRANCH  11  21
ATOM     21  C   UNL     1       7.308   5.591  16.711  0.00  0.00    +0.000 C 
ATOM     22  C   UNL     1       6.834   6.966  17.170  0.00  0.00    +0.000 C 
ATOM     23  C   UNL     1       7.545   7.160  18.502  0.00  0.00    +0.000 C 
ATOM     24  C   UNL     1       7.801   5.769  19.078  0.00  0.00    +0.000 C 
ATOM     25  C   UNL     1       7.484   4.761  17.981  0.00  0.00    +0.000 C 
ENDBRANCH  11  21
BRANCH   1  26
ATOM     26  C   UNL     1       4.863   2.816  11.908  0.00  0.00    +0.000 C 
BRANCH  26  27
ATOM     27  C   UNL     1       3.641   3.605  11.437  0.00  0.00    +0.000 C 
BRANCH  27  29
ATOM     28  C   UNL     1       2.682   4.521   9.305  0.00  0.00    +0.000 C 
ATOM     29  C   UNL     1       3.326   3.317   9.970  0.00  0.00    +0.000 C 
ENDBRANCH  27  29
ENDBRANCH  26  27
ENDBRANCH   1  26
TORSDOF 6
ENDMDL
MODEL 6
REMARK VINA RESULT:      -6.7      4.025      6.871
REMARK  Name = 
REMARK  7 active torsions:
REMARK  status: ('A' for Active; 'I' for Inactive)
REMARK    1  A    between atoms: C_1  and  C_2
REMARK    2  A    between atoms: C_2  and  C_3
REMARK    3  A    between atoms: C_3  and  C_4
REMARK    4  A    between atoms: C_4  and  N_5
REMARK    5  A    between atoms: C_14  and  C_15
REMARK    6  A    between atoms: C_18  and  C_19
REMARK    7  A    between atoms: N_23  and  C_24
REMARK                            x       y       z     vdW  Elec       q    Type
REMARK                         _______ _______ _______ _____ _____    ______ ____
ROOT
ATOM      1  N   UNL     1       5.862   3.791  13.040  0.00  0.00    +0.000 N 
ATOM      2  C   UNL     1       6.963   4.376  12.415  0.00  0.00    +0.000 A 
ATOM      3  O   UNL     1       7.273   4.184  11.240  0.00  0.00    +0.000 OA
ATOM      4  N   UNL     1       7.744   5.216  13.178  0.00  0.00    +0.000 N 
ATOM      5  C   UNL     1       7.567   5.554  14.500  0.00  0.00    +0.000 A 
ATOM      6  O   UNL     1       8.332   6.332  15.055  0.00  0.00    +0.000 OA
ATOM      7  C   UNL     1       6.432   4.913  15.092  0.00  0.00    +0.000 A 
ATOM      8  C   UNL     1       5.629   4.078  14.373  0.00  0.00    +0.000 A 
ATOM      9  N   UNL     1       4.613   3.589  15.129  0.00  0.00    +0.000 NA
ATOM     10  C   UNL     1       4.750   4.132  16.334  0.00  0.00    +0.000 A 
ATOM     11  N   UNL     1       5.908   4.918  16.363  0.00  0.00    +0.000 N 
ATOM     12  H   UNL     1       8.536   5.627  12.713  0.00  0.00    +0.000 HD
ENDROOT
BRANCH  10  13
ATOM     13  C   UNL     1       3.847   3.826  17.466  0.00  0.00    +0.000 A 
ATOM     14  C   UNL     1       3.769   2.504  17.931  0.00  0.00    +0.000 A 
ATOM     15  C   UNL     1       3.019   2.181  19.070  0.00  0.00    +0.000 A 
ATOM     16  C   UNL     1       2.340   3.179  19.769  0.00  0.00    +0.000 A 
ATOM     17  C   UNL     1       2.356   4.486  19.283  0.00  0.00    +0.000 A 
ATOM     18  C   UNL     1       3.066   4.792  18.115  0.00  0.00    +0.000 A 
BRANCH  16  19
ATOM     19  C   UNL     1       1.623   2.868  20.971  0.00  0.00    +0.000 C 
ATOM     20  N   UNL     1       1.050   2.606  21.946  0.00  0.00    +0.000 NA
ENDBRANCH  16  19
ENDBRANCH  10  13
BRANCH  11  21
ATOM     21  C   UNL     1       6.472   5.582  17.519  0.00  0.00    +0.000 C 
ATOM     22  C   UNL     1       7.712   4.943  18.137  0.00  0.00    +0.000 C 
ATOM     23  C   UNL     1       8.302   6.061  18.984  0.00  0.00    +0.000 C 
ATOM     24  C   UNL     1       7.873   7.380  18.343  0.00  0.00    +0.000 C 
ATOM     25  C   UNL     1       6.827   7.049  17.288  0.00  0.00    +0.000 C 
ENDBRANCH  11  21
BRANCH   1  26
ATOM     26  C   UNL     1       5.015   2.864  12.300  0.00  0.00    +0.000 C 
BRANCH  26  27
ATOM     27  C   UNL     1       3.759   3.532  11.740  0.00  0.00    +0.000 C 
BRANCH  27  29
ATOM     28  C   UNL     1       2.911   4.281   9.499  0.00  0.00    +0.000 C 
ATOM     29  C   UNL     1       3.520   3.133  10.285  0.00  0.00    +0.000 C 
ENDBRANCH  27  29
ENDBRANCH  26  27
ENDBRANCH   1  26
TORSDOF 6
ENDMDL
MODEL 7
REMARK VINA RESULT:      -6.4      7.011     10.890
REMARK  Name = 
REMARK  7 active torsions:
REMARK  status: ('A' for Active; 'I' for Inactive)
REMARK    1  A    between atoms: C_1  and  C_2
REMARK    2  A    between atoms: C_2  and  C_3
REMARK    3  A    between atoms: C_3  and  C_4
REMARK    4  A    between atoms: C_4  and  N_5
REMARK    5  A    between atoms: C_14  and  C_15
REMARK    6  A    between atoms: C_18  and  C_19
REMARK    7  A    between atoms: N_23  and  C_24
REMARK                            x       y       z     vdW  Elec       q    Type
REMARK                         _______ _______ _______ _____ _____    ______ ____
ROOT
ATOM      1  N   UNL     1      -3.380  11.491  17.517  0.00  0.00    +0.000 N 
ATOM      2  C   UNL     1      -4.396  11.150  16.625  0.00  0.00    +0.000 A 
ATOM      3  O   UNL     1      -4.205  10.650  15.517  0.00  0.00    +0.000 OA
ATOM      4  N   UNL     1      -5.691  11.398  17.025  0.00  0.00    +0.000 N 
ATOM      5  C   UNL     1      -6.109  11.949  18.213  0.00  0.00    +0.000 A 
ATOM      6  O   UNL     1      -7.302  12.100  18.448  0.00  0.00    +0.000 OA
ATOM      7  C   UNL     1      -5.024  12.293  19.081  0.00  0.00    +0.000 A 
ATOM      8  C   UNL     1      -3.728  12.060  18.729  0.00  0.00    +0.000 A 
ATOM      9  N   UNL     1      -2.867  12.456  19.701  0.00  0.00    +0.000 NA
ATOM     10  C   UNL     1      -3.616  12.923  20.695  0.00  0.00    +0.000 A 
ATOM     11  N   UNL     1      -4.963  12.891  20.318  0.00  0.00    +0.000 N 
ATOM     12  H   UNL     1      -6.412  11.150  16.367  0.00  0.00    +0.000 HD
ENDROOT
BRANCH  10  13
ATOM     13  C   UNL     1      -3.047  13.484  21.940  0.00  0.00    +0.000 A 
ATOM     14  C   UNL     1      -2.288  14.663  21.867  0.00  0.00    +0.000 A 
ATOM     15  C   UNL     1      -1.824  15.298  23.027  0.00  0.00    +0.000 A 
ATOM     16  C   UNL     1      -2.120  14.767  24.283  0.00  0.00    +0.000 A 
ATOM     17  C   UNL     1      -2.818  13.563  24.370  0.00  0.00    +0.000 A 
ATOM     18  C   UNL     1      -3.234  12.907  23.204  0.00  0.00    +0.000 A 
BRANCH  16  19
ATOM     19  C   UNL     1      -1.704  15.444  25.477  0.00  0.00    +0.000 C 
ATOM     20  N   UNL     1      -1.355  15.989  26.440  0.00  0.00    +0.000 NA
ENDBRANCH  16  19
ENDBRANCH  10  13
BRANCH  11  21
ATOM     21  C   UNL     1      -6.083  13.419  21.069  0.00  0.00    +0.000 C 
ATOM     22  C   UNL     1      -6.504  12.638  22.310  0.00  0.00    +0.000 C 
ATOM     23  C   UNL     1      -7.343  13.639  23.091  0.00  0.00    +0.000 C 
ATOM     24  C   UNL     1      -6.845  15.032  22.710  0.00  0.00    +0.000 C 
ATOM     25  C   UNL     1      -5.905  14.867  21.523  0.00  0.00    +0.000 C 
ENDBRANCH  11  21
BRANCH   1  26
ATOM     26  C   UNL     1      -1.986  11.287  17.142  0.00  0.00    +0.000 C 
BRANCH  26  27
ATOM     27  C   UNL     1      -1.427   9.960  17.654  0.00  0.00    +0.000 C 
BRANCH  27  29
ATOM     28  C   UNL     1       1.018   9.515  18.012  0.00  0.00    +0.000 C 
ATOM     29  C   UNL     1      -0.227  10.181  18.573  0.00  0.00    +0.000 C 
ENDBRANCH  27  29
ENDBRANCH  26  27
ENDBRANCH   1  26
TORSDOF 6
ENDMDL
