MODEL 1
REMARK VINA RESULT:      -8.0      0.000      0.000
REMARK  Name = 
REMARK  10 active torsions:
REMARK  status: ('A' for Active; 'I' for Inactive)
REMARK    1  A    between atoms: C_1  and  C_2
REMARK    2  A    between atoms: C_2  and  O_3
REMARK    3  A    between atoms: C_6  and  O_7
REMARK    4  A    between atoms: C_10  and  O_11
REMARK    5  A    between atoms: C_13  and  O_14
REMARK    6  A    between atoms: C_19  and  N_20
REMARK    7  A    between atoms: N_20  and  C_21
REMARK    8  A    between atoms: C_21  and  C_22
REMARK    9  A    between atoms: C_22  and  C_23
REMARK   10  A    between atoms: C_26  and  O_27
REMARK                            x       y       z     vdW  Elec       q    Type
REMARK                         _______ _______ _______ _____ _____    ______ ____
ROOT
ATOM      1  C   UNL     1       6.349   4.686  18.250  0.00  0.00    +0.000 C 
ATOM      2  C   UNL     1       5.158   4.295  17.368  0.00  0.00    +0.000 C 
ATOM      3  C   UNL     1       4.412   5.534  16.852  0.00  0.00    +0.000 C 
ATOM      4  C   UNL     1       3.552   6.217  17.890  0.00  0.00    +0.000 A 
ATOM      5  C   UNL     1       3.145   7.558  17.706  0.00  0.00    +0.000 A 
ATOM      6  C   UNL     1       2.376   8.222  18.675  0.00  0.00    +0.000 A 
ATOM      7  C   UNL     1       2.033   7.531  19.838  0.00  0.00    +0.000 A 
ATOM      8  C   UNL     1       2.423   6.198  20.029  0.00  0.00    +0.000 A 
ATOM      9  C   UNL     1       3.144   5.509  19.048  0.00  0.00    +0.000 A 
ATOM     10  C   UNL     1       3.548   4.063  19.301  0.00  0.00    +0.000 C 
ATOM     11  C   UNL     1       4.166   3.393  18.084  0.00  0.00    +0.000 C 
ATOM     12  C   UNL     1       1.246   8.180  20.893  0.00  0.00    +0.000 C 
ATOM     13  O   UNL     1       0.936   7.590  21.916  0.00  0.00    +0.000 OA
ATOM     14  C   UNL     1       0.832   9.562  20.684  0.00  0.00    +0.000 C 
ATOM     15  C   UNL     1       1.103  10.251  19.591  0.00  0.00    +0.000 C 
ATOM     16  C   UNL     1       1.919   9.636  18.478  0.00  0.00    +0.000 C 
ATOM     17  O   UNL     1       2.175  10.294  17.483  0.00  0.00    +0.000 OA
ENDROOT
BRANCH   2  18
ATOM     18  O   UNL     1       5.654   3.567  16.241  0.00  0.00    +0.000 OA
ATOM     19  H   UNL     1       5.495   2.619  16.391  0.00  0.00    +0.000 HD
ENDBRANCH   2  18
BRANCH   5  20
ATOM     20  O   UNL     1       3.516   8.244  16.584  0.00  0.00    +0.000 OA
ATOM     21  H   UNL     1       4.397   8.635  16.648  0.00  0.00    +0.000 HD
ENDBRANCH   5  20
BRANCH   8  22
ATOM     22  O   UNL     1       2.133   5.515  21.184  0.00  0.00    +0.000 OA
ATOM     23  H   UNL     1       1.382   4.896  21.029  0.00  0.00    +0.000 HD
ENDBRANCH   8  22
BRANCH  10  24
ATOM     24  O   UNL     1       2.443   3.232  19.659  0.00  0.00    +0.000 OA
ATOM     25  H   UNL     1       2.188   3.452  20.569  0.00  0.00    +0.000 HD
ENDBRANCH  10  24
BRANCH  15  26
ATOM     26  N   UNL     1       0.692  11.573  19.433  0.00  0.00    +0.000 N 
ATOM     27  H   UNL     1       1.200  12.262  19.971  0.00  0.00    +0.000 HD
BRANCH  26  28
ATOM     28  C   UNL     1      -0.427  11.923  18.577  0.00  0.00    +0.000 C 
BRANCH  28  29
ATOM     29  C   UNL     1      -1.738  11.223  18.904  0.00  0.00    +0.000 C 
BRANCH  29  30
ATOM     30  C   UNL     1      -2.467  10.831  17.628  0.00  0.00    +0.000 A 
ATOM     31  C   UNL     1      -1.939   9.892  16.715  0.00  0.00    +0.000 A 
ATOM     32  C   UNL     1      -2.617   9.586  15.531  0.00  0.00    +0.000 A 
ATOM     33  C   UNL     1      -3.816  10.215  15.249  0.00  0.00    +0.000 A 
ATOM     34  C   UNL     1      -4.357  11.146  16.137  0.00  0.00    +0.000 A 
ATOM     35  C   UNL     1      -3.679  11.453  17.318  0.00  0.00    +0.000 A 
BRANCH  33  36
ATOM     36  O   UNL     1      -4.503   9.954  14.101  0.00  0.00    +0.000 OA
ATOM     37  H   UNL     1      -5.082  10.711  13.915  0.00  0.00    +0.000 HD
ENDBRANCH  33  36
ENDBRANCH  29  30
ENDBRANCH  28  29
ENDBRANCH  26  28
ENDBRANCH  15  26
TORSDOF 9
ENDMDL
MODEL 2
REMARK VINA RESULT:      -7.8      3.519      9.075
REMARK  Name = 
REMARK  10 active torsions:
REMARK  status: ('A' for Active; 'I' for Inactive)
REMARK    1  A    between atoms: C_1  and  C_2
REMARK    2  A    between atoms: C_2  and  O_3
REMARK    3  A    between atoms: C_6  and  O_7
REMARK    4  A    between atoms: C_10  and  O_11
REMARK    5  A    between atoms: C_13  and  O_14
REMARK    6  A    between atoms: C_19  and  N_20
REMARK    7  A    between atoms: N_20  and  C_21
REMARK    8  A    between atoms: C_21  and  C_22
REMARK    9  A    between atoms: C_22  and  C_23
REMARK   10  A    between atoms: C_26  and  O_27
REMARK                            x       y       z     vdW  Elec       q    Type
REMARK                         _______ _______ _______ _____ _____    ______ ____
ROOT
ATOM      1  C   UNL     1      -2.600  14.834  23.397  0.00  0.00    +0.000 C 
ATOM      2  C   UNL     1      -3.369  13.540  23.690  0.00  0.00    +0.000 C 
ATOM      3  C   UNL     1      -2.441  12.318  23.659  0.00  0.00    +0.000 C 
ATOM      4  C   UNL     1      -2.035  11.883  22.270  0.00  0.00    +0.000 A 
ATOM      5  C   UNL     1      -0.895  11.068  22.084  0.00  0.00    +0.000 A 
ATOM      6  C   UNL     1      -0.480  10.683  20.799  0.00  0.00    +0.000 A 
ATOM      7  C   UNL     1      -1.212  11.137  19.701  0.00  0.00    +0.000 A 
ATOM      8  C   UNL     1      -2.349  11.939  19.872  0.00  0.00    +0.000 A 
ATOM      9  C   UNL     1      -2.803  12.286  21.149  0.00  0.00    +0.000 A 
ATOM     10  C   UNL     1      -4.042  13.160  21.285  0.00  0.00    +0.000 C 
ATOM     11  C   UNL     1      -4.517  13.305  22.722  0.00  0.00    +0.000 C 
ATOM     12  C   UNL     1      -0.814  10.782  18.334  0.00  0.00    +0.000 C 
ATOM     13  O   UNL     1      -1.444  11.169  17.362  0.00  0.00    +0.000 OA
ATOM     14  C   UNL     1       0.361   9.938  18.162  0.00  0.00    +0.000 C 
ATOM     15  C   UNL     1       1.071   9.457  19.166  0.00  0.00    +0.000 C 
ATOM     16  C   UNL     1       0.714   9.800  20.593  0.00  0.00    +0.000 C 
ATOM     17  O   UNL     1       1.391   9.360  21.508  0.00  0.00    +0.000 OA
ENDROOT
BRANCH   2  18
ATOM     18  O   UNL     1      -3.935  13.642  25.000  0.00  0.00    +0.000 OA
ATOM     19  H   UNL     1      -4.745  14.178  24.946  0.00  0.00    +0.000 HD
ENDBRANCH   2  18
BRANCH   5  20
ATOM     20  O   UNL     1      -0.157  10.657  23.159  0.00  0.00    +0.000 OA
ATOM     21  H   UNL     1      -0.499   9.853  23.572  0.00  0.00    +0.000 HD
ENDBRANCH   5  20
BRANCH   8  22
ATOM     22  O   UNL     1      -3.057  12.432  18.805  0.00  0.00    +0.000 OA
ATOM     23  H   UNL     1      -4.020  12.270  18.936  0.00  0.00    +0.000 HD
ENDBRANCH   8  22
BRANCH  10  24
ATOM     24  O   UNL     1      -5.168  12.643  20.575  0.00  0.00    +0.000 OA
ATOM     25  H   UNL     1      -5.545  13.366  20.047  0.00  0.00    +0.000 HD
ENDBRANCH  10  24
BRANCH  15  26
ATOM     26  N   UNL     1       2.193   8.657  18.958  0.00  0.00    +0.000 N 
ATOM     27  H   UNL     1       2.991   8.849  19.548  0.00  0.00    +0.000 HD
BRANCH  26  28
ATOM     28  C   UNL     1       2.217   7.638  17.924  0.00  0.00    +0.000 C 
BRANCH  28  29
ATOM     29  C   UNL     1       3.321   6.599  18.062  0.00  0.00    +0.000 C 
BRANCH  29  30
ATOM     30  C   UNL     1       2.728   5.213  18.258  0.00  0.00    +0.000 A 
ATOM     31  C   UNL     1       1.825   4.919  19.304  0.00  0.00    +0.000 A 
ATOM     32  C   UNL     1       1.331   3.622  19.480  0.00  0.00    +0.000 A 
ATOM     33  C   UNL     1       1.738   2.615  18.622  0.00  0.00    +0.000 A 
ATOM     34  C   UNL     1       2.629   2.882  17.583  0.00  0.00    +0.000 A 
ATOM     35  C   UNL     1       3.123   4.176  17.409  0.00  0.00    +0.000 A 
BRANCH  33  36
ATOM     36  O   UNL     1       1.289   1.336  18.767  0.00  0.00    +0.000 OA
ATOM     37  H   UNL     1       0.388   1.370  19.129  0.00  0.00    +0.000 HD
ENDBRANCH  33  36
ENDBRANCH  29  30
ENDBRANCH  28  29
ENDBRANCH  26  28
ENDBRANCH  15  26
TORSDOF 9
ENDMDL
MODEL 3
REMARK VINA RESULT:      -7.8      1.210      1.765
REMARK  Name = 
REMARK  10 active torsions:
REMARK  status: ('A' for Active; 'I' for Inactive)
REMARK    1  A    between atoms: C_1  and  C_2
REMARK    2  A    between atoms: C_2  and  O_3
REMARK    3  A    between atoms: C_6  and  O_7
REMARK    4  A    between atoms: C_10  and  O_11
REMARK    5  A    between atoms: C_13  and  O_14
REMARK    6  A    between atoms: C_19  and  N_20
REMARK    7  A    between atoms: N_20  and  C_21
REMARK    8  A    between atoms: C_21  and  C_22
REMARK    9  A    between atoms: C_22  and  C_23
REMARK   10  A    between atoms: C_26  and  O_27
REMARK                            x       y       z     vdW  Elec       q    Type
REMARK                         _______ _______ _______ _____ _____    ______ ____
ROOT
ATOM      1  C   UNL     1       7.381   4.804  16.763  0.00  0.00    +0.000 C 
ATOM      2  C   UNL     1       6.210   4.550  15.806  0.00  0.00    +0.000 C 
ATOM      3  C   UNL     1       5.228   5.730  15.797  0.00  0.00    +0.000 C 
ATOM      4  C   UNL     1       4.345   5.811  17.021  0.00  0.00    +0.000 A 
ATOM      5  C   UNL     1       3.703   7.026  17.356  0.00  0.00    +0.000 A 
ATOM      6  C   UNL     1       2.908   7.132  18.508  0.00  0.00    +0.000 A 
ATOM      7  C   UNL     1       2.776   6.012  19.330  0.00  0.00    +0.000 A 
ATOM      8  C   UNL     1       3.401   4.800  19.005  0.00  0.00    +0.000 A 
ATOM      9  C   UNL     1       4.152   4.666  17.832  0.00  0.00    +0.000 A 
ATOM     10  C   UNL     1       4.814   3.330  17.522  0.00  0.00    +0.000 C 
ATOM     11  C   UNL     1       5.442   3.281  16.139  0.00  0.00    +0.000 C 
ATOM     12  C   UNL     1       1.973   6.070  20.557  0.00  0.00    +0.000 C 
ATOM     13  O   UNL     1       1.845   5.099  21.285  0.00  0.00    +0.000 OA
ATOM     14  C   UNL     1       1.315   7.329  20.883  0.00  0.00    +0.000 C 
ATOM     15  C   UNL     1       1.382   8.409  20.126  0.00  0.00    +0.000 C 
ATOM     16  C   UNL     1       2.204   8.409  18.858  0.00  0.00    +0.000 C 
ATOM     17  O   UNL     1       2.268   9.421  18.181  0.00  0.00    +0.000 OA
ENDROOT
BRANCH   2  18
ATOM     18  O   UNL     1       6.736   4.392  14.485  0.00  0.00    +0.000 OA
ATOM     19  H   UNL     1       7.705   4.463  14.528  0.00  0.00    +0.000 HD
ENDBRANCH   2  18
BRANCH   5  20
ATOM     20  O   UNL     1       3.866   8.132  16.570  0.00  0.00    +0.000 OA
ATOM     21  H   UNL     1       3.593   8.952  17.003  0.00  0.00    +0.000 HD
ENDBRANCH   5  20
BRANCH   8  22
ATOM     22  O   UNL     1       3.319   3.699  19.821  0.00  0.00    +0.000 OA
ATOM     23  H   UNL     1       2.396   3.355  19.831  0.00  0.00    +0.000 HD
ENDBRANCH   8  22
BRANCH  10  24
ATOM     24  O   UNL     1       3.896   2.236  17.549  0.00  0.00    +0.000 OA
ATOM     25  H   UNL     1       3.923   1.846  18.439  0.00  0.00    +0.000 HD
ENDBRANCH  10  24
BRANCH  15  26
ATOM     26  N   UNL     1       0.742   9.595  20.478  0.00  0.00    +0.000 N 
ATOM     27  H   UNL     1       1.315  10.289  20.938  0.00  0.00    +0.000 HD
BRANCH  26  28
ATOM     28  C   UNL     1      -0.675   9.796  20.231  0.00  0.00    +0.000 C 
BRANCH  28  29
ATOM     29  C   UNL     1      -1.038  11.111  19.558  0.00  0.00    +0.000 C 
BRANCH  29  30
ATOM     30  C   UNL     1      -1.921  10.865  18.345  0.00  0.00    +0.000 A 
ATOM     31  C   UNL     1      -1.564   9.957  17.323  0.00  0.00    +0.000 A 
ATOM     32  C   UNL     1      -2.381   9.786  16.201  0.00  0.00    +0.000 A 
ATOM     33  C   UNL     1      -3.549  10.519  16.089  0.00  0.00    +0.000 A 
ATOM     34  C   UNL     1      -3.921  11.422  17.086  0.00  0.00    +0.000 A 
ATOM     35  C   UNL     1      -3.105  11.593  18.205  0.00  0.00    +0.000 A 
BRANCH  33  36
ATOM     36  O   UNL     1      -4.366  10.390  15.006  0.00  0.00    +0.000 OA
ATOM     37  H   UNL     1      -5.159  10.932  15.158  0.00  0.00    +0.000 HD
ENDBRANCH  33  36
ENDBRANCH  29  30
ENDBRANCH  28  29
ENDBRANCH  26  28
ENDBRANCH  15  26
TORSDOF 9
ENDMDL
MODEL 4
REMARK VINA RESULT:      -7.8      2.874      8.904
REMARK  Name = 
REMARK  10 active torsions:
REMARK  status: ('A' for Active; 'I' for Inactive)
REMARK    1  A    between atoms: C_1  and  C_2
REMARK    2  A    between atoms: C_2  and  O_3
REMARK    3  A    between atoms: C_6  and  O_7
REMARK    4  A    between atoms: C_10  and  O_11
REMARK    5  A    between atoms: C_13  and  O_14
REMARK    6  A    between atoms: C_19  and  N_20
REMARK    7  A    between atoms: N_20  and  C_21
REMARK    8  A    between atoms: C_21  and  C_22
REMARK    9  A    between atoms: C_22  and  C_23
REMARK   10  A    between atoms: C_26  and  O_27
REMARK                            x       y       z     vdW  Elec       q    Type
REMARK                         _______ _______ _______ _____ _____    ______ ____
ROOT
ATOM      1  C   UNL     1      -0.802  13.850  23.057  0.00  0.00    +0.000 C 
ATOM      2  C   UNL     1      -2.033  13.008  22.699  0.00  0.00    +0.000 C 
ATOM      3  C   UNL     1      -1.728  11.506  22.783  0.00  0.00    +0.000 C 
ATOM      4  C   UNL     1      -0.903  10.976  21.633  0.00  0.00    +0.000 A 
ATOM      5  C   UNL     1      -0.205   9.754  21.762  0.00  0.00    +0.000 A 
ATOM      6  C   UNL     1       0.596   9.262  20.719  0.00  0.00    +0.000 A 
ATOM      7  C   UNL     1       0.702  10.017  19.550  0.00  0.00    +0.000 A 
ATOM      8  C   UNL     1       0.008  11.227  19.406  0.00  0.00    +0.000 A 
ATOM      9  C   UNL     1      -0.835  11.701  20.417  0.00  0.00    +0.000 A 
ATOM     10  C   UNL     1      -1.566  13.021  20.217  0.00  0.00    +0.000 C 
ATOM     11  C   UNL     1      -2.576  13.319  21.314  0.00  0.00    +0.000 C 
ATOM     12  C   UNL     1       1.539   9.562  18.434  0.00  0.00    +0.000 C 
ATOM     13  O   UNL     1       1.640  10.209  17.404  0.00  0.00    +0.000 OA
ATOM     14  C   UNL     1       2.247   8.297  18.584  0.00  0.00    +0.000 C 
ATOM     15  C   UNL     1       2.159   7.530  19.655  0.00  0.00    +0.000 C 
ATOM     16  C   UNL     1       1.321   7.955  20.838  0.00  0.00    +0.000 C 
ATOM     17  O   UNL     1       1.265   7.242  21.826  0.00  0.00    +0.000 OA
ENDROOT
BRANCH   2  18
ATOM     18  O   UNL     1      -3.071  13.310  23.637  0.00  0.00    +0.000 OA
ATOM     19  H   UNL     1      -3.829  13.677  23.151  0.00  0.00    +0.000 HD
ENDBRANCH   2  18
BRANCH   5  20
ATOM     20  O   UNL     1      -0.279   9.036  22.923  0.00  0.00    +0.000 OA
ATOM     21  H   UNL     1       0.574   8.685  23.210  0.00  0.00    +0.000 HD
ENDBRANCH   5  20
BRANCH   8  22
ATOM     22  O   UNL     1       0.131  12.005  18.283  0.00  0.00    +0.000 OA
ATOM     23  H   UNL     1       1.065  12.300  18.178  0.00  0.00    +0.000 HD
ENDBRANCH   8  22
BRANCH  10  24
ATOM     24  O   UNL     1      -2.319  13.061  19.003  0.00  0.00    +0.000 OA
ATOM     25  H   UNL     1      -2.969  12.340  19.032  0.00  0.00    +0.000 HD
ENDBRANCH  10  24
BRANCH  15  26
ATOM     26  N   UNL     1       2.858   6.329  19.761  0.00  0.00    +0.000 N 
ATOM     27  H   UNL     1       3.415   6.212  20.596  0.00  0.00    +0.000 HD
BRANCH  26  28
ATOM     28  C   UNL     1       2.817   5.331  18.707  0.00  0.00    +0.000 C 
BRANCH  28  29
ATOM     29  C   UNL     1       3.958   4.325  18.720  0.00  0.00    +0.000 C 
BRANCH  29  30
ATOM     30  C   UNL     1       4.938   4.614  17.594  0.00  0.00    +0.000 A 
ATOM     31  C   UNL     1       4.981   3.839  16.413  0.00  0.00    +0.000 A 
ATOM     32  C   UNL     1       5.923   4.107  15.416  0.00  0.00    +0.000 A 
ATOM     33  C   UNL     1       6.827   5.140  15.590  0.00  0.00    +0.000 A 
ATOM     34  C   UNL     1       6.803   5.918  16.748  0.00  0.00    +0.000 A 
ATOM     35  C   UNL     1       5.864   5.649  17.744  0.00  0.00    +0.000 A 
BRANCH  33  36
ATOM     36  O   UNL     1       7.768   5.426  14.647  0.00  0.00    +0.000 OA
ATOM     37  H   UNL     1       8.570   4.918  14.855  0.00  0.00    +0.000 HD
ENDBRANCH  33  36
ENDBRANCH  29  30
ENDBRANCH  28  29
ENDBRANCH  26  28
ENDBRANCH  15  26
TORSDOF 9
ENDMDL
MODEL 5
REMARK VINA RESULT:      -7.7      2.766      7.916
REMARK  Name = 
REMARK  10 active torsions:
REMARK  status: ('A' for Active; 'I' for Inactive)
REMARK    1  A    between atoms: C_1  and  C_2
REMARK    2  A    between atoms: C_2  and  O_3
REMARK    3  A    between atoms: C_6  and  O_7
REMARK    4  A    between atoms: C_10  and  O_11
REMARK    5  A    between atoms: C_13  and  O_14
REMARK    6  A    between atoms: C_19  and  N_20
REMARK    7  A    between atoms: N_20  and  C_21
REMARK    8  A    between atoms: C_21  and  C_22
REMARK    9  A    between atoms: C_22  and  C_23
REMARK   10  A    between atoms: C_26  and  O_27
REMARK                            x       y       z     vdW  Elec       q    Type
REMARK                         _______ _______ _______ _____ _____    ______ ____
ROOT
ATOM      1  C   UNL     1      -2.356  12.122  19.046  0.00  0.00    +0.000 C 
ATOM      2  C   UNL     1      -1.089  12.809  19.568  0.00  0.00    +0.000 C 
ATOM      3  C   UNL     1       0.167  12.279  18.861  0.00  0.00    +0.000 C 
ATOM      4  C   UNL     1       0.601  10.905  19.316  0.00  0.00    +0.000 A 
ATOM      5  C   UNL     1       1.455  10.124  18.505  0.00  0.00    +0.000 A 
ATOM      6  C   UNL     1       1.840   8.830  18.891  0.00  0.00    +0.000 A 
ATOM      7  C   UNL     1       1.347   8.322  20.094  0.00  0.00    +0.000 A 
ATOM      8  C   UNL     1       0.505   9.089  20.911  0.00  0.00    +0.000 A 
ATOM      9  C   UNL     1       0.157  10.398  20.563  0.00  0.00    +0.000 A 
ATOM     10  C   UNL     1      -0.762  11.193  21.482  0.00  0.00    +0.000 C 
ATOM     11  C   UNL     1      -0.908  12.648  21.069  0.00  0.00    +0.000 C 
ATOM     12  C   UNL     1       1.701   6.970  20.540  0.00  0.00    +0.000 C 
ATOM     13  O   UNL     1       1.280   6.511  21.589  0.00  0.00    +0.000 OA
ATOM     14  C   UNL     1       2.587   6.181  19.692  0.00  0.00    +0.000 C 
ATOM     15  C   UNL     1       3.105   6.624  18.561  0.00  0.00    +0.000 C 
ATOM     16  C   UNL     1       2.766   8.004  18.049  0.00  0.00    +0.000 C 
ATOM     17  O   UNL     1       3.240   8.390  16.994  0.00  0.00    +0.000 OA
ENDROOT
BRANCH   2  18
ATOM     18  O   UNL     1      -1.197  14.211  19.303  0.00  0.00    +0.000 OA
ATOM     19  H   UNL     1      -0.542  14.680  19.848  0.00  0.00    +0.000 HD
ENDBRANCH   2  18
BRANCH   5  20
ATOM     20  O   UNL     1       1.906  10.610  17.309  0.00  0.00    +0.000 OA
ATOM     21  H   UNL     1       2.201  11.529  17.356  0.00  0.00    +0.000 HD
ENDBRANCH   5  20
BRANCH   8  22
ATOM     22  O   UNL     1      -0.025   8.593  22.076  0.00  0.00    +0.000 OA
ATOM     23  H   UNL     1      -0.616   9.264  22.490  0.00  0.00    +0.000 HD
ENDBRANCH   8  22
BRANCH  10  24
ATOM     24  O   UNL     1      -0.295  11.237  22.831  0.00  0.00    +0.000 OA
ATOM     25  H   UNL     1      -0.120  12.166  23.055  0.00  0.00    +0.000 HD
ENDBRANCH  10  24
BRANCH  15  26
ATOM     26  N   UNL     1       3.944   5.835  17.777  0.00  0.00    +0.000 N 
ATOM     27  H   UNL     1       4.922   6.092  17.776  0.00  0.00    +0.000 HD
BRANCH  26  28
ATOM     28  C   UNL     1       3.427   4.737  16.980  0.00  0.00    +0.000 C 
BRANCH  28  29
ATOM     29  C   UNL     1       3.773   3.346  17.489  0.00  0.00    +0.000 C 
BRANCH  29  30
ATOM     30  C   UNL     1       3.031   3.050  18.782  0.00  0.00    +0.000 A 
ATOM     31  C   UNL     1       1.620   3.035  18.856  0.00  0.00    +0.000 A 
ATOM     32  C   UNL     1       0.971   2.800  20.072  0.00  0.00    +0.000 A 
ATOM     33  C   UNL     1       1.719   2.585  21.216  0.00  0.00    +0.000 A 
ATOM     34  C   UNL     1       3.114   2.595  21.166  0.00  0.00    +0.000 A 
ATOM     35  C   UNL     1       3.762   2.832  19.952  0.00  0.00    +0.000 A 
BRANCH  33  36
ATOM     36  O   UNL     1       1.125   2.364  22.422  0.00  0.00    +0.000 OA
ATOM     37  H   UNL     1       1.118   3.201  22.915  0.00  0.00    +0.000 HD
ENDBRANCH  33  36
ENDBRANCH  29  30
ENDBRANCH  28  29
ENDBRANCH  26  28
ENDBRANCH  15  26
TORSDOF 9
ENDMDL
MODEL 6
REMARK VINA RESULT:      -7.6      2.656      3.508
REMARK  Name = 
REMARK  10 active torsions:
REMARK  status: ('A' for Active; 'I' for Inactive)
REMARK    1  A    between atoms: C_1  and  C_2
REMARK    2  A    between atoms: C_2  and  O_3
REMARK    3  A    between atoms: C_6  and  O_7
REMARK    4  A    between atoms: C_10  and  O_11
REMARK    5  A    between atoms: C_13  and  O_14
REMARK    6  A    between atoms: C_19  and  N_20
REMARK    7  A    between atoms: N_20  and  C_21
REMARK    8  A    between atoms: C_21  and  C_22
REMARK    9  A    between atoms: C_22  and  C_23
REMARK   10  A    between atoms: C_26  and  O_27
REMARK                            x       y       z     vdW  Elec       q    Type
REMARK                         _______ _______ _______ _____ _____    ______ ____
ROOT
ATOM      1  C   UNL     1       6.546   4.841  18.391  0.00  0.00    +0.000 C 
ATOM      2  C   UNL     1       5.390   4.320  17.530  0.00  0.00    +0.000 C 
ATOM      3  C   UNL     1       4.567   5.473  16.938  0.00  0.00    +0.000 C 
ATOM      4  C   UNL     1       3.656   6.156  17.930  0.00  0.00    +0.000 A 
ATOM      5  C   UNL     1       3.161   7.454  17.666  0.00  0.00    +0.000 A 
ATOM      6  C   UNL     1       2.342   8.121  18.591  0.00  0.00    +0.000 A 
ATOM      7  C   UNL     1       2.037   7.479  19.792  0.00  0.00    +0.000 A 
ATOM      8  C   UNL     1       2.514   6.189  20.063  0.00  0.00    +0.000 A 
ATOM      9  C   UNL     1       3.287   5.493  19.127  0.00  0.00    +0.000 A 
ATOM     10  C   UNL     1       3.785   4.095  19.467  0.00  0.00    +0.000 C 
ATOM     11  C   UNL     1       4.455   3.397  18.295  0.00  0.00    +0.000 C 
ATOM     12  C   UNL     1       1.201   8.135  20.803  0.00  0.00    +0.000 C 
ATOM     13  O   UNL     1       0.923   7.587  21.858  0.00  0.00    +0.000 OA
ATOM     14  C   UNL     1       0.697   9.471  20.511  0.00  0.00    +0.000 C 
ATOM     15  C   UNL     1       0.930  10.111  19.379  0.00  0.00    +0.000 C 
ATOM     16  C   UNL     1       1.794   9.487  18.308  0.00  0.00    +0.000 C 
ATOM     17  O   UNL     1       2.013  10.101  17.277  0.00  0.00    +0.000 OA
ENDROOT
BRANCH   2  18
ATOM     18  O   UNL     1       5.942   3.560  16.450  0.00  0.00    +0.000 OA
ATOM     19  H   UNL     1       6.031   2.635  16.736  0.00  0.00    +0.000 HD
ENDBRANCH   2  18
BRANCH   5  20
ATOM     20  O   UNL     1       3.494   8.096  16.506  0.00  0.00    +0.000 OA
ATOM     21  H   UNL     1       3.649   7.493  15.766  0.00  0.00    +0.000 HD
ENDBRANCH   5  20
BRANCH   8  22
ATOM     22  O   UNL     1       2.262   5.557  21.255  0.00  0.00    +0.000 OA
ATOM     23  H   UNL     1       2.165   4.588  21.109  0.00  0.00    +0.000 HD
ENDBRANCH   8  22
BRANCH  10  24
ATOM     24  O   UNL     1       2.735   3.214  19.870  0.00  0.00    +0.000 OA
ATOM     25  H   UNL     1       2.950   2.878  20.755  0.00  0.00    +0.000 HD
ENDBRANCH  10  24
BRANCH  15  26
ATOM     26  N   UNL     1       0.434  11.391  19.142  0.00  0.00    +0.000 N 
ATOM     27  H   UNL     1       0.036  11.550  18.226  0.00  0.00    +0.000 HD
BRANCH  26  28
ATOM     28  C   UNL     1       0.526  12.439  20.142  0.00  0.00    +0.000 C 
BRANCH  28  29
ATOM     29  C   UNL     1      -0.667  13.383  20.206  0.00  0.00    +0.000 C 
BRANCH  29  30
ATOM     30  C   UNL     1      -1.587  13.005  21.355  0.00  0.00    +0.000 A 
ATOM     31  C   UNL     1      -1.213  12.069  22.345  0.00  0.00    +0.000 A 
ATOM     32  C   UNL     1      -2.101  11.714  23.365  0.00  0.00    +0.000 A 
ATOM     33  C   UNL     1      -3.362  12.282  23.401  0.00  0.00    +0.000 A 
ATOM     34  C   UNL     1      -3.753  13.208  22.433  0.00  0.00    +0.000 A 
ATOM     35  C   UNL     1      -2.867  13.561  21.414  0.00  0.00    +0.000 A 
BRANCH  33  36
ATOM     36  O   UNL     1      -4.261  11.953  24.371  0.00  0.00    +0.000 OA
ATOM     37  H   UNL     1      -5.087  12.435  24.195  0.00  0.00    +0.000 HD
ENDBRANCH  33  36
ENDBRANCH  29  30
ENDBRANCH  28  29
ENDBRANCH  26  28
ENDBRANCH  15  26
TORSDOF 9
ENDMDL
MODEL 7
REMARK VINA RESULT:      -7.6      1.257      1.583
REMARK  Name = 
REMARK  10 active torsions:
REMARK  status: ('A' for Active; 'I' for Inactive)
REMARK    1  A    between atoms: C_1  and  C_2
REMARK    2  A    between atoms: C_2  and  O_3
REMARK    3  A    between atoms: C_6  and  O_7
REMARK    4  A    between atoms: C_10  and  O_11
REMARK    5  A    between atoms: C_13  and  O_14
REMARK    6  A    between atoms: C_19  and  N_20
REMARK    7  A    between atoms: N_20  and  C_21
REMARK    8  A    between atoms: C_21  and  C_22
REMARK    9  A    between atoms: C_22  and  C_23
REMARK   10  A    between atoms: C_26  and  O_27
REMARK                            x       y       z     vdW  Elec       q    Type
REMARK                         _______ _______ _______ _____ _____    ______ ____
ROOT
ATOM      1  C   UNL     1       6.520   4.739  18.327  0.00  0.00    +0.000 C 
ATOM      2  C   UNL     1       5.349   4.249  17.467  0.00  0.00    +0.000 C 
ATOM      3  C   UNL     1       4.547   5.425  16.890  0.00  0.00    +0.000 C 
ATOM      4  C   UNL     1       3.655   6.118  17.893  0.00  0.00    +0.000 A 
ATOM      5  C   UNL     1       3.186   7.428  17.642  0.00  0.00    +0.000 A 
ATOM      6  C   UNL     1       2.387   8.104  18.578  0.00  0.00    +0.000 A 
ATOM      7  C   UNL     1       2.074   7.458  19.775  0.00  0.00    +0.000 A 
ATOM      8  C   UNL     1       2.526   6.156  20.032  0.00  0.00    +0.000 A 
ATOM      9  C   UNL     1       3.279   5.453  19.086  0.00  0.00    +0.000 A 
ATOM     10  C   UNL     1       3.749   4.041  19.411  0.00  0.00    +0.000 C 
ATOM     11  C   UNL     1       4.399   3.340  18.229  0.00  0.00    +0.000 C 
ATOM     12  C   UNL     1       1.258   8.123  20.796  0.00  0.00    +0.000 C 
ATOM     13  O   UNL     1       0.974   7.571  21.848  0.00  0.00    +0.000 OA
ATOM     14  C   UNL     1       0.780   9.471  20.518  0.00  0.00    +0.000 C 
ATOM     15  C   UNL     1       1.021  10.116  19.391  0.00  0.00    +0.000 C 
ATOM     16  C   UNL     1       1.865   9.484  18.310  0.00  0.00    +0.000 C 
ATOM     17  O   UNL     1       2.092  10.102  17.282  0.00  0.00    +0.000 OA
ENDROOT
BRANCH   2  18
ATOM     18  O   UNL     1       5.879   3.488  16.377  0.00  0.00    +0.000 OA
ATOM     19  H   UNL     1       6.354   2.720  16.739  0.00  0.00    +0.000 HD
ENDBRANCH   2  18
BRANCH   5  20
ATOM     20  O   UNL     1       3.526   8.073  16.486  0.00  0.00    +0.000 OA
ATOM     21  H   UNL     1       4.064   8.863  16.633  0.00  0.00    +0.000 HD
ENDBRANCH   5  20
BRANCH   8  22
ATOM     22  O   UNL     1       2.267   5.519  21.220  0.00  0.00    +0.000 OA
ATOM     23  H   UNL     1       1.408   5.831  21.589  0.00  0.00    +0.000 HD
ENDBRANCH   8  22
BRANCH  10  24
ATOM     24  O   UNL     1       2.683   3.179  19.812  0.00  0.00    +0.000 OA
ATOM     25  H   UNL     1       2.943   2.752  20.645  0.00  0.00    +0.000 HD
ENDBRANCH  10  24
BRANCH  15  26
ATOM     26  N   UNL     1       0.549  11.408  19.167  0.00  0.00    +0.000 N 
ATOM     27  H   UNL     1       1.151  12.160  19.475  0.00  0.00    +0.000 HD
BRANCH  26  28
ATOM     28  C   UNL     1      -0.750  11.649  18.565  0.00  0.00    +0.000 C 
BRANCH  28  29
ATOM     29  C   UNL     1      -1.780  12.295  19.481  0.00  0.00    +0.000 C 
BRANCH  29  30
ATOM     30  C   UNL     1      -3.188  12.027  18.975  0.00  0.00    +0.000 A 
ATOM     31  C   UNL     1      -3.438  11.415  17.726  0.00  0.00    +0.000 A 
ATOM     32  C   UNL     1      -4.747  11.221  17.274  0.00  0.00    +0.000 A 
ATOM     33  C   UNL     1      -5.808  11.639  18.057  0.00  0.00    +0.000 A 
ATOM     34  C   UNL     1      -5.585  12.246  19.293  0.00  0.00    +0.000 A 
ATOM     35  C   UNL     1      -4.278  12.441  19.744  0.00  0.00    +0.000 A 
BRANCH  33  36
ATOM     36  O   UNL     1      -7.099  11.479  17.647  0.00  0.00    +0.000 OA
ATOM     37  H   UNL     1      -7.465  12.357  17.449  0.00  0.00    +0.000 HD
ENDBRANCH  33  36
ENDBRANCH  29  30
ENDBRANCH  28  29
ENDBRANCH  26  28
ENDBRANCH  15  26
TORSDOF 9
ENDMDL
MODEL 8
REMARK VINA RESULT:      -7.6      3.492      9.407
REMARK  Name = 
REMARK  10 active torsions:
REMARK  status: ('A' for Active; 'I' for Inactive)
REMARK    1  A    between atoms: C_1  and  C_2
REMARK    2  A    between atoms: C_2  and  O_3
REMARK    3  A    between atoms: C_6  and  O_7
REMARK    4  A    between atoms: C_10  and  O_11
REMARK    5  A    between atoms: C_13  and  O_14
REMARK    6  A    between atoms: C_19  and  N_20
REMARK    7  A    between atoms: N_20  and  C_21
REMARK    8  A    between atoms: C_21  and  C_22
REMARK    9  A    between atoms: C_22  and  C_23
REMARK   10  A    between atoms: C_26  and  O_27
REMARK                            x       y       z     vdW  Elec       q    Type
REMARK                         _______ _______ _______ _____ _____    ______ ____
ROOT
ATOM      1  C   UNL     1      -2.171  14.913  23.504  0.00  0.00    +0.000 C 
ATOM      2  C   UNL     1      -3.261  13.835  23.469  0.00  0.00    +0.000 C 
ATOM      3  C   UNL     1      -2.665  12.430  23.634  0.00  0.00    +0.000 C 
ATOM      4  C   UNL     1      -1.963  11.906  22.402  0.00  0.00    +0.000 A 
ATOM      5  C   UNL     1      -1.032  10.847  22.510  0.00  0.00    +0.000 A 
ATOM      6  C   UNL     1      -0.342  10.371  21.383  0.00  0.00    +0.000 A 
ATOM      7  C   UNL     1      -0.584  10.978  20.150  0.00  0.00    +0.000 A 
ATOM      8  C   UNL     1      -1.511  12.023  20.029  0.00  0.00    +0.000 A 
ATOM      9  C   UNL     1      -2.243  12.471  21.133  0.00  0.00    +0.000 A 
ATOM     10  C   UNL     1      -3.237  13.611  20.953  0.00  0.00    +0.000 C 
ATOM     11  C   UNL     1      -4.082  13.869  22.190  0.00  0.00    +0.000 C 
ATOM     12  C   UNL     1       0.121  10.534  18.943  0.00  0.00    +0.000 C 
ATOM     13  O   UNL     1      -0.081  11.052  17.856  0.00  0.00    +0.000 OA
ATOM     14  C   UNL     1       1.073   9.438  19.073  0.00  0.00    +0.000 C 
ATOM     15  C   UNL     1       1.318   8.809  20.208  0.00  0.00    +0.000 C 
ATOM     16  C   UNL     1       0.628   9.233  21.484  0.00  0.00    +0.000 C 
ATOM     17  O   UNL     1       0.880   8.652  22.527  0.00  0.00    +0.000 OA
ENDROOT
BRANCH   2  18
ATOM     18  O   UNL     1      -4.161  14.072  24.556  0.00  0.00    +0.000 OA
ATOM     19  H   UNL     1      -3.853  14.851  25.048  0.00  0.00    +0.000 HD
ENDBRANCH   2  18
BRANCH   5  20
ATOM     20  O   UNL     1      -0.768  10.281  23.725  0.00  0.00    +0.000 OA
ATOM     21  H   UNL     1      -1.527   9.818  24.104  0.00  0.00    +0.000 HD
ENDBRANCH   5  20
BRANCH   8  22
ATOM     22  O   UNL     1      -1.732  12.662  18.834  0.00  0.00    +0.000 OA
ATOM     23  H   UNL     1      -1.264  13.528  18.824  0.00  0.00    +0.000 HD
ENDBRANCH   8  22
BRANCH  10  24
ATOM     24  O   UNL     1      -4.179  13.367  19.907  0.00  0.00    +0.000 OA
ATOM     25  H   UNL     1      -5.042  13.196  20.318  0.00  0.00    +0.000 HD
ENDBRANCH  10  24
BRANCH  15  26
ATOM     26  N   UNL     1       2.241   7.770  20.290  0.00  0.00    +0.000 N 
ATOM     27  H   UNL     1       3.039   7.931  20.889  0.00  0.00    +0.000 HD
BRANCH  26  28
ATOM     28  C   UNL     1       2.079   6.548  19.522  0.00  0.00    +0.000 C 
BRANCH  28  29
ATOM     29  C   UNL     1       1.630   5.333  20.321  0.00  0.00    +0.000 C 
BRANCH  29  30
ATOM     30  C   UNL     1       2.270   4.067  19.774  0.00  0.00    +0.000 A 
ATOM     31  C   UNL     1       3.330   3.410  20.437  0.00  0.00    +0.000 A 
ATOM     32  C   UNL     1       3.923   2.271  19.883  0.00  0.00    +0.000 A 
ATOM     33  C   UNL     1       3.468   1.786  18.670  0.00  0.00    +0.000 A 
ATOM     34  C   UNL     1       2.422   2.419  17.997  0.00  0.00    +0.000 A 
ATOM     35  C   UNL     1       1.832   3.557  18.549  0.00  0.00    +0.000 A 
BRANCH  33  36
ATOM     36  O   UNL     1       4.026   0.685  18.091  0.00  0.00    +0.000 OA
ATOM     37  H   UNL     1       3.463  -0.082  18.292  0.00  0.00    +0.000 HD
ENDBRANCH  33  36
ENDBRANCH  29  30
ENDBRANCH  28  29
ENDBRANCH  26  28
ENDBRANCH  15  26
TORSDOF 9
ENDMDL
MODEL 9
REMARK VINA RESULT:      -7.6      1.393      3.166
REMARK  Name = 
REMARK  10 active torsions:
REMARK  status: ('A' for Active; 'I' for Inactive)
REMARK    1  A    between atoms: C_1  and  C_2
REMARK    2  A    between atoms: C_2  and  O_3
REMARK    3  A    between atoms: C_6  and  O_7
REMARK    4  A    between atoms: C_10  and  O_11
REMARK    5  A    between atoms: C_13  and  O_14
REMARK    6  A    between atoms: C_19  and  N_20
REMARK    7  A    between atoms: N_20  and  C_21
REMARK    8  A    between atoms: C_21  and  C_22
REMARK    9  A    between atoms: C_22  and  C_23
REMARK   10  A    between atoms: C_26  and  O_27
REMARK                            x       y       z     vdW  Elec       q    Type
REMARK                         _______ _______ _______ _____ _____    ______ ____
ROOT
ATOM      1  C   UNL     1       2.763   2.921  17.573  0.00  0.00    +0.000 C 
ATOM      2  C   UNL     1       3.915   3.335  18.496  0.00  0.00    +0.000 C 
ATOM      3  C   UNL     1       3.414   4.183  19.673  0.00  0.00    +0.000 C 
ATOM      4  C   UNL     1       3.061   5.605  19.306  0.00  0.00    +0.000 A 
ATOM      5  C   UNL     1       2.221   6.370  20.147  0.00  0.00    +0.000 A 
ATOM      6  C   UNL     1       1.851   7.681  19.806  0.00  0.00    +0.000 A 
ATOM      7  C   UNL     1       2.321   8.212  18.605  0.00  0.00    +0.000 A 
ATOM      8  C   UNL     1       3.162   7.468  17.765  0.00  0.00    +0.000 A 
ATOM      9  C   UNL     1       3.580   6.180  18.119  0.00  0.00    +0.000 A 
ATOM     10  C   UNL     1       4.492   5.409  17.175  0.00  0.00    +0.000 C 
ATOM     11  C   UNL     1       5.004   4.107  17.768  0.00  0.00    +0.000 C 
ATOM     12  C   UNL     1       1.953   9.570  18.189  0.00  0.00    +0.000 C 
ATOM     13  O   UNL     1       2.357  10.051  17.142  0.00  0.00    +0.000 OA
ATOM     14  C   UNL     1       1.089  10.344  19.071  0.00  0.00    +0.000 C 
ATOM     15  C   UNL     1       0.641   9.901  20.232  0.00  0.00    +0.000 C 
ATOM     16  C   UNL     1       0.980   8.507  20.704  0.00  0.00    +0.000 C 
ATOM     17  O   UNL     1       0.542   8.108  21.771  0.00  0.00    +0.000 OA
ENDROOT
BRANCH   2  18
ATOM     18  O   UNL     1       4.518   2.147  19.020  0.00  0.00    +0.000 OA
ATOM     19  H   UNL     1       4.892   2.351  19.894  0.00  0.00    +0.000 HD
ENDBRANCH   2  18
BRANCH   5  20
ATOM     20  O   UNL     1       1.730   5.832  21.304  0.00  0.00    +0.000 OA
ATOM     21  H   UNL     1       2.152   4.997  21.547  0.00  0.00    +0.000 HD
ENDBRANCH   5  20
BRANCH   8  22
ATOM     22  O   UNL     1       3.601   7.955  16.560  0.00  0.00    +0.000 OA
ATOM     23  H   UNL     1       3.645   8.939  16.590  0.00  0.00    +0.000 HD
ENDBRANCH   8  22
BRANCH  10  24
ATOM     24  O   UNL     1       5.667   6.139  16.818  0.00  0.00    +0.000 OA
ATOM     25  H   UNL     1       6.389   5.841  17.395  0.00  0.00    +0.000 HD
ENDBRANCH  10  24
BRANCH  15  26
ATOM     26  N   UNL     1      -0.188  10.672  21.043  0.00  0.00    +0.000 N 
ATOM     27  H   UNL     1      -0.627  10.189  21.816  0.00  0.00    +0.000 HD
BRANCH  26  28
ATOM     28  C   UNL     1      -0.435  12.075  20.762  0.00  0.00    +0.000 C 
BRANCH  28  29
ATOM     29  C   UNL     1      -1.858  12.549  21.018  0.00  0.00    +0.000 C 
BRANCH  29  30
ATOM     30  C   UNL     1      -2.759  12.191  19.847  0.00  0.00    +0.000 A 
ATOM     31  C   UNL     1      -2.252  11.670  18.636  0.00  0.00    +0.000 A 
ATOM     32  C   UNL     1      -3.106  11.391  17.565  0.00  0.00    +0.000 A 
ATOM     33  C   UNL     1      -4.462  11.634  17.692  0.00  0.00    +0.000 A 
ATOM     34  C   UNL     1      -4.985  12.148  18.879  0.00  0.00    +0.000 A 
ATOM     35  C   UNL     1      -4.132  12.428  19.947  0.00  0.00    +0.000 A 
BRANCH  33  36
ATOM     36  O   UNL     1      -5.327  11.386  16.667  0.00  0.00    +0.000 OA
ATOM     37  H   UNL     1      -5.320  12.155  16.073  0.00  0.00    +0.000 HD
ENDBRANCH  33  36
ENDBRANCH  29  30
ENDBRANCH  28  29
ENDBRANCH  26  28
ENDBRANCH  15  26
TORSDOF 9
ENDMDL
