MODEL 1
REMARK VINA RESULT:      -8.0      0.000      0.000
REMARK  Name = 
REMARK  8 active torsions:
REMARK  status: ('A' for Active; 'I' for Inactive)
REMARK    1  A    between atoms: C_1  and  C_2
REMARK    2  A    between atoms: C_2  and  C_3
REMARK    3  A    between atoms: C_2  and  C_4
REMARK    4  A    between atoms: N_8  and  C_9
REMARK    5  A    between atoms: N_13  and  C_14
REMARK    6  A    between atoms: C_14  and  C_15
REMARK    7  A    between atoms: C_14  and  C_16
REMARK    8  A    between atoms: N_17  and  C_18
REMARK                            x       y       z     vdW  Elec       q    Type
REMARK                         _______ _______ _______ _____ _____    ______ ____
ROOT
ATOM      1  C   UNL     1       3.020   3.119  19.864  0.00  0.00    +0.000 C 
ATOM      2  O   UNL     1       4.059   2.718  20.388  0.00  0.00    +0.000 OA
ATOM      3  N   UNL     1       2.894   4.285  19.125  0.00  0.00    +0.000 N 
ATOM      4  C   UNL     1       3.918   5.146  18.773  0.00  0.00    +0.000 C 
ATOM      5  N   UNL     1       5.110   4.677  18.886  0.00  0.00    +0.000 NA
ATOM      6  N   UNL     1       3.504   6.379  18.311  0.00  0.00    +0.000 N 
ATOM      7  H   UNL     1       1.976   4.592  18.847  0.00  0.00    +0.000 HD
ATOM      8  H   UNL     1       4.288   6.922  17.933  0.00  0.00    +0.000 HD
ENDROOT
BRANCH   6   9
ATOM      9  C   UNL     1       2.601   7.217  19.032  0.00  0.00    +0.000 A 
ATOM     10  C   UNL     1       2.185   6.835  20.314  0.00  0.00    +0.000 A 
ATOM     11  C   UNL     1       1.308   7.640  21.057  0.00  0.00    +0.000 A 
ATOM     12  C   UNL     1       0.826   8.838  20.525  0.00  0.00    +0.000 A 
ATOM     13 CL   UNL     1      -0.268   9.770  21.484  0.00  0.00    +0.000 Cl
ATOM     14  C   UNL     1       1.235   9.236  19.251  0.00  0.00    +0.000 A 
ATOM     15 CL   UNL     1       0.705  10.714  18.527  0.00  0.00    +0.000 Cl
ATOM     16  C   UNL     1       2.111   8.428  18.514  0.00  0.00    +0.000 A 
ENDBRANCH   6   9
BRANCH   5  17
ATOM     17  C   UNL     1       6.210   5.372  18.558  0.00  0.00    +0.000 A 
ATOM     18  N   UNL     1       7.105   5.980  19.310  0.00  0.00    +0.000 NA
ATOM     19  C   UNL     1       7.923   6.663  18.436  0.00  0.00    +0.000 A 
ATOM     20  C   UNL     1       7.554   6.436  17.132  0.00  0.00    +0.000 A 
ATOM     21  N   UNL     1       6.484   5.587  17.211  0.00  0.00    +0.000 N 
BRANCH  21  22
ATOM     22  C   UNL     1       5.732   5.018  16.091  0.00  0.00    +0.000 C 
ATOM     23  C   UNL     1       5.177   6.108  15.174  0.00  0.00    +0.000 C 
ATOM     24  C   UNL     1       6.541   4.001  15.276  0.00  0.00    +0.000 C 
ENDBRANCH  21  22
ENDBRANCH   5  17
BRANCH   1  26
ATOM     25  C   UNL     1       1.069   2.692  21.361  0.00  0.00    +0.000 C 
ATOM     26  C   UNL     1       1.711   2.346  20.016  0.00  0.00    +0.000 C 
ATOM     27  C   UNL     1       0.738   2.658  18.881  0.00  0.00    +0.000 C 
ENDBRANCH   1  26
TORSDOF 4
ENDMDL
MODEL 2
REMARK VINA RESULT:      -7.8      0.799      1.639
REMARK  Name = 
REMARK  8 active torsions:
REMARK  status: ('A' for Active; 'I' for Inactive)
REMARK    1  A    between atoms: C_1  and  C_2
REMARK    2  A    between atoms: C_2  and  C_3
REMARK    3  A    between atoms: C_2  and  C_4
REMARK    4  A    between atoms: N_8  and  C_9
REMARK    5  A    between atoms: N_13  and  C_14
REMARK    6  A    between atoms: C_14  and  C_15
REMARK    7  A    between atoms: C_14  and  C_16
REMARK    8  A    between atoms: N_17  and  C_18
REMARK                            x       y       z     vdW  Elec       q    Type
REMARK                         _______ _______ _______ _____ _____    ______ ____
ROOT
ATOM      1  C   UNL     1       2.487   3.784  19.934  0.00  0.00    +0.000 C 
ATOM      2  O   UNL     1       3.460   3.366  20.560  0.00  0.00    +0.000 OA
ATOM      3  N   UNL     1       2.505   4.841  19.038  0.00  0.00    +0.000 N 
ATOM      4  C   UNL     1       3.622   5.544  18.622  0.00  0.00    +0.000 C 
ATOM      5  N   UNL     1       4.755   4.985  18.858  0.00  0.00    +0.000 NA
ATOM      6  N   UNL     1       3.350   6.733  17.976  0.00  0.00    +0.000 N 
ATOM      7  H   UNL     1       1.632   5.190  18.674  0.00  0.00    +0.000 HD
ATOM      8  H   UNL     1       4.197   7.140  17.567  0.00  0.00    +0.000 HD
ENDROOT
BRANCH   6   9
ATOM      9  C   UNL     1       2.509   7.744  18.529  0.00  0.00    +0.000 A 
ATOM     10  C   UNL     1       2.025   8.764  17.700  0.00  0.00    +0.000 A 
ATOM     11  C   UNL     1       1.185   9.768  18.206  0.00  0.00    +0.000 A 
ATOM     12  C   UNL     1       0.822   9.772  19.554  0.00  0.00    +0.000 A 
ATOM     13 CL   UNL     1      -0.196  11.049  20.117  0.00  0.00    +0.000 Cl
ATOM     14  C   UNL     1       1.291   8.760  20.394  0.00  0.00    +0.000 A 
ATOM     15 CL   UNL     1       0.871   8.677  22.069  0.00  0.00    +0.000 Cl
ATOM     16  C   UNL     1       2.129   7.760  19.882  0.00  0.00    +0.000 A 
ENDBRANCH   6   9
BRANCH   5  17
ATOM     17  C   UNL     1       5.931   5.521  18.494  0.00  0.00    +0.000 A 
ATOM     18  N   UNL     1       6.866   6.121  19.203  0.00  0.00    +0.000 NA
ATOM     19  C   UNL     1       7.773   6.608  18.288  0.00  0.00    +0.000 A 
ATOM     20  C   UNL     1       7.415   6.266  17.006  0.00  0.00    +0.000 A 
ATOM     21  N   UNL     1       6.260   5.545  17.142  0.00  0.00    +0.000 N 
BRANCH  21  22
ATOM     22  C   UNL     1       5.482   4.925  16.068  0.00  0.00    +0.000 C 
ATOM     23  C   UNL     1       5.195   5.915  14.938  0.00  0.00    +0.000 C 
ATOM     24  C   UNL     1       6.132   3.655  15.507  0.00  0.00    +0.000 C 
ENDBRANCH  21  22
ENDBRANCH   5  17
BRANCH   1  26
ATOM     25  C   UNL     1       0.802   2.220  18.960  0.00  0.00    +0.000 C 
ATOM     26  C   UNL     1       1.102   3.166  20.125  0.00  0.00    +0.000 C 
ATOM     27  C   UNL     1       0.999   2.411  21.448  0.00  0.00    +0.000 C 
ENDBRANCH   1  26
TORSDOF 4
ENDMDL
MODEL 3
REMARK VINA RESULT:      -7.3      5.517      8.617
REMARK  Name = 
REMARK  8 active torsions:
REMARK  status: ('A' for Active; 'I' for Inactive)
REMARK    1  A    between atoms: C_1  and  C_2
REMARK    2  A    between atoms: C_2  and  C_3
REMARK    3  A    between atoms: C_2  and  C_4
REMARK    4  A    between atoms: N_8  and  C_9
REMARK    5  A    between atoms: N_13  and  C_14
REMARK    6  A    between atoms: C_14  and  C_15
REMARK    7  A    between atoms: C_14  and  C_16
REMARK    8  A    between atoms: N_17  and  C_18
REMARK                            x       y       z     vdW  Elec       q    Type
REMARK                         _______ _______ _______ _____ _____    ______ ____
ROOT
ATOM      1  C   UNL     1      -1.934  10.922  17.955  0.00  0.00    +0.000 C 
ATOM      2  O   UNL     1      -1.810  12.045  17.467  0.00  0.00    +0.000 OA
ATOM      3  N   UNL     1      -1.114  10.379  18.932  0.00  0.00    +0.000 N 
ATOM      4  C   UNL     1      -0.082  11.026  19.589  0.00  0.00    +0.000 C 
ATOM      5  N   UNL     1      -0.077  12.308  19.498  0.00  0.00    +0.000 NA
ATOM      6  N   UNL     1       0.773  10.195  20.283  0.00  0.00    +0.000 N 
ATOM      7  H   UNL     1      -1.218   9.406  19.174  0.00  0.00    +0.000 HD
ATOM      8  H   UNL     1       1.429  10.730  20.863  0.00  0.00    +0.000 HD
ENDROOT
BRANCH   6   9
ATOM      9  C   UNL     1       1.415   9.068  19.689  0.00  0.00    +0.000 A 
ATOM     10  C   UNL     1       1.927   9.175  18.389  0.00  0.00    +0.000 A 
ATOM     11  C   UNL     1       2.576   8.091  17.777  0.00  0.00    +0.000 A 
ATOM     12  C   UNL     1       2.717   6.879  18.455  0.00  0.00    +0.000 A 
ATOM     13 CL   UNL     1       3.507   5.578  17.636  0.00  0.00    +0.000 Cl
ATOM     14  C   UNL     1       2.219   6.756  19.753  0.00  0.00    +0.000 A 
ATOM     15 CL   UNL     1       2.372   5.299  20.671  0.00  0.00    +0.000 Cl
ATOM     16  C   UNL     1       1.572   7.842  20.359  0.00  0.00    +0.000 A 
ENDBRANCH   6   9
BRANCH   5  17
ATOM     17  C   UNL     1       0.836  13.086  20.100  0.00  0.00    +0.000 A 
ATOM     18  N   UNL     1       1.932  12.779  20.765  0.00  0.00    +0.000 NA
ATOM     19  C   UNL     1       2.391  13.965  21.293  0.00  0.00    +0.000 A 
ATOM     20  C   UNL     1       1.596  15.018  20.912  0.00  0.00    +0.000 A 
ATOM     21  N   UNL     1       0.626  14.461  20.124  0.00  0.00    +0.000 N 
BRANCH  21  22
ATOM     22  C   UNL     1      -0.462  15.166  19.443  0.00  0.00    +0.000 C 
ATOM     23  C   UNL     1      -1.538  15.626  20.427  0.00  0.00    +0.000 C 
ATOM     24  C   UNL     1       0.023  16.349  18.596  0.00  0.00    +0.000 C 
ENDBRANCH  21  22
ENDBRANCH   5  17
BRANCH   1  26
ATOM     25  C   UNL     1      -4.401  10.563  17.832  0.00  0.00    +0.000 C 
ATOM     26  C   UNL     1      -3.034   9.973  17.482  0.00  0.00    +0.000 C 
ATOM     27  C   UNL     1      -2.948   9.715  15.979  0.00  0.00    +0.000 C 
ENDBRANCH   1  26
TORSDOF 4
ENDMDL
MODEL 4
REMARK VINA RESULT:      -7.3      1.320      2.605
REMARK  Name = 
REMARK  8 active torsions:
REMARK  status: ('A' for Active; 'I' for Inactive)
REMARK    1  A    between atoms: C_1  and  C_2
REMARK    2  A    between atoms: C_2  and  C_3
REMARK    3  A    between atoms: C_2  and  C_4
REMARK    4  A    between atoms: N_8  and  C_9
REMARK    5  A    between atoms: N_13  and  C_14
REMARK    6  A    between atoms: C_14  and  C_15
REMARK    7  A    between atoms: C_14  and  C_16
REMARK    8  A    between atoms: N_17  and  C_18
REMARK                            x       y       z     vdW  Elec       q    Type
REMARK                         _______ _______ _______ _____ _____    ______ ____
ROOT
ATOM      1  C   UNL     1       3.735   3.188  19.914  0.00  0.00    +0.000 C 
ATOM      2  O   UNL     1       4.920   2.866  19.994  0.00  0.00    +0.000 OA
ATOM      3  N   UNL     1       3.196   4.024  18.949  0.00  0.00    +0.000 N 
ATOM      4  C   UNL     1       3.865   4.563  17.865  0.00  0.00    +0.000 C 
ATOM      5  N   UNL     1       4.988   4.011  17.569  0.00  0.00    +0.000 NA
ATOM      6  N   UNL     1       3.205   5.596  17.232  0.00  0.00    +0.000 N 
ATOM      7  H   UNL     1       2.241   4.331  19.044  0.00  0.00    +0.000 HD
ATOM      8  H   UNL     1       3.673   5.862  16.359  0.00  0.00    +0.000 HD
ENDROOT
BRANCH   6   9
ATOM      9  C   UNL     1       2.716   6.745  17.922  0.00  0.00    +0.000 A 
ATOM     10  C   UNL     1       2.659   7.975  17.254  0.00  0.00    +0.000 A 
ATOM     11  C   UNL     1       2.171   9.123  17.897  0.00  0.00    +0.000 A 
ATOM     12  C   UNL     1       1.738   9.060  19.223  0.00  0.00    +0.000 A 
ATOM     13 CL   UNL     1       1.170  10.515  19.962  0.00  0.00    +0.000 Cl
ATOM     14  C   UNL     1       1.782   7.841  19.902  0.00  0.00    +0.000 A 
ATOM     15 CL   UNL     1       1.245   7.670  21.537  0.00  0.00    +0.000 Cl
ATOM     16  C   UNL     1       2.270   6.698  19.254  0.00  0.00    +0.000 A 
ENDBRANCH   6   9
BRANCH   5  17
ATOM     17  C   UNL     1       5.747   4.395  16.530  0.00  0.00    +0.000 A 
ATOM     18  N   UNL     1       5.813   3.945  15.293  0.00  0.00    +0.000 NA
ATOM     19  C   UNL     1       6.875   4.604  14.714  0.00  0.00    +0.000 A 
ATOM     20  C   UNL     1       7.440   5.500  15.589  0.00  0.00    +0.000 A 
ATOM     21  N   UNL     1       6.698   5.390  16.735  0.00  0.00    +0.000 N 
BRANCH  21  22
ATOM     22  C   UNL     1       6.877   6.153  17.971  0.00  0.00    +0.000 C 
ATOM     23  C   UNL     1       7.771   5.413  18.965  0.00  0.00    +0.000 C 
ATOM     24  C   UNL     1       7.409   7.571  17.733  0.00  0.00    +0.000 C 
ENDBRANCH  21  22
ENDBRANCH   5  17
BRANCH   1  26
ATOM     25  C   UNL     1       2.303   3.861  21.845  0.00  0.00    +0.000 C 
ATOM     26  C   UNL     1       2.713   2.698  20.939  0.00  0.00    +0.000 C 
ATOM     27  C   UNL     1       1.479   2.104  20.265  0.00  0.00    +0.000 C 
ENDBRANCH   1  26
TORSDOF 4
ENDMDL
MODEL 5
REMARK VINA RESULT:      -7.3      5.370      8.617
REMARK  Name = 
REMARK  8 active torsions:
REMARK  status: ('A' for Active; 'I' for Inactive)
REMARK    1  A    between atoms: C_1  and  C_2
REMARK    2  A    between atoms: C_2  and  C_3
REMARK    3  A    between atoms: C_2  and  C_4
REMARK    4  A    between atoms: N_8  and  C_9
REMARK    5  A    between atoms: N_13  and  C_14
REMARK    6  A    between atoms: C_14  and  C_15
REMARK    7  A    between atoms: C_14  and  C_16
REMARK    8  A    between atoms: N_17  and  C_18
REMARK                            x       y       z     vdW  Elec       q    Type
REMARK                         _______ _______ _______ _____ _____    ______ ____
ROOT
ATOM      1  C   UNL     1      -1.851  10.882  17.882  0.00  0.00    +0.000 C 
ATOM      2  O   UNL     1      -1.717  12.005  17.397  0.00  0.00    +0.000 OA
ATOM      3  N   UNL     1      -1.040  10.330  18.861  0.00  0.00    +0.000 N 
ATOM      4  C   UNL     1      -0.009  10.969  19.526  0.00  0.00    +0.000 C 
ATOM      5  N   UNL     1       0.005  12.252  19.439  0.00  0.00    +0.000 NA
ATOM      6  N   UNL     1       0.837  10.130  20.223  0.00  0.00    +0.000 N 
ATOM      7  H   UNL     1      -1.152   9.358  19.100  0.00  0.00    +0.000 HD
ATOM      8  H   UNL     1       1.493  10.659  20.808  0.00  0.00    +0.000 HD
ENDROOT
BRANCH   6   9
ATOM      9  C   UNL     1       1.476   9.001  19.629  0.00  0.00    +0.000 A 
ATOM     10  C   UNL     1       1.989   9.106  18.330  0.00  0.00    +0.000 A 
ATOM     11  C   UNL     1       2.634   8.020  17.719  0.00  0.00    +0.000 A 
ATOM     12  C   UNL     1       2.771   6.807  18.397  0.00  0.00    +0.000 A 
ATOM     13 CL   UNL     1       3.556   5.504  17.579  0.00  0.00    +0.000 Cl
ATOM     14  C   UNL     1       2.271   6.686  19.694  0.00  0.00    +0.000 A 
ATOM     15 CL   UNL     1       2.417   5.229  20.612  0.00  0.00    +0.000 Cl
ATOM     16  C   UNL     1       1.627   7.775  20.299  0.00  0.00    +0.000 A 
ENDBRANCH   6   9
BRANCH   5  17
ATOM     17  C   UNL     1       0.920  13.022  20.049  0.00  0.00    +0.000 A 
ATOM     18  N   UNL     1       2.225  13.107  19.887  0.00  0.00    +0.000 NA
ATOM     19  C   UNL     1       2.669  13.945  20.887  0.00  0.00    +0.000 A 
ATOM     20  C   UNL     1       1.622  14.414  21.643  0.00  0.00    +0.000 A 
ATOM     21  N   UNL     1       0.505  13.851  21.086  0.00  0.00    +0.000 N 
BRANCH  21  22
ATOM     22  C   UNL     1      -0.881  14.053  21.509  0.00  0.00    +0.000 C 
ATOM     23  C   UNL     1      -1.046  13.848  23.015  0.00  0.00    +0.000 C 
ATOM     24  C   UNL     1      -1.446  15.417  21.095  0.00  0.00    +0.000 C 
ENDBRANCH  21  22
ENDBRANCH   5  17
BRANCH   1  26
ATOM     25  C   UNL     1      -4.317  10.493  17.823  0.00  0.00    +0.000 C 
ATOM     26  C   UNL     1      -2.954   9.941  17.399  0.00  0.00    +0.000 C 
ATOM     27  C   UNL     1      -2.916   9.759  15.883  0.00  0.00    +0.000 C 
ENDBRANCH   1  26
TORSDOF 4
ENDMDL
MODEL 6
REMARK VINA RESULT:      -7.3      1.743      4.916
REMARK  Name = 
REMARK  8 active torsions:
REMARK  status: ('A' for Active; 'I' for Inactive)
REMARK    1  A    between atoms: C_1  and  C_2
REMARK    2  A    between atoms: C_2  and  C_3
REMARK    3  A    between atoms: C_2  and  C_4
REMARK    4  A    between atoms: N_8  and  C_9
REMARK    5  A    between atoms: N_13  and  C_14
REMARK    6  A    between atoms: C_14  and  C_15
REMARK    7  A    between atoms: C_14  and  C_16
REMARK    8  A    between atoms: N_17  and  C_18
REMARK                            x       y       z     vdW  Elec       q    Type
REMARK                         _______ _______ _______ _____ _____    ______ ____
ROOT
ATOM      1  C   UNL     1       4.419   5.715  17.021  0.00  0.00    +0.000 C 
ATOM      2  O   UNL     1       4.074   4.590  16.661  0.00  0.00    +0.000 OA
ATOM      3  N   UNL     1       4.042   6.327  18.207  0.00  0.00    +0.000 N 
ATOM      4  C   UNL     1       3.298   5.756  19.223  0.00  0.00    +0.000 C 
ATOM      5  N   UNL     1       3.202   4.474  19.195  0.00  0.00    +0.000 NA
ATOM      6  N   UNL     1       2.797   6.650  20.147  0.00  0.00    +0.000 N 
ATOM      7  H   UNL     1       4.272   7.297  18.351  0.00  0.00    +0.000 HD
ATOM      8  H   UNL     1       2.378   6.168  20.948  0.00  0.00    +0.000 HD
ENDROOT
BRANCH   6   9
ATOM      9  C   UNL     1       2.032   7.798  19.782  0.00  0.00    +0.000 A 
ATOM     10  C   UNL     1       2.064   8.253  18.457  0.00  0.00    +0.000 A 
ATOM     11  C   UNL     1       1.316   9.371  18.059  0.00  0.00    +0.000 A 
ATOM     12  C   UNL     1       0.526  10.058  18.984  0.00  0.00    +0.000 A 
ATOM     13 CL   UNL     1      -0.353  11.439  18.433  0.00  0.00    +0.000 Cl
ATOM     14  C   UNL     1       0.478   9.616  20.307  0.00  0.00    +0.000 A 
ATOM     15 CL   UNL     1      -0.490  10.394  21.510  0.00  0.00    +0.000 Cl
ATOM     16  C   UNL     1       1.228   8.498  20.698  0.00  0.00    +0.000 A 
ENDBRANCH   6   9
BRANCH   5  17
ATOM     17  C   UNL     1       2.540   3.764  20.123  0.00  0.00    +0.000 A 
ATOM     18  N   UNL     1       1.421   4.018  20.771  0.00  0.00    +0.000 NA
ATOM     19  C   UNL     1       1.303   3.019  21.713  0.00  0.00    +0.000 A 
ATOM     20  C   UNL     1       2.335   2.119  21.613  0.00  0.00    +0.000 A 
ATOM     21  N   UNL     1       3.104   2.576  20.578  0.00  0.00    +0.000 N 
BRANCH  21  22
ATOM     22  C   UNL     1       4.320   1.956  20.048  0.00  0.00    +0.000 C 
ATOM     23  C   UNL     1       5.064   1.166  21.124  0.00  0.00    +0.000 C 
ATOM     24  C   UNL     1       4.060   1.070  18.824  0.00  0.00    +0.000 C 
ENDBRANCH  21  22
ENDBRANCH   5  17
BRANCH   1  26
ATOM     25  C   UNL     1       6.418   7.210  16.988  0.00  0.00    +0.000 C 
ATOM     26  C   UNL     1       5.309   6.588  16.137  0.00  0.00    +0.000 C 
ATOM     27  C   UNL     1       5.921   5.789  14.989  0.00  0.00    +0.000 C 
ENDBRANCH   1  26
TORSDOF 4
ENDMDL
MODEL 7
REMARK VINA RESULT:      -7.2      5.262      8.029
REMARK  Name = 
REMARK  8 active torsions:
REMARK  status: ('A' for Active; 'I' for Inactive)
REMARK    1  A    between atoms: C_1  and  C_2
REMARK    2  A    between atoms: C_2  and  C_3
REMARK    3  A    between atoms: C_2  and  C_4
REMARK    4  A    between atoms: N_8  and  C_9
REMARK    5  A    between atoms: N_13  and  C_14
REMARK    6  A    between atoms: C_14  and  C_15
REMARK    7  A    between atoms: C_14  and  C_16
REMARK    8  A    between atoms: N_17  and  C_18
REMARK                            x       y       z     vdW  Elec       q    Type
REMARK                         _______ _______ _______ _____ _____    ______ ____
ROOT
ATOM      1  C   UNL     1      -1.897  11.007  17.915  0.00  0.00    +0.000 C 
ATOM      2  O   UNL     1      -1.711  12.142  17.478  0.00  0.00    +0.000 OA
ATOM      3  N   UNL     1      -1.176  10.416  18.941  0.00  0.00    +0.000 N 
ATOM      4  C   UNL     1      -0.196  11.020  19.708  0.00  0.00    +0.000 C 
ATOM      5  N   UNL     1      -0.162  12.305  19.662  0.00  0.00    +0.000 NA
ATOM      6  N   UNL     1       0.580  10.150  20.446  0.00  0.00    +0.000 N 
ATOM      7  H   UNL     1      -1.317   9.438  19.138  0.00  0.00    +0.000 HD
ATOM      8  H   UNL     1       1.190  10.652  21.099  0.00  0.00    +0.000 HD
ENDROOT
BRANCH   6   9
ATOM      9  C   UNL     1       1.253   9.031  19.872  0.00  0.00    +0.000 A 
ATOM     10  C   UNL     1       1.767   9.130  18.573  0.00  0.00    +0.000 A 
ATOM     11  C   UNL     1       2.446   8.054  17.981  0.00  0.00    +0.000 A 
ATOM     12  C   UNL     1       2.616   6.856  18.679  0.00  0.00    +0.000 A 
ATOM     13 CL   UNL     1       3.443   5.564  17.883  0.00  0.00    +0.000 Cl
ATOM     14  C   UNL     1       2.116   6.742  19.976  0.00  0.00    +0.000 A 
ATOM     15 CL   UNL     1       2.303   5.304  20.918  0.00  0.00    +0.000 Cl
ATOM     16  C   UNL     1       1.439   7.820  20.562  0.00  0.00    +0.000 A 
ENDBRANCH   6   9
BRANCH   5  17
ATOM     17  C   UNL     1       0.708  13.044  20.369  0.00  0.00    +0.000 A 
ATOM     18  N   UNL     1       0.761  13.323  21.656  0.00  0.00    +0.000 NA
ATOM     19  C   UNL     1       1.770  14.251  21.793  0.00  0.00    +0.000 A 
ATOM     20  C   UNL     1       2.373  14.511  20.586  0.00  0.00    +0.000 A 
ATOM     21  N   UNL     1       1.717  13.716  19.686  0.00  0.00    +0.000 N 
BRANCH  21  22
ATOM     22  C   UNL     1       1.995  13.600  18.253  0.00  0.00    +0.000 C 
ATOM     23  C   UNL     1       2.721  14.835  17.719  0.00  0.00    +0.000 C 
ATOM     24  C   UNL     1       2.774  12.330  17.891  0.00  0.00    +0.000 C 
ENDBRANCH  21  22
ENDBRANCH   5  17
BRANCH   1  26
ATOM     25  C   UNL     1      -4.353  10.632  17.673  0.00  0.00    +0.000 C 
ATOM     26  C   UNL     1      -2.966  10.096  17.313  0.00  0.00    +0.000 C 
ATOM     27  C   UNL     1      -2.827   9.989  15.797  0.00  0.00    +0.000 C 
ENDBRANCH   1  26
TORSDOF 4
ENDMDL
MODEL 8
REMARK VINA RESULT:      -7.2      1.222      2.221
REMARK  Name = 
REMARK  8 active torsions:
REMARK  status: ('A' for Active; 'I' for Inactive)
REMARK    1  A    between atoms: C_1  and  C_2
REMARK    2  A    between atoms: C_2  and  C_3
REMARK    3  A    between atoms: C_2  and  C_4
REMARK    4  A    between atoms: N_8  and  C_9
REMARK    5  A    between atoms: N_13  and  C_14
REMARK    6  A    between atoms: C_14  and  C_15
REMARK    7  A    between atoms: C_14  and  C_16
REMARK    8  A    between atoms: N_17  and  C_18
REMARK                            x       y       z     vdW  Elec       q    Type
REMARK                         _______ _______ _______ _____ _____    ______ ____
ROOT
ATOM      1  C   UNL     1       3.648   3.084  19.828  0.00  0.00    +0.000 C 
ATOM      2  O   UNL     1       4.834   2.757  19.817  0.00  0.00    +0.000 OA
ATOM      3  N   UNL     1       3.059   3.992  18.962  0.00  0.00    +0.000 N 
ATOM      4  C   UNL     1       3.669   4.612  17.887  0.00  0.00    +0.000 C 
ATOM      5  N   UNL     1       4.771   4.085  17.487  0.00  0.00    +0.000 NA
ATOM      6  N   UNL     1       2.979   5.691  17.373  0.00  0.00    +0.000 N 
ATOM      7  H   UNL     1       2.112   4.290  19.134  0.00  0.00    +0.000 HD
ATOM      8  H   UNL     1       3.398   6.023  16.498  0.00  0.00    +0.000 HD
ENDROOT
BRANCH   6   9
ATOM      9  C   UNL     1       2.533   6.783  18.176  0.00  0.00    +0.000 A 
ATOM     10  C   UNL     1       2.140   6.547  19.499  0.00  0.00    +0.000 A 
ATOM     11  C   UNL     1       1.709   7.599  20.322  0.00  0.00    +0.000 A 
ATOM     12  C   UNL     1       1.656   8.905  19.831  0.00  0.00    +0.000 A 
ATOM     13 CL   UNL     1       1.094  10.149  20.890  0.00  0.00    +0.000 Cl
ATOM     14  C   UNL     1       2.049   9.159  18.516  0.00  0.00    +0.000 A 
ATOM     15 CL   UNL     1       2.037  10.748  17.835  0.00  0.00    +0.000 Cl
ATOM     16  C   UNL     1       2.480   8.104  17.699  0.00  0.00    +0.000 A 
ENDBRANCH   6   9
BRANCH   5  17
ATOM     17  C   UNL     1       5.472   4.548  16.440  0.00  0.00    +0.000 A 
ATOM     18  N   UNL     1       5.358   4.311  15.149  0.00  0.00    +0.000 NA
ATOM     19  C   UNL     1       6.440   4.929  14.560  0.00  0.00    +0.000 A 
ATOM     20  C   UNL     1       7.202   5.589  15.493  0.00  0.00    +0.000 A 
ATOM     21  N   UNL     1       6.565   5.374  16.685  0.00  0.00    +0.000 N 
BRANCH  21  22
ATOM     22  C   UNL     1       6.963   5.889  17.997  0.00  0.00    +0.000 C 
ATOM     23  C   UNL     1       7.913   4.929  18.714  0.00  0.00    +0.000 C 
ATOM     24  C   UNL     1       7.576   7.293  17.933  0.00  0.00    +0.000 C 
ENDBRANCH  21  22
ENDBRANCH   5  17
BRANCH   1  26
ATOM     25  C   UNL     1       2.371   3.590  21.914  0.00  0.00    +0.000 C 
ATOM     26  C   UNL     1       2.683   2.516  20.869  0.00  0.00    +0.000 C 
ATOM     27  C   UNL     1       1.387   2.025  20.227  0.00  0.00    +0.000 C 
ENDBRANCH   1  26
TORSDOF 4
ENDMDL
MODEL 9
REMARK VINA RESULT:      -7.1      0.970      1.249
REMARK  Name = 
REMARK  8 active torsions:
REMARK  status: ('A' for Active; 'I' for Inactive)
REMARK    1  A    between atoms: C_1  and  C_2
REMARK    2  A    between atoms: C_2  and  C_3
REMARK    3  A    between atoms: C_2  and  C_4
REMARK    4  A    between atoms: N_8  and  C_9
REMARK    5  A    between atoms: N_13  and  C_14
REMARK    6  A    between atoms: C_14  and  C_15
REMARK    7  A    between atoms: C_14  and  C_16
REMARK    8  A    between atoms: N_17  and  C_18
REMARK                            x       y       z     vdW  Elec       q    Type
REMARK                         _______ _______ _______ _____ _____    ______ ____
ROOT
ATOM      1  C   UNL     1       2.486   3.863  19.681  0.00  0.00    +0.000 C 
ATOM      2  O   UNL     1       3.558   3.395  20.061  0.00  0.00    +0.000 OA
ATOM      3  N   UNL     1       2.339   5.022  18.935  0.00  0.00    +0.000 N 
ATOM      4  C   UNL     1       3.359   5.796  18.413  0.00  0.00    +0.000 C 
ATOM      5  N   UNL     1       4.517   5.239  18.365  0.00  0.00    +0.000 NA
ATOM      6  N   UNL     1       2.973   7.048  17.980  0.00  0.00    +0.000 N 
ATOM      7  H   UNL     1       1.414   5.393  18.784  0.00  0.00    +0.000 HD
ATOM      8  H   UNL     1       3.731   7.522  17.477  0.00  0.00    +0.000 HD
ENDROOT
BRANCH   6   9
ATOM      9  C   UNL     1       2.249   7.965  18.799  0.00  0.00    +0.000 A 
ATOM     10  C   UNL     1       1.985   7.633  20.134  0.00  0.00    +0.000 A 
ATOM     11  C   UNL     1       1.286   8.516  20.972  0.00  0.00    +0.000 A 
ATOM     12  C   UNL     1       0.835   9.744  20.485  0.00  0.00    +0.000 A 
ATOM     13 CL   UNL     1      -0.037  10.774  21.565  0.00  0.00    +0.000 Cl
ATOM     14  C   UNL     1       1.094  10.094  19.160  0.00  0.00    +0.000 A 
ATOM     15 CL   UNL     1       0.591  11.604  18.483  0.00  0.00    +0.000 Cl
ATOM     16  C   UNL     1       1.793   9.208  18.327  0.00  0.00    +0.000 A 
ENDBRANCH   6   9
BRANCH   5  17
ATOM     17  C   UNL     1       5.605   5.842  17.861  0.00  0.00    +0.000 A 
ATOM     18  N   UNL     1       6.402   6.758  18.373  0.00  0.00    +0.000 NA
ATOM     19  C   UNL     1       7.256   7.120  17.354  0.00  0.00    +0.000 A 
ATOM     20  C   UNL     1       7.010   6.388  16.218  0.00  0.00    +0.000 A 
ATOM     21  N   UNL     1       5.981   5.551  16.553  0.00  0.00    +0.000 N 
BRANCH  21  22
ATOM     22  C   UNL     1       5.356   4.542  15.696  0.00  0.00    +0.000 C 
ATOM     23  C   UNL     1       5.894   4.608  14.266  0.00  0.00    +0.000 C 
ATOM     24  C   UNL     1       5.487   3.117  16.246  0.00  0.00    +0.000 C 
ENDBRANCH  21  22
ENDBRANCH   5  17
BRANCH   1  26
ATOM     25  C   UNL     1       0.811   2.148  18.985  0.00  0.00    +0.000 C 
ATOM     26  C   UNL     1       1.160   3.196  20.044  0.00  0.00    +0.000 C 
ATOM     27  C   UNL     1       1.217   2.543  21.423  0.00  0.00    +0.000 C 
ENDBRANCH   1  26
TORSDOF 4
ENDMDL
