MODEL 1
REMARK VINA RESULT:      -6.9      0.000      0.000
REMARK  Name = 
REMARK  14 active torsions:
REMARK  status: ('A' for Active; 'I' for Inactive)
REMARK    1  A    between atoms: C_1  and  N_2
REMARK    2  A    between atoms: N_2  and  C_3
REMARK    3  A    between atoms: N_2  and  S_4
REMARK    4  A    between atoms: S_4  and  N_7
REMARK    5  A    between atoms: N_7  and  C_8
REMARK    6  A    between atoms: C_11  and  C_12
REMARK    7  A    between atoms: C_12  and  C_13
REMARK    8  A    between atoms: C_13  and  C_14
REMARK    9  A    between atoms: C_13  and  C_15
REMARK   10  A    between atoms: C_13  and  N_16
REMARK   11  A    between atoms: N_16  and  C_17
REMARK   12  A    between atoms: C_17  and  C_18
REMARK   13  A    between atoms: C_18  and  O_19
REMARK   14  A    between atoms: C_18  and  C_20
REMARK                            x       y       z     vdW  Elec       q    Type
REMARK                         _______ _______ _______ _____ _____    ______ ____
ROOT
ATOM      1  C   UNL     1       2.836   5.886  17.776  0.00  0.00    +0.000 C 
ENDROOT
BRANCH   1   5
ATOM      2  C   UNL     1       1.413   9.601  19.476  0.00  0.00    +0.000 A 
ATOM      3  C   UNL     1       1.647   8.507  20.305  0.00  0.00    +0.000 A 
ATOM      4  C   UNL     1       2.103   7.302  19.754  0.00  0.00    +0.000 A 
ATOM      5  C   UNL     1       2.348   7.191  18.376  0.00  0.00    +0.000 A 
ATOM      6  C   UNL     1       2.154   8.320  17.570  0.00  0.00    +0.000 A 
ATOM      7  C   UNL     1       1.673   9.510  18.112  0.00  0.00    +0.000 A 
BRANCH   2   8
ATOM      8  N   UNL     1       1.015  10.859  20.019  0.00  0.00    +0.000 N 
ATOM      9  H   UNL     1       1.284  11.657  19.444  0.00  0.00    +0.000 HD
BRANCH   8  10
ATOM     10  S   UNL     1      -0.637  10.995  20.341  0.00  0.00    +0.000 S 
ATOM     11  O   UNL     1      -0.913  10.777  21.742  0.00  0.00    +0.000 OA
ATOM     12  O   UNL     1      -1.330  10.276  19.300  0.00  0.00    +0.000 OA
BRANCH  10  14
ATOM     13  C   UNL     1      -0.407  13.021  18.676  0.00  0.00    +0.000 C 
ATOM     14  N   UNL     1      -0.851  12.660  20.046  0.00  0.00    +0.000 NA
ATOM     15  C   UNL     1      -2.219  13.168  20.305  0.00  0.00    +0.000 C 
ENDBRANCH  10  14
ENDBRANCH   8  10
ENDBRANCH   2   8
ENDBRANCH   1   5
BRANCH   1  16
ATOM     16  C   UNL     1       4.390   5.660  17.750  0.00  0.00    +0.000 C 
ATOM     17  C   UNL     1       4.690   4.564  16.704  0.00  0.00    +0.000 C 
ATOM     18  C   UNL     1       5.088   6.971  17.345  0.00  0.00    +0.000 C 
BRANCH  16  19
ATOM     19  N   UNL     1       4.835   5.183  19.076  0.00  0.00    +0.000 NA
ATOM     20  H   UNL     1       4.040   5.200  19.716  0.00  0.00    +0.000 HD
BRANCH  19  21
ATOM     21  C   UNL     1       5.452   3.849  19.134  0.00  0.00    +0.000 C 
BRANCH  21  22
ATOM     22  C   UNL     1       4.609   2.884  20.012  0.00  0.00    +0.000 C 
BRANCH  22  23
ATOM     23  C   UNL     1       3.115   2.863  19.752  0.00  0.00    +0.000 A 
ATOM     24  C   UNL     1       2.231   3.572  20.578  0.00  0.00    +0.000 A 
ATOM     25  C   UNL     1       0.868   3.603  20.290  0.00  0.00    +0.000 A 
ATOM     26  C   UNL     1       0.423   2.935  19.165  0.00  0.00    +0.000 A 
ATOM     27  N   UNL     1       1.232   2.244  18.339  0.00  0.00    +0.000 NA
ATOM     28  C   UNL     1       2.551   2.222  18.650  0.00  0.00    +0.000 A 
ENDBRANCH  22  23
BRANCH  22  29
ATOM     29  O   UNL     1       5.165   1.566  19.847  0.00  0.00    +0.000 OA
ATOM     30  H   UNL     1       4.762   1.026  20.547  0.00  0.00    +0.000 HD
ENDBRANCH  22  29
ENDBRANCH  21  22
ENDBRANCH  19  21
ENDBRANCH  16  19
ENDBRANCH   1  16
TORSDOF 10
ENDMDL
MODEL 2
REMARK VINA RESULT:      -6.9      1.426      1.744
REMARK  Name = 
REMARK  14 active torsions:
REMARK  status: ('A' for Active; 'I' for Inactive)
REMARK    1  A    between atoms: C_1  and  N_2
REMARK    2  A    between atoms: N_2  and  C_3
REMARK    3  A    between atoms: N_2  and  S_4
REMARK    4  A    between atoms: S_4  and  N_7
REMARK    5  A    between atoms: N_7  and  C_8
REMARK    6  A    between atoms: C_11  and  C_12
REMARK    7  A    between atoms: C_12  and  C_13
REMARK    8  A    between atoms: C_13  and  C_14
REMARK    9  A    between atoms: C_13  and  C_15
REMARK   10  A    between atoms: C_13  and  N_16
REMARK   11  A    between atoms: N_16  and  C_17
REMARK   12  A    between atoms: C_17  and  C_18
REMARK   13  A    between atoms: C_18  and  O_19
REMARK   14  A    between atoms: C_18  and  C_20
REMARK                            x       y       z     vdW  Elec       q    Type
REMARK                         _______ _______ _______ _____ _____    ______ ____
ROOT
ATOM      1  C   UNL     1       3.257   5.496  17.603  0.00  0.00    +0.000 C 
ENDROOT
BRANCH   1   5
ATOM      2  C   UNL     1       1.668   9.088  19.415  0.00  0.00    +0.000 A 
ATOM      3  C   UNL     1       1.820   7.937  20.183  0.00  0.00    +0.000 A 
ATOM      4  C   UNL     1       2.330   6.772  19.595  0.00  0.00    +0.000 A 
ATOM      5  C   UNL     1       2.710   6.758  18.244  0.00  0.00    +0.000 A 
ATOM      6  C   UNL     1       2.596   7.943  17.506  0.00  0.00    +0.000 A 
ATOM      7  C   UNL     1       2.063   9.094  18.081  0.00  0.00    +0.000 A 
BRANCH   2   8
ATOM      8  N   UNL     1       1.216  10.307  20.006  0.00  0.00    +0.000 N 
ATOM      9  H   UNL     1       1.417  11.134  19.443  0.00  0.00    +0.000 HD
BRANCH   8  10
ATOM     10  S   UNL     1      -0.427  10.336  20.389  0.00  0.00    +0.000 S 
ATOM     11  O   UNL     1      -0.662   9.803  21.711  0.00  0.00    +0.000 OA
ATOM     12  O   UNL     1      -1.140   9.857  19.230  0.00  0.00    +0.000 OA
BRANCH  10  14
ATOM     13  C   UNL     1      -1.875  12.342  21.290  0.00  0.00    +0.000 C 
ATOM     14  N   UNL     1      -0.671  12.020  20.482  0.00  0.00    +0.000 NA
ATOM     15  C   UNL     1       0.500  12.794  20.958  0.00  0.00    +0.000 C 
ENDBRANCH  10  14
ENDBRANCH   8  10
ENDBRANCH   2   8
ENDBRANCH   1   5
BRANCH   1  16
ATOM     16  C   UNL     1       4.812   5.284  17.677  0.00  0.00    +0.000 C 
ATOM     17  C   UNL     1       5.469   6.259  16.677  0.00  0.00    +0.000 C 
ATOM     18  C   UNL     1       5.300   5.594  19.104  0.00  0.00    +0.000 C 
BRANCH  16  19
ATOM     19  N   UNL     1       5.134   3.900  17.271  0.00  0.00    +0.000 NA
ATOM     20  H   UNL     1       5.899   3.555  17.853  0.00  0.00    +0.000 HD
BRANCH  19  21
ATOM     21  C   UNL     1       4.039   2.920  17.311  0.00  0.00    +0.000 C 
BRANCH  21  22
ATOM     22  C   UNL     1       4.090   2.081  18.618  0.00  0.00    +0.000 C 
BRANCH  22  23
ATOM     23  C   UNL     1       3.096   2.454  19.701  0.00  0.00    +0.000 A 
ATOM     24  C   UNL     1       1.784   2.830  19.377  0.00  0.00    +0.000 A 
ATOM     25  C   UNL     1       0.861   3.105  20.382  0.00  0.00    +0.000 A 
ATOM     26  C   UNL     1       1.268   2.978  21.696  0.00  0.00    +0.000 A 
ATOM     27  N   UNL     1       2.514   2.617  22.059  0.00  0.00    +0.000 NA
ATOM     28  C   UNL     1       3.396   2.367  21.060  0.00  0.00    +0.000 A 
ENDBRANCH  22  23
BRANCH  22  29
ATOM     29  O   UNL     1       3.928   0.701  18.243  0.00  0.00    +0.000 OA
ATOM     30  H   UNL     1       4.155   0.189  19.037  0.00  0.00    +0.000 HD
ENDBRANCH  22  29
ENDBRANCH  21  22
ENDBRANCH  19  21
ENDBRANCH  16  19
ENDBRANCH   1  16
TORSDOF 10
ENDMDL
MODEL 3
REMARK VINA RESULT:      -6.8      0.821      1.424
REMARK  Name = 
REMARK  14 active torsions:
REMARK  status: ('A' for Active; 'I' for Inactive)
REMARK    1  A    between atoms: C_1  and  N_2
REMARK    2  A    between atoms: N_2  and  C_3
REMARK    3  A    between atoms: N_2  and  S_4
REMARK    4  A    between atoms: S_4  and  N_7
REMARK    5  A    between atoms: N_7  and  C_8
REMARK    6  A    between atoms: C_11  and  C_12
REMARK    7  A    between atoms: C_12  and  C_13
REMARK    8  A    between atoms: C_13  and  C_14
REMARK    9  A    between atoms: C_13  and  C_15
REMARK   10  A    between atoms: C_13  and  N_16
REMARK   11  A    between atoms: N_16  and  C_17
REMARK   12  A    between atoms: C_17  and  C_18
REMARK   13  A    between atoms: C_18  and  O_19
REMARK   14  A    between atoms: C_18  and  C_20
REMARK                            x       y       z     vdW  Elec       q    Type
REMARK                         _______ _______ _______ _____ _____    ______ ____
ROOT
ATOM      1  C   UNL     1       2.835   5.900  17.734  0.00  0.00    +0.000 C 
ENDROOT
BRANCH   1   5
ATOM      2  C   UNL     1       1.429   9.523  19.633  0.00  0.00    +0.000 A 
ATOM      3  C   UNL     1       1.688   9.517  18.265  0.00  0.00    +0.000 A 
ATOM      4  C   UNL     1       2.149   8.345  17.651  0.00  0.00    +0.000 A 
ATOM      5  C   UNL     1       2.331   7.168  18.396  0.00  0.00    +0.000 A 
ATOM      6  C   UNL     1       2.015   7.187  19.760  0.00  0.00    +0.000 A 
ATOM      7  C   UNL     1       1.584   8.358  20.378  0.00  0.00    +0.000 A 
BRANCH   2   8
ATOM      8  N   UNL     1       0.894  10.683  20.271  0.00  0.00    +0.000 N 
ATOM      9  H   UNL     1       1.565  11.446  20.362  0.00  0.00    +0.000 HD
BRANCH   8  10
ATOM     10  S   UNL     1      -0.496  11.307  19.544  0.00  0.00    +0.000 S 
ATOM     11  O   UNL     1      -1.421  10.253  19.201  0.00  0.00    +0.000 OA
ATOM     12  O   UNL     1      -0.063  12.293  18.584  0.00  0.00    +0.000 OA
BRANCH  10  14
ATOM     13  C   UNL     1      -2.563  12.555  20.594  0.00  0.00    +0.000 C 
ATOM     14  N   UNL     1      -1.164  12.142  20.872  0.00  0.00    +0.000 NA
ATOM     15  C   UNL     1      -1.078  11.424  22.166  0.00  0.00    +0.000 C 
ENDBRANCH  10  14
ENDBRANCH   8  10
ENDBRANCH   2   8
ENDBRANCH   1   5
BRANCH   1  16
ATOM     16  C   UNL     1       4.390   5.673  17.735  0.00  0.00    +0.000 C 
ATOM     17  C   UNL     1       4.708   4.579  16.694  0.00  0.00    +0.000 C 
ATOM     18  C   UNL     1       5.095   6.985  17.345  0.00  0.00    +0.000 C 
BRANCH  16  19
ATOM     19  N   UNL     1       4.811   5.195  19.069  0.00  0.00    +0.000 NA
ATOM     20  H   UNL     1       4.005   5.218  19.697  0.00  0.00    +0.000 HD
BRANCH  19  21
ATOM     21  C   UNL     1       5.417   3.857  19.138  0.00  0.00    +0.000 C 
BRANCH  21  22
ATOM     22  C   UNL     1       4.568   2.906  20.026  0.00  0.00    +0.000 C 
BRANCH  22  23
ATOM     23  C   UNL     1       3.078   2.867  19.744  0.00  0.00    +0.000 A 
ATOM     24  C   UNL     1       2.170   3.538  20.576  0.00  0.00    +0.000 A 
ATOM     25  C   UNL     1       0.812   3.553  20.269  0.00  0.00    +0.000 A 
ATOM     26  C   UNL     1       0.394   2.908  19.121  0.00  0.00    +0.000 A 
ATOM     27  N   UNL     1       1.226   2.252  18.288  0.00  0.00    +0.000 NA
ATOM     28  C   UNL     1       2.541   2.245  18.617  0.00  0.00    +0.000 A 
ENDBRANCH  22  23
BRANCH  22  29
ATOM     29  O   UNL     1       5.137   1.589  19.902  0.00  0.00    +0.000 OA
ATOM     30  H   UNL     1       4.489   1.075  19.390  0.00  0.00    +0.000 HD
ENDBRANCH  22  29
ENDBRANCH  21  22
ENDBRANCH  19  21
ENDBRANCH  16  19
ENDBRANCH   1  16
TORSDOF 10
ENDMDL
MODEL 4
REMARK VINA RESULT:      -6.7      0.421      1.126
REMARK  Name = 
REMARK  14 active torsions:
REMARK  status: ('A' for Active; 'I' for Inactive)
REMARK    1  A    between atoms: C_1  and  N_2
REMARK    2  A    between atoms: N_2  and  C_3
REMARK    3  A    between atoms: N_2  and  S_4
REMARK    4  A    between atoms: S_4  and  N_7
REMARK    5  A    between atoms: N_7  and  C_8
REMARK    6  A    between atoms: C_11  and  C_12
REMARK    7  A    between atoms: C_12  and  C_13
REMARK    8  A    between atoms: C_13  and  C_14
REMARK    9  A    between atoms: C_13  and  C_15
REMARK   10  A    between atoms: C_13  and  N_16
REMARK   11  A    between atoms: N_16  and  C_17
REMARK   12  A    between atoms: C_17  and  C_18
REMARK   13  A    between atoms: C_18  and  O_19
REMARK   14  A    between atoms: C_18  and  C_20
REMARK                            x       y       z     vdW  Elec       q    Type
REMARK                         _______ _______ _______ _____ _____    ______ ____
ROOT
ATOM      1  C   UNL     1       2.812   5.838  17.828  0.00  0.00    +0.000 C 
ENDROOT
BRANCH   1   5
ATOM      2  C   UNL     1       1.523   9.639  19.441  0.00  0.00    +0.000 A 
ATOM      3  C   UNL     1       1.759   9.513  18.074  0.00  0.00    +0.000 A 
ATOM      4  C   UNL     1       2.181   8.284  17.553  0.00  0.00    +0.000 A 
ATOM      5  C   UNL     1       2.349   7.169  18.389  0.00  0.00    +0.000 A 
ATOM      6  C   UNL     1       2.057   7.308  19.752  0.00  0.00    +0.000 A 
ATOM      7  C   UNL     1       1.665   8.536  20.277  0.00  0.00    +0.000 A 
BRANCH   2   8
ATOM      8  N   UNL     1       1.026  10.860  19.988  0.00  0.00    +0.000 N 
ATOM      9  H   UNL     1       1.263  11.683  19.435  0.00  0.00    +0.000 HD
BRANCH   8  10
ATOM     10  S   UNL     1      -0.641  10.885  20.253  0.00  0.00    +0.000 S 
ATOM     11  O   UNL     1      -0.948  10.679  21.650  0.00  0.00    +0.000 OA
ATOM     12  O   UNL     1      -1.246  10.097  19.208  0.00  0.00    +0.000 OA
BRANCH  10  14
ATOM     13  C   UNL     1      -0.252  13.416  20.865  0.00  0.00    +0.000 C 
ATOM     14  N   UNL     1      -0.961  12.524  19.912  0.00  0.00    +0.000 NA
ATOM     15  C   UNL     1      -0.692  12.934  18.514  0.00  0.00    +0.000 C 
ENDBRANCH  10  14
ENDBRANCH   8  10
ENDBRANCH   2   8
ENDBRANCH   1   5
BRANCH   1  16
ATOM     16  C   UNL     1       4.364   5.619  17.721  0.00  0.00    +0.000 C 
ATOM     17  C   UNL     1       4.613   4.499  16.688  0.00  0.00    +0.000 C 
ATOM     18  C   UNL     1       5.030   6.924  17.245  0.00  0.00    +0.000 C 
BRANCH  16  19
ATOM     19  N   UNL     1       4.886   5.179  19.032  0.00  0.00    +0.000 NA
ATOM     20  H   UNL     1       4.142   5.262  19.727  0.00  0.00    +0.000 HD
BRANCH  19  21
ATOM     21  C   UNL     1       5.444   3.820  19.106  0.00  0.00    +0.000 C 
BRANCH  21  22
ATOM     22  C   UNL     1       4.627   2.935  20.088  0.00  0.00    +0.000 C 
BRANCH  22  23
ATOM     23  C   UNL     1       3.125   2.901  19.877  0.00  0.00    +0.000 A 
ATOM     24  C   UNL     1       2.263   3.620  20.718  0.00  0.00    +0.000 A 
ATOM     25  C   UNL     1       0.892   3.636  20.475  0.00  0.00    +0.000 A 
ATOM     26  C   UNL     1       0.415   2.944  19.378  0.00  0.00    +0.000 A 
ATOM     27  N   UNL     1       1.201   2.242  18.539  0.00  0.00    +0.000 NA
ATOM     28  C   UNL     1       2.530   2.234  18.807  0.00  0.00    +0.000 A 
ENDBRANCH  22  23
BRANCH  22  29
ATOM     29  O   UNL     1       5.174   1.606  20.016  0.00  0.00    +0.000 OA
ATOM     30  H   UNL     1       5.244   1.305  20.938  0.00  0.00    +0.000 HD
ENDBRANCH  22  29
ENDBRANCH  21  22
ENDBRANCH  19  21
ENDBRANCH  16  19
ENDBRANCH   1  16
TORSDOF 10
ENDMDL
MODEL 5
REMARK VINA RESULT:      -6.6      1.847      3.929
REMARK  Name = 
REMARK  14 active torsions:
REMARK  status: ('A' for Active; 'I' for Inactive)
REMARK    1  A    between atoms: C_1  and  N_2
REMARK    2  A    between atoms: N_2  and  C_3
REMARK    3  A    between atoms: N_2  and  S_4
REMARK    4  A    between atoms: S_4  and  N_7
REMARK    5  A    between atoms: N_7  and  C_8
REMARK    6  A    between atoms: C_11  and  C_12
REMARK    7  A    between atoms: C_12  and  C_13
REMARK    8  A    between atoms: C_13  and  C_14
REMARK    9  A    between atoms: C_13  and  C_15
REMARK   10  A    between atoms: C_13  and  N_16
REMARK   11  A    between atoms: N_16  and  C_17
REMARK   12  A    between atoms: C_17  and  C_18
REMARK   13  A    between atoms: C_18  and  O_19
REMARK   14  A    between atoms: C_18  and  C_20
REMARK                            x       y       z     vdW  Elec       q    Type
REMARK                         _______ _______ _______ _____ _____    ______ ____
ROOT
ATOM      1  C   UNL     1       3.482   5.661  19.604  0.00  0.00    +0.000 C 
ENDROOT
BRANCH   1   5
ATOM      2  C   UNL     1       1.150   9.281  19.194  0.00  0.00    +0.000 A 
ATOM      3  C   UNL     1       1.844   8.779  18.097  0.00  0.00    +0.000 A 
ATOM      4  C   UNL     1       2.604   7.610  18.231  0.00  0.00    +0.000 A 
ATOM      5  C   UNL     1       2.656   6.924  19.455  0.00  0.00    +0.000 A 
ATOM      6  C   UNL     1       1.908   7.421  20.530  0.00  0.00    +0.000 A 
ATOM      7  C   UNL     1       1.176   8.599  20.407  0.00  0.00    +0.000 A 
BRANCH   2   8
ATOM      8  N   UNL     1       0.314  10.432  19.068  0.00  0.00    +0.000 N 
ATOM      9  H   UNL     1      -0.624  10.220  18.728  0.00  0.00    +0.000 HD
BRANCH   8  10
ATOM     10  S   UNL     1       0.153  11.342  20.480  0.00  0.00    +0.000 S 
ATOM     11  O   UNL     1       1.445  11.730  20.998  0.00  0.00    +0.000 OA
ATOM     12  O   UNL     1      -0.836  10.684  21.297  0.00  0.00    +0.000 OA
BRANCH  10  14
ATOM     13  C   UNL     1       0.176  13.965  20.253  0.00  0.00    +0.000 C 
ATOM     14  N   UNL     1      -0.564  12.747  19.835  0.00  0.00    +0.000 NA
ATOM     15  C   UNL     1      -0.757  12.730  18.366  0.00  0.00    +0.000 C 
ENDBRANCH  10  14
ENDBRANCH   8  10
ENDBRANCH   2   8
ENDBRANCH   1   5
BRANCH   1  16
ATOM     16  C   UNL     1       2.845   4.333  19.057  0.00  0.00    +0.000 C 
ATOM     17  C   UNL     1       3.553   3.150  19.751  0.00  0.00    +0.000 C 
ATOM     18  C   UNL     1       1.343   4.313  19.395  0.00  0.00    +0.000 C 
BRANCH  16  19
ATOM     19  N   UNL     1       3.086   4.241  17.601  0.00  0.00    +0.000 NA
ATOM     20  H   UNL     1       3.272   5.178  17.239  0.00  0.00    +0.000 HD
BRANCH  19  21
ATOM     21  C   UNL     1       4.165   3.346  17.158  0.00  0.00    +0.000 C 
BRANCH  21  22
ATOM     22  C   UNL     1       5.192   4.106  16.275  0.00  0.00    +0.000 C 
BRANCH  22  23
ATOM     23  C   UNL     1       6.049   5.144  16.975  0.00  0.00    +0.000 A 
ATOM     24  C   UNL     1       6.862   4.792  18.061  0.00  0.00    +0.000 A 
ATOM     25  C   UNL     1       7.696   5.738  18.653  0.00  0.00    +0.000 A 
ATOM     26  C   UNL     1       7.710   7.016  18.128  0.00  0.00    +0.000 A 
ATOM     27  N   UNL     1       6.950   7.403  17.084  0.00  0.00    +0.000 NA
ATOM     28  C   UNL     1       6.140   6.465  16.536  0.00  0.00    +0.000 A 
ENDBRANCH  22  23
BRANCH  22  29
ATOM     29  O   UNL     1       6.022   3.116  15.641  0.00  0.00    +0.000 OA
ATOM     30  H   UNL     1       5.738   3.097  14.711  0.00  0.00    +0.000 HD
ENDBRANCH  22  29
ENDBRANCH  21  22
ENDBRANCH  19  21
ENDBRANCH  16  19
ENDBRANCH   1  16
TORSDOF 10
ENDMDL
MODEL 6
REMARK VINA RESULT:      -6.6      1.354      1.956
REMARK  Name = 
REMARK  14 active torsions:
REMARK  status: ('A' for Active; 'I' for Inactive)
REMARK    1  A    between atoms: C_1  and  N_2
REMARK    2  A    between atoms: N_2  and  C_3
REMARK    3  A    between atoms: N_2  and  S_4
REMARK    4  A    between atoms: S_4  and  N_7
REMARK    5  A    between atoms: N_7  and  C_8
REMARK    6  A    between atoms: C_11  and  C_12
REMARK    7  A    between atoms: C_12  and  C_13
REMARK    8  A    between atoms: C_13  and  C_14
REMARK    9  A    between atoms: C_13  and  C_15
REMARK   10  A    between atoms: C_13  and  N_16
REMARK   11  A    between atoms: N_16  and  C_17
REMARK   12  A    between atoms: C_17  and  C_18
REMARK   13  A    between atoms: C_18  and  O_19
REMARK   14  A    between atoms: C_18  and  C_20
REMARK                            x       y       z     vdW  Elec       q    Type
REMARK                         _______ _______ _______ _____ _____    ______ ____
ROOT
ATOM      1  C   UNL     1       3.076   5.761  17.606  0.00  0.00    +0.000 C 
ENDROOT
BRANCH   1   5
ATOM      2  C   UNL     1       1.462   9.219  19.642  0.00  0.00    +0.000 A 
ATOM      3  C   UNL     1       1.648   9.255  18.263  0.00  0.00    +0.000 A 
ATOM      4  C   UNL     1       2.176   8.137  17.604  0.00  0.00    +0.000 A 
ATOM      5  C   UNL     1       2.499   6.971  18.316  0.00  0.00    +0.000 A 
ATOM      6  C   UNL     1       2.254   6.942  19.695  0.00  0.00    +0.000 A 
ATOM      7  C   UNL     1       1.757   8.062  20.356  0.00  0.00    +0.000 A 
BRANCH   2   8
ATOM      8  N   UNL     1       0.862  10.318  20.328  0.00  0.00    +0.000 N 
ATOM      9  H   UNL     1       0.185  10.832  19.764  0.00  0.00    +0.000 HD
BRANCH   8  10
ATOM     10  S   UNL     1       0.112   9.913  21.785  0.00  0.00    +0.000 S 
ATOM     11  O   UNL     1       1.047   9.972  22.885  0.00  0.00    +0.000 OA
ATOM     12  O   UNL     1      -0.704   8.751  21.531  0.00  0.00    +0.000 OA
BRANCH  10  14
ATOM     13  C   UNL     1      -1.667  11.196  23.240  0.00  0.00    +0.000 C 
ATOM     14  N   UNL     1      -0.933  11.250  21.951  0.00  0.00    +0.000 NA
ATOM     15  C   UNL     1      -0.287  12.572  21.771  0.00  0.00    +0.000 C 
ENDBRANCH  10  14
ENDBRANCH   8  10
ENDBRANCH   2   8
ENDBRANCH   1   5
BRANCH   1  16
ATOM     16  C   UNL     1       4.633   5.571  17.687  0.00  0.00    +0.000 C 
ATOM     17  C   UNL     1       5.032   4.490  16.660  0.00  0.00    +0.000 C 
ATOM     18  C   UNL     1       5.326   6.901  17.340  0.00  0.00    +0.000 C 
BRANCH  16  19
ATOM     19  N   UNL     1       4.996   5.096  19.040  0.00  0.00    +0.000 NA
ATOM     20  H   UNL     1       4.166   5.131  19.634  0.00  0.00    +0.000 HD
BRANCH  19  21
ATOM     21  C   UNL     1       5.586   3.753  19.140  0.00  0.00    +0.000 C 
BRANCH  21  22
ATOM     22  C   UNL     1       4.718   2.829  20.037  0.00  0.00    +0.000 C 
BRANCH  22  23
ATOM     23  C   UNL     1       3.214   2.954  19.882  0.00  0.00    +0.000 A 
ATOM     24  C   UNL     1       2.554   2.389  18.782  0.00  0.00    +0.000 A 
ATOM     25  C   UNL     1       1.166   2.450  18.685  0.00  0.00    +0.000 A 
ATOM     26  C   UNL     1       0.466   3.064  19.707  0.00  0.00    +0.000 A 
ATOM     27  N   UNL     1       1.053   3.618  20.785  0.00  0.00    +0.000 NA
ATOM     28  C   UNL     1       2.406   3.553  20.848  0.00  0.00    +0.000 A 
ENDBRANCH  22  23
BRANCH  22  29
ATOM     29  O   UNL     1       5.137   1.475  19.783  0.00  0.00    +0.000 OA
ATOM     30  H   UNL     1       5.463   1.474  18.867  0.00  0.00    +0.000 HD
ENDBRANCH  22  29
ENDBRANCH  21  22
ENDBRANCH  19  21
ENDBRANCH  16  19
ENDBRANCH   1  16
TORSDOF 10
ENDMDL
MODEL 7
REMARK VINA RESULT:      -6.5      2.197      4.262
REMARK  Name = 
REMARK  14 active torsions:
REMARK  status: ('A' for Active; 'I' for Inactive)
REMARK    1  A    between atoms: C_1  and  N_2
REMARK    2  A    between atoms: N_2  and  C_3
REMARK    3  A    between atoms: N_2  and  S_4
REMARK    4  A    between atoms: S_4  and  N_7
REMARK    5  A    between atoms: N_7  and  C_8
REMARK    6  A    between atoms: C_11  and  C_12
REMARK    7  A    between atoms: C_12  and  C_13
REMARK    8  A    between atoms: C_13  and  C_14
REMARK    9  A    between atoms: C_13  and  C_15
REMARK   10  A    between atoms: C_13  and  N_16
REMARK   11  A    between atoms: N_16  and  C_17
REMARK   12  A    between atoms: C_17  and  C_18
REMARK   13  A    between atoms: C_18  and  O_19
REMARK   14  A    between atoms: C_18  and  C_20
REMARK                            x       y       z     vdW  Elec       q    Type
REMARK                         _______ _______ _______ _____ _____    ______ ____
ROOT
ATOM      1  C   UNL     1       3.304   4.069  19.476  0.00  0.00    +0.000 C 
ENDROOT
BRANCH   1   5
ATOM      2  C   UNL     1       1.670   8.057  19.837  0.00  0.00    +0.000 A 
ATOM      3  C   UNL     1       1.360   7.095  20.794  0.00  0.00    +0.000 A 
ATOM      4  C   UNL     1       1.885   5.802  20.675  0.00  0.00    +0.000 A 
ATOM      5  C   UNL     1       2.739   5.470  19.611  0.00  0.00    +0.000 A 
ATOM      6  C   UNL     1       3.076   6.469  18.689  0.00  0.00    +0.000 A 
ATOM      7  C   UNL     1       2.533   7.747  18.790  0.00  0.00    +0.000 A 
BRANCH   2   8
ATOM      8  N   UNL     1       1.204   9.400  19.971  0.00  0.00    +0.000 N 
ATOM      9  H   UNL     1       1.826   9.997  20.517  0.00  0.00    +0.000 HD
BRANCH   8  10
ATOM     10  S   UNL     1       0.894  10.187  18.510  0.00  0.00    +0.000 S 
ATOM     11  O   UNL     1      -0.077   9.461  17.725  0.00  0.00    +0.000 OA
ATOM     12  O   UNL     1       2.169  10.594  17.971  0.00  0.00    +0.000 OA
BRANCH  10  14
ATOM     13  C   UNL     1      -0.840  11.247  20.184  0.00  0.00    +0.000 C 
ATOM     14  N   UNL     1       0.113  11.584  19.096  0.00  0.00    +0.000 NA
ATOM     15  C   UNL     1       1.023  12.675  19.518  0.00  0.00    +0.000 C 
ENDBRANCH  10  14
ENDBRANCH   8  10
ENDBRANCH   2   8
ENDBRANCH   1   5
BRANCH   1  16
ATOM     16  C   UNL     1       2.679   3.161  18.357  0.00  0.00    +0.000 C 
ATOM     17  C   UNL     1       3.257   1.739  18.525  0.00  0.00    +0.000 C 
ATOM     18  C   UNL     1       1.149   3.125  18.527  0.00  0.00    +0.000 C 
BRANCH  16  19
ATOM     19  N   UNL     1       3.076   3.679  17.031  0.00  0.00    +0.000 NA
ATOM     20  H   UNL     1       2.876   4.680  16.995  0.00  0.00    +0.000 HD
BRANCH  19  21
ATOM     21  C   UNL     1       4.474   3.469  16.623  0.00  0.00    +0.000 C 
BRANCH  21  22
ATOM     22  C   UNL     1       5.118   4.797  16.138  0.00  0.00    +0.000 C 
BRANCH  22  23
ATOM     23  C   UNL     1       6.187   5.397  17.032  0.00  0.00    +0.000 A 
ATOM     24  C   UNL     1       6.577   6.736  16.889  0.00  0.00    +0.000 A 
ATOM     25  C   UNL     1       7.509   7.295  17.759  0.00  0.00    +0.000 A 
ATOM     26  C   UNL     1       8.018   6.501  18.769  0.00  0.00    +0.000 A 
ATOM     27  N   UNL     1       7.673   5.212  18.951  0.00  0.00    +0.000 NA
ATOM     28  C   UNL     1       6.772   4.691  18.082  0.00  0.00    +0.000 A 
ENDBRANCH  22  23
BRANCH  22  29
ATOM     29  O   UNL     1       5.643   4.557  14.820  0.00  0.00    +0.000 OA
ATOM     30  H   UNL     1       5.622   5.420  14.372  0.00  0.00    +0.000 HD
ENDBRANCH  22  29
ENDBRANCH  21  22
ENDBRANCH  19  21
ENDBRANCH  16  19
ENDBRANCH   1  16
TORSDOF 10
ENDMDL
MODEL 8
REMARK VINA RESULT:      -6.5      1.845      3.909
REMARK  Name = 
REMARK  14 active torsions:
REMARK  status: ('A' for Active; 'I' for Inactive)
REMARK    1  A    between atoms: C_1  and  N_2
REMARK    2  A    between atoms: N_2  and  C_3
REMARK    3  A    between atoms: N_2  and  S_4
REMARK    4  A    between atoms: S_4  and  N_7
REMARK    5  A    between atoms: N_7  and  C_8
REMARK    6  A    between atoms: C_11  and  C_12
REMARK    7  A    between atoms: C_12  and  C_13
REMARK    8  A    between atoms: C_13  and  C_14
REMARK    9  A    between atoms: C_13  and  C_15
REMARK   10  A    between atoms: C_13  and  N_16
REMARK   11  A    between atoms: N_16  and  C_17
REMARK   12  A    between atoms: C_17  and  C_18
REMARK   13  A    between atoms: C_18  and  O_19
REMARK   14  A    between atoms: C_18  and  C_20
REMARK                            x       y       z     vdW  Elec       q    Type
REMARK                         _______ _______ _______ _____ _____    ______ ____
ROOT
ATOM      1  C   UNL     1       3.155   5.098  19.915  0.00  0.00    +0.000 C 
ENDROOT
BRANCH   1   5
ATOM      2  C   UNL     1       1.635   9.048  19.021  0.00  0.00    +0.000 A 
ATOM      3  C   UNL     1       1.390   8.480  20.268  0.00  0.00    +0.000 A 
ATOM      4  C   UNL     1       1.878   7.199  20.556  0.00  0.00    +0.000 A 
ATOM      5  C   UNL     1       2.631   6.488  19.608  0.00  0.00    +0.000 A 
ATOM      6  C   UNL     1       2.907   7.102  18.380  0.00  0.00    +0.000 A 
ATOM      7  C   UNL     1       2.399   8.363  18.081  0.00  0.00    +0.000 A 
BRANCH   2   8
ATOM      8  N   UNL     1       1.209  10.379  18.726  0.00  0.00    +0.000 N 
ATOM      9  H   UNL     1       0.628  10.447  17.891  0.00  0.00    +0.000 HD
BRANCH   8  10
ATOM     10  S   UNL     1       0.390  11.150  19.984  0.00  0.00    +0.000 S 
ATOM     11  O   UNL     1       1.260  11.365  21.117  0.00  0.00    +0.000 OA
ATOM     12  O   UNL     1      -0.893  10.501  20.113  0.00  0.00    +0.000 OA
BRANCH  10  14
ATOM     13  C   UNL     1       1.380  13.210  18.679  0.00  0.00    +0.000 C 
ATOM     14  N   UNL     1       0.126  12.672  19.265  0.00  0.00    +0.000 NA
ATOM     15  C   UNL     1      -0.974  12.710  18.273  0.00  0.00    +0.000 C 
ENDBRANCH  10  14
ENDBRANCH   8  10
ENDBRANCH   2   8
ENDBRANCH   1   5
BRANCH   1  16
ATOM     16  C   UNL     1       2.521   3.910  19.106  0.00  0.00    +0.000 C 
ATOM     17  C   UNL     1       3.247   2.614  19.524  0.00  0.00    +0.000 C 
ATOM     18  C   UNL     1       1.024   3.803  19.450  0.00  0.00    +0.000 C 
BRANCH  16  19
ATOM     19  N   UNL     1       2.741   4.133  17.661  0.00  0.00    +0.000 NA
ATOM     20  H   UNL     1       2.669   5.133  17.467  0.00  0.00    +0.000 HD
BRANCH  19  21
ATOM     21  C   UNL     1       4.005   3.638  17.095  0.00  0.00    +0.000 C 
BRANCH  21  22
ATOM     22  C   UNL     1       4.800   4.789  16.417  0.00  0.00    +0.000 C 
BRANCH  22  23
ATOM     23  C   UNL     1       5.945   5.383  17.216  0.00  0.00    +0.000 A 
ATOM     24  C   UNL     1       6.545   6.588  16.826  0.00  0.00    +0.000 A 
ATOM     25  C   UNL     1       7.549   7.160  17.604  0.00  0.00    +0.000 A 
ATOM     26  C   UNL     1       7.918   6.516  18.770  0.00  0.00    +0.000 A 
ATOM     27  N   UNL     1       7.370   5.359  19.189  0.00  0.00    +0.000 NA
ATOM     28  C   UNL     1       6.403   4.820  18.407  0.00  0.00    +0.000 A 
ENDBRANCH  22  23
BRANCH  22  29
ATOM     29  O   UNL     1       5.275   4.289  15.154  0.00  0.00    +0.000 OA
ATOM     30  H   UNL     1       5.233   3.321  15.227  0.00  0.00    +0.000 HD
ENDBRANCH  22  29
ENDBRANCH  21  22
ENDBRANCH  19  21
ENDBRANCH  16  19
ENDBRANCH   1  16
TORSDOF 10
ENDMDL
MODEL 9
REMARK VINA RESULT:      -6.5      2.031      4.069
REMARK  Name = 
REMARK  14 active torsions:
REMARK  status: ('A' for Active; 'I' for Inactive)
REMARK    1  A    between atoms: C_1  and  N_2
REMARK    2  A    between atoms: N_2  and  C_3
REMARK    3  A    between atoms: N_2  and  S_4
REMARK    4  A    between atoms: S_4  and  N_7
REMARK    5  A    between atoms: N_7  and  C_8
REMARK    6  A    between atoms: C_11  and  C_12
REMARK    7  A    between atoms: C_12  and  C_13
REMARK    8  A    between atoms: C_13  and  C_14
REMARK    9  A    between atoms: C_13  and  C_15
REMARK   10  A    between atoms: C_13  and  N_16
REMARK   11  A    between atoms: N_16  and  C_17
REMARK   12  A    between atoms: C_17  and  C_18
REMARK   13  A    between atoms: C_18  and  O_19
REMARK   14  A    between atoms: C_18  and  C_20
REMARK                            x       y       z     vdW  Elec       q    Type
REMARK                         _______ _______ _______ _____ _____    ______ ____
ROOT
ATOM      1  C   UNL     1       3.280   5.764  19.806  0.00  0.00    +0.000 C 
ENDROOT
BRANCH   1   5
ATOM      2  C   UNL     1       0.897   9.367  19.566  0.00  0.00    +0.000 A 
ATOM      3  C   UNL     1       1.595   8.925  18.446  0.00  0.00    +0.000 A 
ATOM      4  C   UNL     1       2.371   7.761  18.525  0.00  0.00    +0.000 A 
ATOM      5  C   UNL     1       2.436   7.021  19.716  0.00  0.00    +0.000 A 
ATOM      6  C   UNL     1       1.683   7.459  20.814  0.00  0.00    +0.000 A 
ATOM      7  C   UNL     1       0.935   8.630  20.746  0.00  0.00    +0.000 A 
BRANCH   2   8
ATOM      8  N   UNL     1       0.045  10.510  19.493  0.00  0.00    +0.000 N 
ATOM      9  H   UNL     1      -0.800  10.427  20.058  0.00  0.00    +0.000 HD
BRANCH   8  10
ATOM     10  S   UNL     1       0.790  11.969  19.900  0.00  0.00    +0.000 S 
ATOM     11  O   UNL     1       1.264  12.657  18.720  0.00  0.00    +0.000 OA
ATOM     12  O   UNL     1       1.646  11.706  21.031  0.00  0.00    +0.000 OA
BRANCH  10  14
ATOM     13  C   UNL     1      -1.663  12.821  19.470  0.00  0.00    +0.000 C 
ATOM     14  N   UNL     1      -0.563  12.835  20.468  0.00  0.00    +0.000 NA
ATOM     15  C   UNL     1      -1.059  12.412  21.799  0.00  0.00    +0.000 C 
ENDBRANCH  10  14
ENDBRANCH   8  10
ENDBRANCH   2   8
ENDBRANCH   1   5
BRANCH   1  16
ATOM     16  C   UNL     1       2.632   4.440  19.262  0.00  0.00    +0.000 C 
ATOM     17  C   UNL     1       3.481   3.256  19.772  0.00  0.00    +0.000 C 
ATOM     18  C   UNL     1       1.194   4.320  19.796  0.00  0.00    +0.000 C 
BRANCH  16  19
ATOM     19  N   UNL     1       2.674   4.450  17.784  0.00  0.00    +0.000 NA
ATOM     20  H   UNL     1       2.580   5.414  17.458  0.00  0.00    +0.000 HD
BRANCH  19  21
ATOM     21  C   UNL     1       3.857   3.855  17.145  0.00  0.00    +0.000 C 
BRANCH  21  22
ATOM     22  C   UNL     1       4.723   4.944  16.453  0.00  0.00    +0.000 C 
BRANCH  22  23
ATOM     23  C   UNL     1       5.921   5.453  17.232  0.00  0.00    +0.000 A 
ATOM     24  C   UNL     1       6.423   6.744  17.019  0.00  0.00    +0.000 A 
ATOM     25  C   UNL     1       7.480   7.225  17.787  0.00  0.00    +0.000 A 
ATOM     26  C   UNL     1       8.000   6.404  18.771  0.00  0.00    +0.000 A 
ATOM     27  N   UNL     1       7.550   5.159  19.017  0.00  0.00    +0.000 NA
ATOM     28  C   UNL     1       6.529   4.712  18.246  0.00  0.00    +0.000 A 
ENDBRANCH  22  23
BRANCH  22  29
ATOM     29  O   UNL     1       5.141   4.410  15.183  0.00  0.00    +0.000 OA
ATOM     30  H   UNL     1       5.507   3.532  15.380  0.00  0.00    +0.000 HD
ENDBRANCH  22  29
ENDBRANCH  21  22
ENDBRANCH  19  21
ENDBRANCH  16  19
ENDBRANCH   1  16
TORSDOF 10
ENDMDL
