MODEL 1
REMARK VINA RESULT:      -9.0      0.000      0.000
REMARK  Name = 
REMARK  3 active torsions:
REMARK  status: ('A' for Active; 'I' for Inactive)
REMARK    1  A    between atoms: C_1  and  C_2
REMARK    2  A    between atoms: C_6  and  C_7
REMARK    3  A    between atoms: C_18  and  C_19
REMARK                            x       y       z     vdW  Elec       q    Type
REMARK                         _______ _______ _______ _____ _____    ______ ____
ROOT
ATOM      1  C   UNL     1       5.212   4.817  18.703  0.00  0.00    +0.000 A 
ATOM      2  N   UNL     1       6.117   4.987  19.707  0.00  0.00    +0.000 NA
ATOM      3  C   UNL     1       7.407   5.177  19.406  0.00  0.00    +0.000 A 
ATOM      4  N   UNL     1       8.283   5.368  20.479  0.00  0.00    +0.000 N 
ATOM      5  C   UNL     1       7.893   5.140  18.118  0.00  0.00    +0.000 A 
ATOM      6  C   UNL     1       7.002   4.944  17.066  0.00  0.00    +0.000 A 
ATOM      7  C   UNL     1       5.628   4.812  17.350  0.00  0.00    +0.000 A 
ATOM      8  C   UNL     1       4.682   4.654  16.176  0.00  0.00    +0.000 C 
ATOM      9  C   UNL     1       5.299   5.048  14.839  0.00  0.00    +0.000 C 
ATOM     10  C   UNL     1       6.644   4.366  14.702  0.00  0.00    +0.000 C 
ATOM     11  N   UNL     1       7.525   4.766  15.783  0.00  0.00    +0.000 N 
ATOM     12  H   UNL     1       7.707   5.413  21.321  0.00  0.00    +0.000 HD
ATOM     13  H   UNL     1       8.859   6.186  20.356  0.00  0.00    +0.000 HD
ATOM     14  H   UNL     1       8.319   5.349  15.541  0.00  0.00    +0.000 HD
ENDROOT
BRANCH   1  20
ATOM     15  C   UNL     1       0.816   2.125  19.060  0.00  0.00    +0.000 C 
ATOM     16  C   UNL     1       1.687   3.308  19.399  0.00  0.00    +0.000 A 
ATOM     17  C   UNL     1       1.105   4.369  20.102  0.00  0.00    +0.000 A 
ATOM     18  C   UNL     1       1.819   5.526  20.328  0.00  0.00    +0.000 A 
ATOM     19  C   UNL     1       3.115   5.645  19.828  0.00  0.00    +0.000 A 
ATOM     20  C   UNL     1       3.802   4.587  19.188  0.00  0.00    +0.000 A 
ATOM     21  C   UNL     1       3.052   3.388  18.982  0.00  0.00    +0.000 A 
ATOM     22  C   UNL     1       3.627   2.165  18.294  0.00  0.00    +0.000 C 
ENDBRANCH   1  20
TORSDOF 1
ENDMDL
MODEL 2
REMARK VINA RESULT:      -8.8      0.668      1.859
REMARK  Name = 
REMARK  3 active torsions:
REMARK  status: ('A' for Active; 'I' for Inactive)
REMARK    1  A    between atoms: C_1  and  C_2
REMARK    2  A    between atoms: C_6  and  C_7
REMARK    3  A    between atoms: C_18  and  C_19
REMARK                            x       y       z     vdW  Elec       q    Type
REMARK                         _______ _______ _______ _____ _____    ______ ____
ROOT
ATOM      1  C   UNL     1       5.312   4.367  18.224  0.00  0.00    +0.000 A 
ATOM      2  N   UNL     1       6.106   4.688  19.283  0.00  0.00    +0.000 NA
ATOM      3  C   UNL     1       7.289   5.276  19.065  0.00  0.00    +0.000 A 
ATOM      4  N   UNL     1       8.048   5.601  20.194  0.00  0.00    +0.000 N 
ATOM      5  C   UNL     1       7.789   5.516  17.804  0.00  0.00    +0.000 A 
ATOM      6  C   UNL     1       7.017   5.180  16.696  0.00  0.00    +0.000 A 
ATOM      7  C   UNL     1       5.737   4.625  16.898  0.00  0.00    +0.000 A 
ATOM      8  C   UNL     1       4.903   4.321  15.670  0.00  0.00    +0.000 C 
ATOM      9  C   UNL     1       5.404   5.015  14.407  0.00  0.00    +0.000 C 
ATOM     10  C   UNL     1       6.892   4.772  14.274  0.00  0.00    +0.000 C 
ATOM     11  N   UNL     1       7.595   5.297  15.430  0.00  0.00    +0.000 N 
ATOM     12  H   UNL     1       7.468   5.388  21.006  0.00  0.00    +0.000 HD
ATOM     13  H   UNL     1       8.360   6.560  20.176  0.00  0.00    +0.000 HD
ATOM     14  H   UNL     1       8.186   6.107  15.283  0.00  0.00    +0.000 HD
ENDROOT
BRANCH   1  20
ATOM     15  C   UNL     1       0.671   4.187  20.488  0.00  0.00    +0.000 C 
ATOM     16  C   UNL     1       1.780   3.577  19.670  0.00  0.00    +0.000 A 
ATOM     17  C   UNL     1       1.693   2.214  19.360  0.00  0.00    +0.000 A 
ATOM     18  C   UNL     1       2.737   1.578  18.725  0.00  0.00    +0.000 A 
ATOM     19  C   UNL     1       3.894   2.293  18.416  0.00  0.00    +0.000 A 
ATOM     20  C   UNL     1       4.023   3.687  18.614  0.00  0.00    +0.000 A 
ATOM     21  C   UNL     1       2.920   4.333  19.255  0.00  0.00    +0.000 A 
ATOM     22  C   UNL     1       2.901   5.818  19.563  0.00  0.00    +0.000 C 
ENDBRANCH   1  20
TORSDOF 1
ENDMDL
MODEL 3
REMARK VINA RESULT:      -8.3      1.607      3.585
REMARK  Name = 
REMARK  3 active torsions:
REMARK  status: ('A' for Active; 'I' for Inactive)
REMARK    1  A    between atoms: C_1  and  C_2
REMARK    2  A    between atoms: C_6  and  C_7
REMARK    3  A    between atoms: C_18  and  C_19
REMARK                            x       y       z     vdW  Elec       q    Type
REMARK                         _______ _______ _______ _____ _____    ______ ____
ROOT
ATOM      1  C   UNL     1       4.864   4.155  16.966  0.00  0.00    +0.000 A 
ATOM      2  N   UNL     1       4.710   3.867  15.643  0.00  0.00    +0.000 NA
ATOM      3  C   UNL     1       5.584   4.357  14.756  0.00  0.00    +0.000 A 
ATOM      4  N   UNL     1       5.385   4.007  13.417  0.00  0.00    +0.000 N 
ATOM      5  C   UNL     1       6.610   5.209  15.101  0.00  0.00    +0.000 A 
ATOM      6  C   UNL     1       6.785   5.546  16.440  0.00  0.00    +0.000 A 
ATOM      7  C   UNL     1       5.922   4.988  17.404  0.00  0.00    +0.000 A 
ATOM      8  C   UNL     1       6.176   5.335  18.857  0.00  0.00    +0.000 C 
ATOM      9  C   UNL     1       7.560   5.925  19.109  0.00  0.00    +0.000 C 
ATOM     10  C   UNL     1       7.807   7.035  18.110  0.00  0.00    +0.000 C 
ATOM     11  N   UNL     1       7.736   6.520  16.755  0.00  0.00    +0.000 N 
ATOM     12  H   UNL     1       4.616   3.336  13.402  0.00  0.00    +0.000 HD
ATOM     13  H   UNL     1       6.226   3.647  12.991  0.00  0.00    +0.000 HD
ATOM     14  H   UNL     1       8.600   6.486  16.227  0.00  0.00    +0.000 HD
ENDROOT
BRANCH   1  20
ATOM     15  C   UNL     1       0.887   4.428  20.253  0.00  0.00    +0.000 C 
ATOM     16  C   UNL     1       1.868   3.657  19.407  0.00  0.00    +0.000 A 
ATOM     17  C   UNL     1       1.903   2.264  19.550  0.00  0.00    +0.000 A 
ATOM     18  C   UNL     1       2.863   1.524  18.897  0.00  0.00    +0.000 A 
ATOM     19  C   UNL     1       3.818   2.171  18.113  0.00  0.00    +0.000 A 
ATOM     20  C   UNL     1       3.794   3.560  17.847  0.00  0.00    +0.000 A 
ATOM     21  C   UNL     1       2.777   4.308  18.517  0.00  0.00    +0.000 A 
ATOM     22  C   UNL     1       2.622   5.809  18.362  0.00  0.00    +0.000 C 
ENDBRANCH   1  20
TORSDOF 1
ENDMDL
MODEL 4
REMARK VINA RESULT:      -8.1      0.855      1.859
REMARK  Name = 
REMARK  3 active torsions:
REMARK  status: ('A' for Active; 'I' for Inactive)
REMARK    1  A    between atoms: C_1  and  C_2
REMARK    2  A    between atoms: C_6  and  C_7
REMARK    3  A    between atoms: C_18  and  C_19
REMARK                            x       y       z     vdW  Elec       q    Type
REMARK                         _______ _______ _______ _____ _____    ______ ____
ROOT
ATOM      1  C   UNL     1       5.288   4.623  18.787  0.00  0.00    +0.000 A 
ATOM      2  N   UNL     1       6.261   4.903  19.699  0.00  0.00    +0.000 NA
ATOM      3  C   UNL     1       7.511   5.136  19.279  0.00  0.00    +0.000 A 
ATOM      4  N   UNL     1       8.459   5.440  20.261  0.00  0.00    +0.000 N 
ATOM      5  C   UNL     1       7.892   5.037  17.959  0.00  0.00    +0.000 A 
ATOM      6  C   UNL     1       6.931   4.729  17.000  0.00  0.00    +0.000 A 
ATOM      7  C   UNL     1       5.594   4.549  17.406  0.00  0.00    +0.000 A 
ATOM      8  C   UNL     1       4.566   4.267  16.328  0.00  0.00    +0.000 C 
ATOM      9  C   UNL     1       5.051   4.602  14.922  0.00  0.00    +0.000 C 
ATOM     10  C   UNL     1       6.415   3.979  14.715  0.00  0.00    +0.000 C 
ATOM     11  N   UNL     1       7.358   4.493  15.691  0.00  0.00    +0.000 N 
ATOM     12  H   UNL     1       7.952   5.512  21.143  0.00  0.00    +0.000 HD
ATOM     13  H   UNL     1       8.978   6.276  20.038  0.00  0.00    +0.000 HD
ATOM     14  H   UNL     1       8.097   5.096  15.347  0.00  0.00    +0.000 HD
ENDROOT
BRANCH   1  20
ATOM     15  C   UNL     1       0.688   6.051  20.655  0.00  0.00    +0.000 C 
ATOM     16  C   UNL     1       1.711   5.008  20.282  0.00  0.00    +0.000 A 
ATOM     17  C   UNL     1       1.467   3.684  20.666  0.00  0.00    +0.000 A 
ATOM     18  C   UNL     1       2.424   2.714  20.462  0.00  0.00    +0.000 A 
ATOM     19  C   UNL     1       3.650   3.064  19.896  0.00  0.00    +0.000 A 
ATOM     20  C   UNL     1       3.937   4.357  19.402  0.00  0.00    +0.000 A 
ATOM     21  C   UNL     1       2.922   5.344  19.603  0.00  0.00    +0.000 A 
ATOM     22  C   UNL     1       3.075   6.785  19.154  0.00  0.00    +0.000 C 
ENDBRANCH   1  20
TORSDOF 1
ENDMDL
MODEL 5
REMARK VINA RESULT:      -7.9      1.244      1.960
REMARK  Name = 
REMARK  3 active torsions:
REMARK  status: ('A' for Active; 'I' for Inactive)
REMARK    1  A    between atoms: C_1  and  C_2
REMARK    2  A    between atoms: C_6  and  C_7
REMARK    3  A    between atoms: C_18  and  C_19
REMARK                            x       y       z     vdW  Elec       q    Type
REMARK                         _______ _______ _______ _____ _____    ______ ____
ROOT
ATOM      1  C   UNL     1       5.621   4.895  18.206  0.00  0.00    +0.000 A 
ATOM      2  N   UNL     1       6.483   5.611  18.981  0.00  0.00    +0.000 NA
ATOM      3  C   UNL     1       7.506   6.256  18.406  0.00  0.00    +0.000 A 
ATOM      4  N   UNL     1       8.341   6.991  19.252  0.00  0.00    +0.000 N 
ATOM      5  C   UNL     1       7.783   6.179  17.059  0.00  0.00    +0.000 A 
ATOM      6  C   UNL     1       6.939   5.437  16.238  0.00  0.00    +0.000 A 
ATOM      7  C   UNL     1       5.814   4.806  16.805  0.00  0.00    +0.000 A 
ATOM      8  C   UNL     1       4.888   4.051  15.873  0.00  0.00    +0.000 C 
ATOM      9  C   UNL     1       5.086   4.403  14.402  0.00  0.00    +0.000 C 
ATOM     10  C   UNL     1       6.562   4.325  14.076  0.00  0.00    +0.000 C 
ATOM     11  N   UNL     1       7.312   5.251  14.904  0.00  0.00    +0.000 N 
ATOM     12  H   UNL     1       7.922   6.953  20.182  0.00  0.00    +0.000 HD
ATOM     13  H   UNL     1       8.477   7.935  18.922  0.00  0.00    +0.000 HD
ATOM     14  H   UNL     1       7.729   6.051  14.443  0.00  0.00    +0.000 HD
ENDROOT
BRANCH   1  20
ATOM     15  C   UNL     1       0.997   4.651  20.497  0.00  0.00    +0.000 C 
ATOM     16  C   UNL     1       2.310   4.043  20.075  0.00  0.00    +0.000 A 
ATOM     17  C   UNL     1       2.631   2.772  20.567  0.00  0.00    +0.000 A 
ATOM     18  C   UNL     1       3.870   2.223  20.316  0.00  0.00    +0.000 A 
ATOM     19  C   UNL     1       4.813   2.953  19.592  0.00  0.00    +0.000 A 
ATOM     20  C   UNL     1       4.534   4.200  18.987  0.00  0.00    +0.000 A 
ATOM     21  C   UNL     1       3.236   4.742  19.241  0.00  0.00    +0.000 A 
ATOM     22  C   UNL     1       2.780   6.079  18.688  0.00  0.00    +0.000 C 
ENDBRANCH   1  20
TORSDOF 1
ENDMDL
MODEL 6
REMARK VINA RESULT:      -7.8      2.616      4.115
REMARK  Name = 
REMARK  3 active torsions:
REMARK  status: ('A' for Active; 'I' for Inactive)
REMARK    1  A    between atoms: C_1  and  C_2
REMARK    2  A    between atoms: C_6  and  C_7
REMARK    3  A    between atoms: C_18  and  C_19
REMARK                            x       y       z     vdW  Elec       q    Type
REMARK                         _______ _______ _______ _____ _____    ______ ____
ROOT
ATOM      1  C   UNL     1       3.288   5.498  18.044  0.00  0.00    +0.000 A 
ATOM      2  N   UNL     1       2.452   4.427  18.143  0.00  0.00    +0.000 NA
ATOM      3  C   UNL     1       2.882   3.218  17.762  0.00  0.00    +0.000 A 
ATOM      4  N   UNL     1       1.985   2.155  17.909  0.00  0.00    +0.000 N 
ATOM      5  C   UNL     1       4.120   3.003  17.198  0.00  0.00    +0.000 A 
ATOM      6  C   UNL     1       4.994   4.077  17.057  0.00  0.00    +0.000 A 
ATOM      7  C   UNL     1       4.594   5.348  17.516  0.00  0.00    +0.000 A 
ATOM      8  C   UNL     1       5.591   6.483  17.396  0.00  0.00    +0.000 C 
ATOM      9  C   UNL     1       7.022   6.013  17.155  0.00  0.00    +0.000 C 
ATOM     10  C   UNL     1       7.021   5.009  16.022  0.00  0.00    +0.000 C 
ATOM     11  N   UNL     1       6.185   3.872  16.356  0.00  0.00    +0.000 N 
ATOM     12  H   UNL     1       1.166   2.529  18.390  0.00  0.00    +0.000 HD
ATOM     13  H   UNL     1       2.401   1.375  18.395  0.00  0.00    +0.000 HD
ATOM     14  H   UNL     1       6.651   2.987  16.520  0.00  0.00    +0.000 HD
ENDROOT
BRANCH   1  20
ATOM     15  C   UNL     1       0.718   8.516  21.359  0.00  0.00    +0.000 C 
ATOM     16  C   UNL     1       1.455   8.281  20.065  0.00  0.00    +0.000 A 
ATOM     17  C   UNL     1       1.443   9.304  19.109  0.00  0.00    +0.000 A 
ATOM     18  C   UNL     1       1.992   9.096  17.863  0.00  0.00    +0.000 A 
ATOM     19  C   UNL     1       2.535   7.851  17.548  0.00  0.00    +0.000 A 
ATOM     20  C   UNL     1       2.664   6.799  18.485  0.00  0.00    +0.000 A 
ATOM     21  C   UNL     1       2.109   7.042  19.779  0.00  0.00    +0.000 A 
ATOM     22  C   UNL     1       2.141   6.016  20.895  0.00  0.00    +0.000 C 
ENDBRANCH   1  20
TORSDOF 1
ENDMDL
MODEL 7
REMARK VINA RESULT:      -7.5      2.602      4.234
REMARK  Name = 
REMARK  3 active torsions:
REMARK  status: ('A' for Active; 'I' for Inactive)
REMARK    1  A    between atoms: C_1  and  C_2
REMARK    2  A    between atoms: C_6  and  C_7
REMARK    3  A    between atoms: C_18  and  C_19
REMARK                            x       y       z     vdW  Elec       q    Type
REMARK                         _______ _______ _______ _____ _____    ______ ____
ROOT
ATOM      1  C   UNL     1       3.620   6.361  17.911  0.00  0.00    +0.000 A 
ATOM      2  N   UNL     1       4.842   6.807  17.507  0.00  0.00    +0.000 NA
ATOM      3  C   UNL     1       5.741   5.933  17.039  0.00  0.00    +0.000 A 
ATOM      4  N   UNL     1       6.968   6.455  16.619  0.00  0.00    +0.000 N 
ATOM      5  C   UNL     1       5.523   4.573  17.007  0.00  0.00    +0.000 A 
ATOM      6  C   UNL     1       4.295   4.076  17.433  0.00  0.00    +0.000 A 
ATOM      7  C   UNL     1       3.304   4.981  17.864  0.00  0.00    +0.000 A 
ATOM      8  C   UNL     1       1.961   4.409  18.272  0.00  0.00    +0.000 C 
ATOM      9  C   UNL     1       1.737   2.979  17.791  0.00  0.00    +0.000 C 
ATOM     10  C   UNL     1       2.949   2.148  18.155  0.00  0.00    +0.000 C 
ATOM     11  N   UNL     1       4.141   2.691  17.530  0.00  0.00    +0.000 N 
ATOM     12  H   UNL     1       6.889   7.471  16.678  0.00  0.00    +0.000 HD
ATOM     13  H   UNL     1       7.219   6.136  15.696  0.00  0.00    +0.000 HD
ATOM     14  H   UNL     1       4.566   2.144  16.791  0.00  0.00    +0.000 HD
ENDROOT
BRANCH   1  20
ATOM     15  C   UNL     1       0.447   8.461  21.407  0.00  0.00    +0.000 C 
ATOM     16  C   UNL     1       1.211   8.496  20.108  0.00  0.00    +0.000 A 
ATOM     17  C   UNL     1       0.962   9.558  19.230  0.00  0.00    +0.000 A 
ATOM     18  C   UNL     1       1.538   9.573  17.978  0.00  0.00    +0.000 A 
ATOM     19  C   UNL     1       2.348   8.511  17.579  0.00  0.00    +0.000 A 
ATOM     20  C   UNL     1       2.719   7.450  18.438  0.00  0.00    +0.000 A 
ATOM     21  C   UNL     1       2.129   7.464  19.740  0.00  0.00    +0.000 A 
ATOM     22  C   UNL     1       2.401   6.392  20.778  0.00  0.00    +0.000 C 
ENDBRANCH   1  20
TORSDOF 1
ENDMDL
MODEL 8
REMARK VINA RESULT:      -7.5      2.269      5.465
REMARK  Name = 
REMARK  3 active torsions:
REMARK  status: ('A' for Active; 'I' for Inactive)
REMARK    1  A    between atoms: C_1  and  C_2
REMARK    2  A    between atoms: C_6  and  C_7
REMARK    3  A    between atoms: C_18  and  C_19
REMARK                            x       y       z     vdW  Elec       q    Type
REMARK                         _______ _______ _______ _____ _____    ______ ____
ROOT
ATOM      1  C   UNL     1       3.912   4.905  19.322  0.00  0.00    +0.000 A 
ATOM      2  N   UNL     1       3.736   3.784  20.075  0.00  0.00    +0.000 NA
ATOM      3  C   UNL     1       2.730   3.733  20.956  0.00  0.00    +0.000 A 
ATOM      4  N   UNL     1       2.588   2.547  21.682  0.00  0.00    +0.000 N 
ATOM      5  C   UNL     1       1.888   4.796  21.200  0.00  0.00    +0.000 A 
ATOM      6  C   UNL     1       2.051   5.968  20.467  0.00  0.00    +0.000 A 
ATOM      7  C   UNL     1       3.058   6.024  19.482  0.00  0.00    +0.000 A 
ATOM      8  C   UNL     1       3.173   7.297  18.667  0.00  0.00    +0.000 C 
ATOM      9  C   UNL     1       1.940   8.190  18.757  0.00  0.00    +0.000 C 
ATOM     10  C   UNL     1       1.571   8.367  20.214  0.00  0.00    +0.000 C 
ATOM     11  N   UNL     1       1.287   7.082  20.824  0.00  0.00    +0.000 N 
ATOM     12  H   UNL     1       3.271   1.890  21.304  0.00  0.00    +0.000 HD
ATOM     13  H   UNL     1       1.643   2.192  21.647  0.00  0.00    +0.000 HD
ATOM     14  H   UNL     1       0.325   6.895  21.085  0.00  0.00    +0.000 HD
ENDROOT
BRANCH   1  20
ATOM     15  C   UNL     1       6.242   3.700  14.870  0.00  0.00    +0.000 C 
ATOM     16  C   UNL     1       6.240   4.290  16.257  0.00  0.00    +0.000 A 
ATOM     17  C   UNL     1       7.468   4.676  16.807  0.00  0.00    +0.000 A 
ATOM     18  C   UNL     1       7.540   5.103  18.115  0.00  0.00    +0.000 A 
ATOM     19  C   UNL     1       6.386   5.122  18.898  0.00  0.00    +0.000 A 
ATOM     20  C   UNL     1       5.098   4.833  18.392  0.00  0.00    +0.000 A 
ATOM     21  C   UNL     1       5.041   4.414  17.027  0.00  0.00    +0.000 A 
ATOM     22  C   UNL     1       3.744   4.046  16.331  0.00  0.00    +0.000 C 
ENDBRANCH   1  20
TORSDOF 1
ENDMDL
MODEL 9
REMARK VINA RESULT:      -7.4      2.428      3.470
REMARK  Name = 
REMARK  3 active torsions:
REMARK  status: ('A' for Active; 'I' for Inactive)
REMARK    1  A    between atoms: C_1  and  C_2
REMARK    2  A    between atoms: C_6  and  C_7
REMARK    3  A    between atoms: C_18  and  C_19
REMARK                            x       y       z     vdW  Elec       q    Type
REMARK                         _______ _______ _______ _____ _____    ______ ____
ROOT
ATOM      1  C   UNL     1       2.893   5.561  18.020  0.00  0.00    +0.000 A 
ATOM      2  N   UNL     1       2.289   6.768  18.209  0.00  0.00    +0.000 NA
ATOM      3  C   UNL     1       2.863   7.875  17.724  0.00  0.00    +0.000 A 
ATOM      4  N   UNL     1       2.183   9.079  17.931  0.00  0.00    +0.000 N 
ATOM      5  C   UNL     1       4.088   7.874  17.094  0.00  0.00    +0.000 A 
ATOM      6  C   UNL     1       4.748   6.663  16.903  0.00  0.00    +0.000 A 
ATOM      7  C   UNL     1       4.132   5.473  17.340  0.00  0.00    +0.000 A 
ATOM      8  C   UNL     1       4.855   4.169  17.068  0.00  0.00    +0.000 C 
ATOM      9  C   UNL     1       5.955   4.290  16.019  0.00  0.00    +0.000 C 
ATOM     10  C   UNL     1       6.833   5.474  16.367  0.00  0.00    +0.000 C 
ATOM     11  N   UNL     1       6.048   6.694  16.393  0.00  0.00    +0.000 N 
ATOM     12  H   UNL     1       1.289   8.839  18.360  0.00  0.00    +0.000 HD
ATOM     13  H   UNL     1       2.078   9.606  17.077  0.00  0.00    +0.000 HD
ATOM     14  H   UNL     1       6.223   7.373  15.661  0.00  0.00    +0.000 HD
ENDROOT
BRANCH   1  20
ATOM     15  C   UNL     1       1.342   2.648  21.995  0.00  0.00    +0.000 C 
ATOM     16  C   UNL     1       1.367   3.000  20.530  0.00  0.00    +0.000 A 
ATOM     17  C   UNL     1       0.777   2.104  19.631  0.00  0.00    +0.000 A 
ATOM     18  C   UNL     1       0.881   2.313  18.273  0.00  0.00    +0.000 A 
ATOM     19  C   UNL     1       1.602   3.409  17.798  0.00  0.00    +0.000 A 
ATOM     20  C   UNL     1       2.149   4.405  18.640  0.00  0.00    +0.000 A 
ATOM     21  C   UNL     1       2.011   4.181  20.045  0.00  0.00    +0.000 A 
ATOM     22  C   UNL     1       2.557   5.136  21.088  0.00  0.00    +0.000 C 
ENDBRANCH   1  20
TORSDOF 1
ENDMDL
