MODEL 1
REMARK VINA RESULT:      -9.5      0.000      0.000
REMARK  Name = 
REMARK  9 active torsions:
REMARK  status: ('A' for Active; 'I' for Inactive)
REMARK    1  A    between atoms: C_1  and  C_2
REMARK    2  A    between atoms: C_7  and  O_8
REMARK    3  A    between atoms: O_8  and  C_9
REMARK    4  A    between atoms: C_9  and  C_10
REMARK    5  A    between atoms: C_9  and  C_11
REMARK    6  A    between atoms: C_12  and  C_13
REMARK    7  A    between atoms: C_13  and  C_14
REMARK    8  A    between atoms: C_17  and  C_18
REMARK    9  A    between atoms: C_23  and  C_24
REMARK                            x       y       z     vdW  Elec       q    Type
REMARK                         _______ _______ _______ _____ _____    ______ ____
ROOT
ATOM      1  C   UNL     1       1.762   9.006  18.518  0.00  0.00    +0.000 A 
ATOM      2  C   UNL     1       2.479   8.094  17.738  0.00  0.00    +0.000 A 
ATOM      3  C   UNL     1       2.774   6.803  18.223  0.00  0.00    +0.000 A 
ATOM      4  C   UNL     1       2.400   6.383  19.515  0.00  0.00    +0.000 A 
ATOM      5  C   UNL     1       1.951   7.408  20.362  0.00  0.00    +0.000 A 
ATOM      6  C   UNL     1       1.596   8.680  19.868  0.00  0.00    +0.000 A 
ENDROOT
BRANCH   4   7
ATOM      7  C   UNL     1       2.390   4.922  19.906  0.00  0.00    +0.000 A 
ATOM      8  C   UNL     1       1.269   4.378  20.583  0.00  0.00    +0.000 A 
ATOM      9  C   UNL     1       1.239   3.060  21.075  0.00  0.00    +0.000 A 
ATOM     10  C   UNL     1       2.313   2.214  20.874  0.00  0.00    +0.000 A 
ATOM     11  C   UNL     1       3.424   2.690  20.190  0.00  0.00    +0.000 A 
ATOM     12  C   UNL     1       3.489   4.028  19.728  0.00  0.00    +0.000 A 
BRANCH  12  13
ATOM     13  C   UNL     1       4.765   4.395  19.131  0.00  0.00    +0.000 A 
ATOM     14  N   UNL     1       5.070   4.105  17.818  0.00  0.00    +0.000 NA
ATOM     15  N   UNL     1       6.297   4.559  17.603  0.00  0.00    +0.000 NA
ATOM     16  N   UNL     1       6.670   5.083  18.775  0.00  0.00    +0.000 N 
ATOM     17  N   UNL     1       5.795   4.962  19.780  0.00  0.00    +0.000 NA
ATOM     18  H   UNL     1       7.563   5.550  18.892  0.00  0.00    +0.000 HD
ENDBRANCH  12  13
ENDBRANCH   4   7
BRANCH   1  19
ATOM     19  C   UNL     1       1.224  10.314  17.942  0.00  0.00    +0.000 C 
BRANCH  19  27
ATOM     20  C   UNL     1      -6.220  11.594  17.929  0.00  0.00    +0.000 C 
ATOM     21  C   UNL     1      -4.825  11.714  18.470  0.00  0.00    +0.000 A 
ATOM     22  C   UNL     1      -4.678  12.585  19.615  0.00  0.00    +0.000 A 
ATOM     23  C   UNL     1      -3.494  12.701  20.215  0.00  0.00    +0.000 A 
ATOM     24  C   UNL     1      -2.329  12.009  19.631  0.00  0.00    +0.000 A 
ATOM     25  N   UNL     1      -1.200  12.240  20.182  0.00  0.00    +0.000 NA
ATOM     26  C   UNL     1      -0.047  11.866  19.571  0.00  0.00    +0.000 A 
ATOM     27  C   UNL     1      -0.007  10.918  18.614  0.00  0.00    +0.000 A 
ATOM     28  C   UNL     1      -1.361  10.519  18.068  0.00  0.00    +0.000 A 
ATOM     29  O   UNL     1      -1.443   9.648  17.198  0.00  0.00    +0.000 OA
ATOM     30  N   UNL     1      -2.482  11.211  18.537  0.00  0.00    +0.000 N 
ATOM     31  C   UNL     1      -3.751  11.066  17.974  0.00  0.00    +0.000 A 
BRANCH  26  32
ATOM     32  O   UNL     1       1.078  12.604  19.956  0.00  0.00    +0.000 OA
BRANCH  32  33
ATOM     33  C   UNL     1       1.225  13.806  19.147  0.00  0.00    +0.000 C 
ATOM     34  C   UNL     1       1.130  15.024  20.054  0.00  0.00    +0.000 C 
ATOM     35  C   UNL     1       2.474  13.782  18.282  0.00  0.00    +0.000 C 
ENDBRANCH  32  33
ENDBRANCH  26  32
ENDBRANCH  19  27
ENDBRANCH   1  19
TORSDOF 6
ENDMDL
MODEL 2
REMARK VINA RESULT:      -9.4      2.212      4.839
REMARK  Name = 
REMARK  9 active torsions:
REMARK  status: ('A' for Active; 'I' for Inactive)
REMARK    1  A    between atoms: C_1  and  C_2
REMARK    2  A    between atoms: C_7  and  O_8
REMARK    3  A    between atoms: O_8  and  C_9
REMARK    4  A    between atoms: C_9  and  C_10
REMARK    5  A    between atoms: C_9  and  C_11
REMARK    6  A    between atoms: C_12  and  C_13
REMARK    7  A    between atoms: C_13  and  C_14
REMARK    8  A    between atoms: C_17  and  C_18
REMARK    9  A    between atoms: C_23  and  C_24
REMARK                            x       y       z     vdW  Elec       q    Type
REMARK                         _______ _______ _______ _____ _____    ______ ____
ROOT
ATOM      1  C   UNL     1       1.165   9.194  19.997  0.00  0.00    +0.000 A 
ATOM      2  C   UNL     1       1.542   7.967  20.551  0.00  0.00    +0.000 A 
ATOM      3  C   UNL     1       2.255   7.019  19.789  0.00  0.00    +0.000 A 
ATOM      4  C   UNL     1       2.587   7.238  18.437  0.00  0.00    +0.000 A 
ATOM      5  C   UNL     1       1.945   8.335  17.842  0.00  0.00    +0.000 A 
ATOM      6  C   UNL     1       1.285   9.318  18.608  0.00  0.00    +0.000 A 
ENDROOT
BRANCH   4   7
ATOM      7  C   UNL     1       3.637   6.411  17.730  0.00  0.00    +0.000 A 
ATOM      8  C   UNL     1       4.702   7.051  17.047  0.00  0.00    +0.000 A 
ATOM      9  C   UNL     1       5.647   6.349  16.275  0.00  0.00    +0.000 A 
ATOM     10  C   UNL     1       5.593   4.970  16.189  0.00  0.00    +0.000 A 
ATOM     11  C   UNL     1       4.587   4.294  16.864  0.00  0.00    +0.000 A 
ATOM     12  C   UNL     1       3.600   4.988  17.608  0.00  0.00    +0.000 A 
BRANCH  12  13
ATOM     13  C   UNL     1       2.556   4.138  18.160  0.00  0.00    +0.000 A 
ATOM     14  N   UNL     1       1.353   3.942  17.515  0.00  0.00    +0.000 NA
ATOM     15  N   UNL     1       0.635   3.135  18.284  0.00  0.00    +0.000 NA
ATOM     16  N   UNL     1       1.419   2.895  19.340  0.00  0.00    +0.000 N 
ATOM     17  N   UNL     1       2.597   3.531  19.357  0.00  0.00    +0.000 NA
ATOM     18  H   UNL     1       1.139   2.261  20.082  0.00  0.00    +0.000 HD
ENDBRANCH  12  13
ENDBRANCH   4   7
BRANCH   1  19
ATOM     19  C   UNL     1       0.606  10.329  20.852  0.00  0.00    +0.000 C 
BRANCH  19  27
ATOM     20  C   UNL     1       2.165  17.697  20.268  0.00  0.00    +0.000 C 
ATOM     21  C   UNL     1       1.438  16.433  19.912  0.00  0.00    +0.000 A 
ATOM     22  C   UNL     1       0.363  16.585  18.956  0.00  0.00    +0.000 A 
ATOM     23  C   UNL     1      -0.295  15.513  18.519  0.00  0.00    +0.000 A 
ATOM     24  C   UNL     1       0.025  14.194  19.099  0.00  0.00    +0.000 A 
ATOM     25  N   UNL     1      -0.708  13.219  18.723  0.00  0.00    +0.000 NA
ATOM     26  C   UNL     1      -0.666  12.033  19.384  0.00  0.00    +0.000 A 
ATOM     27  C   UNL     1       0.373  11.672  20.163  0.00  0.00    +0.000 A 
ATOM     28  C   UNL     1       1.340  12.792  20.480  0.00  0.00    +0.000 A 
ATOM     29  O   UNL     1       2.336  12.569  21.174  0.00  0.00    +0.000 OA
ATOM     30  N   UNL     1       1.026  14.074  20.017  0.00  0.00    +0.000 N 
ATOM     31  C   UNL     1       1.735  15.212  20.404  0.00  0.00    +0.000 A 
BRANCH  26  32
ATOM     32  O   UNL     1      -1.825  11.260  19.258  0.00  0.00    +0.000 OA
BRANCH  32  33
ATOM     33  C   UNL     1      -2.338  11.292  17.895  0.00  0.00    +0.000 C 
ATOM     34  C   UNL     1      -1.880  10.036  17.167  0.00  0.00    +0.000 C 
ATOM     35  C   UNL     1      -3.840  11.519  17.839  0.00  0.00    +0.000 C 
ENDBRANCH  32  33
ENDBRANCH  26  32
ENDBRANCH  19  27
ENDBRANCH   1  19
TORSDOF 6
ENDMDL
MODEL 3
REMARK VINA RESULT:      -9.3      1.347      3.329
REMARK  Name = 
REMARK  9 active torsions:
REMARK  status: ('A' for Active; 'I' for Inactive)
REMARK    1  A    between atoms: C_1  and  C_2
REMARK    2  A    between atoms: C_7  and  O_8
REMARK    3  A    between atoms: O_8  and  C_9
REMARK    4  A    between atoms: C_9  and  C_10
REMARK    5  A    between atoms: C_9  and  C_11
REMARK    6  A    between atoms: C_12  and  C_13
REMARK    7  A    between atoms: C_13  and  C_14
REMARK    8  A    between atoms: C_17  and  C_18
REMARK    9  A    between atoms: C_23  and  C_24
REMARK                            x       y       z     vdW  Elec       q    Type
REMARK                         _______ _______ _______ _____ _____    ______ ____
ROOT
ATOM      1  C   UNL     1       1.998   9.049  18.555  0.00  0.00    +0.000 A 
ATOM      2  C   UNL     1       2.699   8.131  17.768  0.00  0.00    +0.000 A 
ATOM      3  C   UNL     1       2.882   6.800  18.201  0.00  0.00    +0.000 A 
ATOM      4  C   UNL     1       2.409   6.345  19.447  0.00  0.00    +0.000 A 
ATOM      5  C   UNL     1       1.979   7.356  20.321  0.00  0.00    +0.000 A 
ATOM      6  C   UNL     1       1.734   8.671  19.875  0.00  0.00    +0.000 A 
ENDROOT
BRANCH   4   7
ATOM      7  C   UNL     1       2.282   4.871  19.762  0.00  0.00    +0.000 A 
ATOM      8  C   UNL     1       1.110   4.379  20.390  0.00  0.00    +0.000 A 
ATOM      9  C   UNL     1       0.973   3.043  20.812  0.00  0.00    +0.000 A 
ATOM     10  C   UNL     1       1.986   2.130  20.584  0.00  0.00    +0.000 A 
ATOM     11  C   UNL     1       3.142   2.556  19.946  0.00  0.00    +0.000 A 
ATOM     12  C   UNL     1       3.316   3.908  19.555  0.00  0.00    +0.000 A 
BRANCH  12  13
ATOM     13  C   UNL     1       4.627   4.208  19.001  0.00  0.00    +0.000 A 
ATOM     14  N   UNL     1       5.611   4.831  19.741  0.00  0.00    +0.000 NA
ATOM     15  N   UNL     1       6.661   4.964  18.943  0.00  0.00    +0.000 NA
ATOM     16  N   UNL     1       6.267   4.434  17.780  0.00  0.00    +0.000 N 
ATOM     17  N   UNL     1       5.002   4.003  17.728  0.00  0.00    +0.000 NA
ATOM     18  H   UNL     1       6.896   4.359  16.987  0.00  0.00    +0.000 HD
ENDBRANCH  12  13
ENDBRANCH   4   7
BRANCH   1  19
ATOM     19  C   UNL     1       1.579  10.417  18.019  0.00  0.00    +0.000 C 
BRANCH  19  27
ATOM     20  C   UNL     1      -1.320  14.231  23.859  0.00  0.00    +0.000 C 
ATOM     21  C   UNL     1      -1.384  13.519  22.539  0.00  0.00    +0.000 A 
ATOM     22  C   UNL     1      -2.710  13.366  21.982  0.00  0.00    +0.000 A 
ATOM     23  C   UNL     1      -2.866  12.815  20.779  0.00  0.00    +0.000 A 
ATOM     24  C   UNL     1      -1.681  12.279  20.081  0.00  0.00    +0.000 A 
ATOM     25  N   UNL     1      -1.902  11.666  18.983  0.00  0.00    +0.000 NA
ATOM     26  C   UNL     1      -0.926  10.921  18.403  0.00  0.00    +0.000 A 
ATOM     27  C   UNL     1       0.381  11.090  18.686  0.00  0.00    +0.000 A 
ATOM     28  C   UNL     1       0.656  11.954  19.897  0.00  0.00    +0.000 A 
ATOM     29  O   UNL     1       1.819  12.187  20.237  0.00  0.00    +0.000 OA
ATOM     30  N   UNL     1      -0.442  12.411  20.633  0.00  0.00    +0.000 N 
ATOM     31  C   UNL     1      -0.312  13.051  21.867  0.00  0.00    +0.000 A 
BRANCH  26  32
ATOM     32  O   UNL     1      -1.396   9.910  17.558  0.00  0.00    +0.000 OA
BRANCH  32  33
ATOM     33  C   UNL     1      -2.728  10.214  17.056  0.00  0.00    +0.000 C 
ATOM     34  C   UNL     1      -2.706  10.156  15.535  0.00  0.00    +0.000 C 
ATOM     35  C   UNL     1      -3.805   9.347  17.687  0.00  0.00    +0.000 C 
ENDBRANCH  32  33
ENDBRANCH  26  32
ENDBRANCH  19  27
ENDBRANCH   1  19
TORSDOF 6
ENDMDL
MODEL 4
REMARK VINA RESULT:      -9.0      2.919      4.774
REMARK  Name = 
REMARK  9 active torsions:
REMARK  status: ('A' for Active; 'I' for Inactive)
REMARK    1  A    between atoms: C_1  and  C_2
REMARK    2  A    between atoms: C_7  and  O_8
REMARK    3  A    between atoms: O_8  and  C_9
REMARK    4  A    between atoms: C_9  and  C_10
REMARK    5  A    between atoms: C_9  and  C_11
REMARK    6  A    between atoms: C_12  and  C_13
REMARK    7  A    between atoms: C_13  and  C_14
REMARK    8  A    between atoms: C_17  and  C_18
REMARK    9  A    between atoms: C_23  and  C_24
REMARK                            x       y       z     vdW  Elec       q    Type
REMARK                         _______ _______ _______ _____ _____    ______ ____
ROOT
ATOM      1  C   UNL     1       1.398   9.445  18.781  0.00  0.00    +0.000 A 
ATOM      2  C   UNL     1       2.112   9.181  17.608  0.00  0.00    +0.000 A 
ATOM      3  C   UNL     1       2.700   7.917  17.390  0.00  0.00    +0.000 A 
ATOM      4  C   UNL     1       2.634   6.883  18.344  0.00  0.00    +0.000 A 
ATOM      5  C   UNL     1       2.173   7.276  19.610  0.00  0.00    +0.000 A 
ATOM      6  C   UNL     1       1.527   8.513  19.816  0.00  0.00    +0.000 A 
ENDROOT
BRANCH   4   7
ATOM      7  C   UNL     1       2.939   5.446  17.984  0.00  0.00    +0.000 A 
ATOM      8  C   UNL     1       1.919   4.465  18.062  0.00  0.00    +0.000 A 
ATOM      9  C   UNL     1       2.158   3.094  17.851  0.00  0.00    +0.000 A 
ATOM     10  C   UNL     1       3.423   2.650  17.512  0.00  0.00    +0.000 A 
ATOM     11  C   UNL     1       4.451   3.576  17.394  0.00  0.00    +0.000 A 
ATOM     12  C   UNL     1       4.236   4.954  17.647  0.00  0.00    +0.000 A 
BRANCH  12  13
ATOM     13  C   UNL     1       5.440   5.768  17.588  0.00  0.00    +0.000 A 
ATOM     14  N   UNL     1       5.795   6.472  16.456  0.00  0.00    +0.000 NA
ATOM     15  N   UNL     1       6.935   7.090  16.732  0.00  0.00    +0.000 NA
ATOM     16  N   UNL     1       7.214   6.729  17.990  0.00  0.00    +0.000 N 
ATOM     17  N   UNL     1       6.364   5.867  18.558  0.00  0.00    +0.000 NA
ATOM     18  H   UNL     1       8.021   7.096  18.484  0.00  0.00    +0.000 HD
ENDBRANCH  12  13
ENDBRANCH   4   7
BRANCH   1  19
ATOM     19  C   UNL     1       0.555  10.707  18.946  0.00  0.00    +0.000 C 
BRANCH  19  27
ATOM     20  C   UNL     1       5.221  16.644  18.764  0.00  0.00    +0.000 C 
ATOM     21  C   UNL     1       4.278  15.680  19.425  0.00  0.00    +0.000 A 
ATOM     22  C   UNL     1       4.128  15.844  20.854  0.00  0.00    +0.000 A 
ATOM     23  C   UNL     1       3.259  15.086  21.522  0.00  0.00    +0.000 A 
ATOM     24  C   UNL     1       2.537  14.022  20.798  0.00  0.00    +0.000 A 
ATOM     25  N   UNL     1       1.799  13.258  21.506  0.00  0.00    +0.000 NA
ATOM     26  C   UNL     1       1.305  12.106  20.986  0.00  0.00    +0.000 A 
ATOM     27  C   UNL     1       1.204  11.892  19.659  0.00  0.00    +0.000 A 
ATOM     28  C   UNL     1       1.946  12.895  18.802  0.00  0.00    +0.000 A 
ATOM     29  O   UNL     1       1.909  12.802  17.572  0.00  0.00    +0.000 OA
ATOM     30  N   UNL     1       2.710  13.868  19.454  0.00  0.00    +0.000 N 
ATOM     31  C   UNL     1       3.582  14.722  18.779  0.00  0.00    +0.000 A 
BRANCH  26  32
ATOM     32  O   UNL     1       0.991  11.129  21.938  0.00  0.00    +0.000 OA
BRANCH  32  33
ATOM     33  C   UNL     1      -0.449  10.967  22.076  0.00  0.00    +0.000 C 
ATOM     34  C   UNL     1      -0.734   9.601  22.685  0.00  0.00    +0.000 C 
ATOM     35  C   UNL     1      -1.101  12.119  22.823  0.00  0.00    +0.000 C 
ENDBRANCH  32  33
ENDBRANCH  26  32
ENDBRANCH  19  27
ENDBRANCH   1  19
TORSDOF 6
ENDMDL
MODEL 5
REMARK VINA RESULT:      -9.0      2.161      4.654
REMARK  Name = 
REMARK  9 active torsions:
REMARK  status: ('A' for Active; 'I' for Inactive)
REMARK    1  A    between atoms: C_1  and  C_2
REMARK    2  A    between atoms: C_7  and  O_8
REMARK    3  A    between atoms: O_8  and  C_9
REMARK    4  A    between atoms: C_9  and  C_10
REMARK    5  A    between atoms: C_9  and  C_11
REMARK    6  A    between atoms: C_12  and  C_13
REMARK    7  A    between atoms: C_13  and  C_14
REMARK    8  A    between atoms: C_17  and  C_18
REMARK    9  A    between atoms: C_23  and  C_24
REMARK                            x       y       z     vdW  Elec       q    Type
REMARK                         _______ _______ _______ _____ _____    ______ ____
ROOT
ATOM      1  C   UNL     1       0.937   8.951  19.745  0.00  0.00    +0.000 A 
ATOM      2  C   UNL     1       1.471   9.194  18.477  0.00  0.00    +0.000 A 
ATOM      3  C   UNL     1       2.409   8.308  17.906  0.00  0.00    +0.000 A 
ATOM      4  C   UNL     1       2.879   7.170  18.590  0.00  0.00    +0.000 A 
ATOM      5  C   UNL     1       2.550   7.122  19.953  0.00  0.00    +0.000 A 
ATOM      6  C   UNL     1       1.566   7.964  20.512  0.00  0.00    +0.000 A 
ENDROOT
BRANCH   4   7
ATOM      7  C   UNL     1       3.590   6.045  17.870  0.00  0.00    +0.000 A 
ATOM      8  C   UNL     1       4.508   6.338  16.831  0.00  0.00    +0.000 A 
ATOM      9  C   UNL     1       5.118   5.342  16.046  0.00  0.00    +0.000 A 
ATOM     10  C   UNL     1       4.868   4.005  16.296  0.00  0.00    +0.000 A 
ATOM     11  C   UNL     1       3.998   3.665  17.323  0.00  0.00    +0.000 A 
ATOM     12  C   UNL     1       3.341   4.657  18.093  0.00  0.00    +0.000 A 
BRANCH  12  13
ATOM     13  C   UNL     1       2.381   4.133  19.053  0.00  0.00    +0.000 A 
ATOM     14  N   UNL     1       2.764   3.661  20.291  0.00  0.00    +0.000 NA
ATOM     15  N   UNL     1       1.661   3.251  20.901  0.00  0.00    +0.000 NA
ATOM     16  N   UNL     1       0.685   3.481  20.017  0.00  0.00    +0.000 N 
ATOM     17  N   UNL     1       1.066   3.969  18.831  0.00  0.00    +0.000 NA
ATOM     18  H   UNL     1      -0.290   3.302  20.238  0.00  0.00    +0.000 HD
ENDBRANCH  12  13
ENDBRANCH   4   7
BRANCH   1  19
ATOM     19  C   UNL     1      -0.245   9.750  20.291  0.00  0.00    +0.000 C 
BRANCH  19  27
ATOM     20  C   UNL     1       1.948  16.848  21.652  0.00  0.00    +0.000 C 
ATOM     21  C   UNL     1       1.157  15.786  20.945  0.00  0.00    +0.000 A 
ATOM     22  C   UNL     1       0.191  16.269  19.985  0.00  0.00    +0.000 A 
ATOM     23  C   UNL     1      -0.508  15.404  19.252  0.00  0.00    +0.000 A 
ATOM     24  C   UNL     1      -0.350  13.960  19.510  0.00  0.00    +0.000 A 
ATOM     25  N   UNL     1      -1.121  13.181  18.855  0.00  0.00    +0.000 NA
ATOM     26  C   UNL     1      -1.236  11.874  19.204  0.00  0.00    +0.000 A 
ATOM     27  C   UNL     1      -0.305  11.235  19.940  0.00  0.00    +0.000 A 
ATOM     28  C   UNL     1       0.715  12.144  20.590  0.00  0.00    +0.000 A 
ATOM     29  O   UNL     1       1.622  11.662  21.275  0.00  0.00    +0.000 OA
ATOM     30  N   UNL     1       0.549  13.523  20.437  0.00  0.00    +0.000 N 
ATOM     31  C   UNL     1       1.308  14.459  21.141  0.00  0.00    +0.000 A 
BRANCH  26  32
ATOM     32  O   UNL     1      -2.437  11.274  18.810  0.00  0.00    +0.000 OA
BRANCH  32  33
ATOM     33  C   UNL     1      -2.557  11.228  17.360  0.00  0.00    +0.000 C 
ATOM     34  C   UNL     1      -1.966   9.919  16.859  0.00  0.00    +0.000 C 
ATOM     35  C   UNL     1      -3.976  11.484  16.880  0.00  0.00    +0.000 C 
ENDBRANCH  32  33
ENDBRANCH  26  32
ENDBRANCH  19  27
ENDBRANCH   1  19
TORSDOF 6
ENDMDL
MODEL 6
REMARK VINA RESULT:      -9.0      2.343      4.309
REMARK  Name = 
REMARK  9 active torsions:
REMARK  status: ('A' for Active; 'I' for Inactive)
REMARK    1  A    between atoms: C_1  and  C_2
REMARK    2  A    between atoms: C_7  and  O_8
REMARK    3  A    between atoms: O_8  and  C_9
REMARK    4  A    between atoms: C_9  and  C_10
REMARK    5  A    between atoms: C_9  and  C_11
REMARK    6  A    between atoms: C_12  and  C_13
REMARK    7  A    between atoms: C_13  and  C_14
REMARK    8  A    between atoms: C_17  and  C_18
REMARK    9  A    between atoms: C_23  and  C_24
REMARK                            x       y       z     vdW  Elec       q    Type
REMARK                         _______ _______ _______ _____ _____    ______ ____
ROOT
ATOM      1  C   UNL     1       1.238   9.301  18.887  0.00  0.00    +0.000 A 
ATOM      2  C   UNL     1       1.884   8.494  17.947  0.00  0.00    +0.000 A 
ATOM      3  C   UNL     1       2.337   7.203  18.291  0.00  0.00    +0.000 A 
ATOM      4  C   UNL     1       2.197   6.681  19.593  0.00  0.00    +0.000 A 
ATOM      5  C   UNL     1       1.817   7.618  20.567  0.00  0.00    +0.000 A 
ATOM      6  C   UNL     1       1.305   8.886  20.221  0.00  0.00    +0.000 A 
ENDROOT
BRANCH   4   7
ATOM      7  C   UNL     1       2.345   5.204  19.879  0.00  0.00    +0.000 A 
ATOM      8  C   UNL     1       1.323   4.512  20.575  0.00  0.00    +0.000 A 
ATOM      9  C   UNL     1       1.445   3.167  20.974  0.00  0.00    +0.000 A 
ATOM     10  C   UNL     1       2.578   2.444  20.654  0.00  0.00    +0.000 A 
ATOM     11  C   UNL     1       3.597   3.068  19.947  0.00  0.00    +0.000 A 
ATOM     12  C   UNL     1       3.510   4.434  19.578  0.00  0.00    +0.000 A 
BRANCH  12  13
ATOM     13  C   UNL     1       4.707   4.960  18.941  0.00  0.00    +0.000 A 
ATOM     14  N   UNL     1       4.878   4.942  17.572  0.00  0.00    +0.000 NA
ATOM     15  N   UNL     1       6.066   5.478  17.329  0.00  0.00    +0.000 NA
ATOM     16  N   UNL     1       6.550   5.781  18.538  0.00  0.00    +0.000 N 
ATOM     17  N   UNL     1       5.789   5.433  19.582  0.00  0.00    +0.000 NA
ATOM     18  H   UNL     1       7.441   6.253  18.655  0.00  0.00    +0.000 HD
ENDBRANCH  12  13
ENDBRANCH   4   7
BRANCH   1  19
ATOM     19  C   UNL     1       0.530  10.596  18.491  0.00  0.00    +0.000 C 
BRANCH  19  27
ATOM     20  C   UNL     1       5.007  16.103  21.074  0.00  0.00    +0.000 C 
ATOM     21  C   UNL     1       3.740  15.301  21.018  0.00  0.00    +0.000 A 
ATOM     22  C   UNL     1       2.742  15.650  22.005  0.00  0.00    +0.000 A 
ATOM     23  C   UNL     1       1.554  15.048  21.991  0.00  0.00    +0.000 A 
ATOM     24  C   UNL     1       1.318  13.959  21.023  0.00  0.00    +0.000 A 
ATOM     25  N   UNL     1       0.203  13.345  21.125  0.00  0.00    +0.000 NA
ATOM     26  C   UNL     1      -0.001  12.177  20.465  0.00  0.00    +0.000 A 
ATOM     27  C   UNL     1       0.734  11.808  19.397  0.00  0.00    +0.000 A 
ATOM     28  C   UNL     1       1.979  12.640  19.173  0.00  0.00    +0.000 A 
ATOM     29  O   UNL     1       2.717  12.398  18.214  0.00  0.00    +0.000 OA
ATOM     30  N   UNL     1       2.280  13.627  20.116  0.00  0.00    +0.000 N 
ATOM     31  C   UNL     1       3.489  14.324  20.122  0.00  0.00    +0.000 A 
BRANCH  26  32
ATOM     32  O   UNL     1      -0.976  11.351  21.036  0.00  0.00    +0.000 OA
BRANCH  32  33
ATOM     33  C   UNL     1      -0.909  11.380  22.490  0.00  0.00    +0.000 C 
ATOM     34  C   UNL     1      -2.227  11.913  23.033  0.00  0.00    +0.000 C 
ATOM     35  C   UNL     1      -0.496  10.044  23.085  0.00  0.00    +0.000 C 
ENDBRANCH  32  33
ENDBRANCH  26  32
ENDBRANCH  19  27
ENDBRANCH   1  19
TORSDOF 6
ENDMDL
MODEL 7
REMARK VINA RESULT:      -8.9      1.956      4.255
REMARK  Name = 
REMARK  9 active torsions:
REMARK  status: ('A' for Active; 'I' for Inactive)
REMARK    1  A    between atoms: C_1  and  C_2
REMARK    2  A    between atoms: C_7  and  O_8
REMARK    3  A    between atoms: O_8  and  C_9
REMARK    4  A    between atoms: C_9  and  C_10
REMARK    5  A    between atoms: C_9  and  C_11
REMARK    6  A    between atoms: C_12  and  C_13
REMARK    7  A    between atoms: C_13  and  C_14
REMARK    8  A    between atoms: C_17  and  C_18
REMARK    9  A    between atoms: C_23  and  C_24
REMARK                            x       y       z     vdW  Elec       q    Type
REMARK                         _______ _______ _______ _____ _____    ______ ____
ROOT
ATOM      1  C   UNL     1       1.127   9.073  20.114  0.00  0.00    +0.000 A 
ATOM      2  C   UNL     1       1.485   9.124  18.764  0.00  0.00    +0.000 A 
ATOM      3  C   UNL     1       2.071   8.008  18.129  0.00  0.00    +0.000 A 
ATOM      4  C   UNL     1       2.356   6.815  18.821  0.00  0.00    +0.000 A 
ATOM      5  C   UNL     1       2.257   6.904  20.218  0.00  0.00    +0.000 A 
ATOM      6  C   UNL     1       1.616   7.989  20.851  0.00  0.00    +0.000 A 
ENDROOT
BRANCH   4   7
ATOM      7  C   UNL     1       2.641   5.520  18.093  0.00  0.00    +0.000 A 
ATOM      8  C   UNL     1       1.627   4.536  17.975  0.00  0.00    +0.000 A 
ATOM      9  C   UNL     1       1.856   3.267  17.412  0.00  0.00    +0.000 A 
ATOM     10  C   UNL     1       3.099   2.942  16.902  0.00  0.00    +0.000 A 
ATOM     11  C   UNL     1       4.118   3.882  16.967  0.00  0.00    +0.000 A 
ATOM     12  C   UNL     1       3.917   5.148  17.572  0.00  0.00    +0.000 A 
BRANCH  12  13
ATOM     13  C   UNL     1       5.116   5.970  17.656  0.00  0.00    +0.000 A 
ATOM     14  N   UNL     1       5.394   6.956  16.733  0.00  0.00    +0.000 NA
ATOM     15  N   UNL     1       6.551   7.497  17.090  0.00  0.00    +0.000 NA
ATOM     16  N   UNL     1       6.913   6.818  18.184  0.00  0.00    +0.000 N 
ATOM     17  N   UNL     1       6.102   5.821  18.555  0.00  0.00    +0.000 NA
ATOM     18  H   UNL     1       7.752   7.053  18.706  0.00  0.00    +0.000 HD
ENDBRANCH  12  13
ENDBRANCH   4   7
BRANCH   1  19
ATOM     19  C   UNL     1       0.284  10.166  20.768  0.00  0.00    +0.000 C 
BRANCH  19  27
ATOM     20  C   UNL     1       2.401  17.392  20.171  0.00  0.00    +0.000 C 
ATOM     21  C   UNL     1       1.611  16.174  19.786  0.00  0.00    +0.000 A 
ATOM     22  C   UNL     1       0.617  16.381  18.756  0.00  0.00    +0.000 A 
ATOM     23  C   UNL     1      -0.084  15.348  18.292  0.00  0.00    +0.000 A 
ATOM     24  C   UNL     1       0.101  14.023  18.915  0.00  0.00    +0.000 A 
ATOM     25  N   UNL     1      -0.673  13.094  18.506  0.00  0.00    +0.000 NA
ATOM     26  C   UNL     1      -0.761  11.923  19.187  0.00  0.00    +0.000 A 
ATOM     27  C   UNL     1       0.194  11.506  20.042  0.00  0.00    +0.000 A 
ATOM     28  C   UNL     1       1.215  12.562  20.407  0.00  0.00    +0.000 A 
ATOM     29  O   UNL     1       2.143  12.285  21.172  0.00  0.00    +0.000 OA
ATOM     30  N   UNL     1       1.026  13.852  19.902  0.00  0.00    +0.000 N 
ATOM     31  C   UNL     1       1.786  14.947  20.318  0.00  0.00    +0.000 A 
BRANCH  26  32
ATOM     32  O   UNL     1      -1.961  11.229  18.994  0.00  0.00    +0.000 OA
BRANCH  32  33
ATOM     33  C   UNL     1      -2.319  11.172  17.583  0.00  0.00    +0.000 C 
ATOM     34  C   UNL     1      -1.828   9.853  17.004  0.00  0.00    +0.000 C 
ATOM     35  C   UNL     1      -3.796  11.436  17.342  0.00  0.00    +0.000 C 
ENDBRANCH  32  33
ENDBRANCH  26  32
ENDBRANCH  19  27
ENDBRANCH   1  19
TORSDOF 6
ENDMDL
MODEL 8
REMARK VINA RESULT:      -8.9      0.909      1.118
REMARK  Name = 
REMARK  9 active torsions:
REMARK  status: ('A' for Active; 'I' for Inactive)
REMARK    1  A    between atoms: C_1  and  C_2
REMARK    2  A    between atoms: C_7  and  O_8
REMARK    3  A    between atoms: O_8  and  C_9
REMARK    4  A    between atoms: C_9  and  C_10
REMARK    5  A    between atoms: C_9  and  C_11
REMARK    6  A    between atoms: C_12  and  C_13
REMARK    7  A    between atoms: C_13  and  C_14
REMARK    8  A    between atoms: C_17  and  C_18
REMARK    9  A    between atoms: C_23  and  C_24
REMARK                            x       y       z     vdW  Elec       q    Type
REMARK                         _______ _______ _______ _____ _____    ______ ____
ROOT
ATOM      1  C   UNL     1       2.107   8.965  18.409  0.00  0.00    +0.000 A 
ATOM      2  C   UNL     1       2.971   8.255  17.573  0.00  0.00    +0.000 A 
ATOM      3  C   UNL     1       3.202   6.877  17.774  0.00  0.00    +0.000 A 
ATOM      4  C   UNL     1       2.612   6.165  18.836  0.00  0.00    +0.000 A 
ATOM      5  C   UNL     1       1.996   6.964  19.813  0.00  0.00    +0.000 A 
ATOM      6  C   UNL     1       1.708   8.326  19.588  0.00  0.00    +0.000 A 
ENDROOT
BRANCH   4   7
ATOM      7  C   UNL     1       2.563   4.653  18.852  0.00  0.00    +0.000 A 
ATOM      8  C   UNL     1       1.318   3.986  18.966  0.00  0.00    +0.000 A 
ATOM      9  C   UNL     1       1.208   2.590  19.101  0.00  0.00    +0.000 A 
ATOM     10  C   UNL     1       2.339   1.795  19.084  0.00  0.00    +0.000 A 
ATOM     11  C   UNL     1       3.582   2.398  18.945  0.00  0.00    +0.000 A 
ATOM     12  C   UNL     1       3.713   3.806  18.854  0.00  0.00    +0.000 A 
BRANCH  12  13
ATOM     13  C   UNL     1       5.089   4.280  18.825  0.00  0.00    +0.000 A 
ATOM     14  N   UNL     1       5.670   4.912  19.905  0.00  0.00    +0.000 NA
ATOM     15  N   UNL     1       6.908   5.221  19.545  0.00  0.00    +0.000 NA
ATOM     16  N   UNL     1       7.011   4.777  18.288  0.00  0.00    +0.000 N 
ATOM     17  N   UNL     1       5.906   4.239  17.760  0.00  0.00    +0.000 NA
ATOM     18  H   UNL     1       7.881   4.839  17.768  0.00  0.00    +0.000 HD
ENDBRANCH  12  13
ENDBRANCH   4   7
BRANCH   1  19
ATOM     19  C   UNL     1       1.652  10.387  18.082  0.00  0.00    +0.000 C 
BRANCH  19  27
ATOM     20  C   UNL     1      -5.741  11.896  18.421  0.00  0.00    +0.000 C 
ATOM     21  C   UNL     1      -4.332  11.896  18.940  0.00  0.00    +0.000 A 
ATOM     22  C   UNL     1      -4.133  12.598  20.188  0.00  0.00    +0.000 A 
ATOM     23  C   UNL     1      -2.934  12.594  20.769  0.00  0.00    +0.000 A 
ATOM     24  C   UNL     1      -1.805  11.950  20.069  0.00  0.00    +0.000 A 
ATOM     25  N   UNL     1      -0.659  12.068  20.619  0.00  0.00    +0.000 NA
ATOM     26  C   UNL     1       0.468  11.743  19.935  0.00  0.00    +0.000 A 
ATOM     27  C   UNL     1       0.456  10.933  18.858  0.00  0.00    +0.000 A 
ATOM     28  C   UNL     1      -0.922  10.655  18.296  0.00  0.00    +0.000 A 
ATOM     29  O   UNL     1      -1.051   9.913  17.319  0.00  0.00    +0.000 OA
ATOM     30  N   UNL     1      -2.008  11.313  18.881  0.00  0.00    +0.000 N 
ATOM     31  C   UNL     1      -3.292  11.286  18.335  0.00  0.00    +0.000 A 
BRANCH  26  32
ATOM     32  O   UNL     1       1.626  12.386  20.388  0.00  0.00    +0.000 OA
BRANCH  32  33
ATOM     33  C   UNL     1       2.055  13.421  19.459  0.00  0.00    +0.000 C 
ATOM     34  C   UNL     1       0.936  14.442  19.309  0.00  0.00    +0.000 C 
ATOM     35  C   UNL     1       3.395  14.031  19.838  0.00  0.00    +0.000 C 
ENDBRANCH  32  33
ENDBRANCH  26  32
ENDBRANCH  19  27
ENDBRANCH   1  19
TORSDOF 6
ENDMDL
MODEL 9
REMARK VINA RESULT:      -8.8      1.675      3.396
REMARK  Name = 
REMARK  9 active torsions:
REMARK  status: ('A' for Active; 'I' for Inactive)
REMARK    1  A    between atoms: C_1  and  C_2
REMARK    2  A    between atoms: C_7  and  O_8
REMARK    3  A    between atoms: O_8  and  C_9
REMARK    4  A    between atoms: C_9  and  C_10
REMARK    5  A    between atoms: C_9  and  C_11
REMARK    6  A    between atoms: C_12  and  C_13
REMARK    7  A    between atoms: C_13  and  C_14
REMARK    8  A    between atoms: C_17  and  C_18
REMARK    9  A    between atoms: C_23  and  C_24
REMARK                            x       y       z     vdW  Elec       q    Type
REMARK                         _______ _______ _______ _____ _____    ______ ____
ROOT
ATOM      1  C   UNL     1       1.556   9.279  18.964  0.00  0.00    +0.000 A 
ATOM      2  C   UNL     1       1.421   8.569  20.159  0.00  0.00    +0.000 A 
ATOM      3  C   UNL     1       1.792   7.210  20.238  0.00  0.00    +0.000 A 
ATOM      4  C   UNL     1       2.274   6.497  19.122  0.00  0.00    +0.000 A 
ATOM      5  C   UNL     1       2.117   7.153  17.891  0.00  0.00    +0.000 A 
ATOM      6  C   UNL     1       1.809   8.527  17.812  0.00  0.00    +0.000 A 
ENDROOT
BRANCH   4   7
ATOM      7  C   UNL     1       2.997   5.177  19.271  0.00  0.00    +0.000 A 
ATOM      8  C   UNL     1       2.545   4.225  20.218  0.00  0.00    +0.000 A 
ATOM      9  C   UNL     1       3.234   3.028  20.488  0.00  0.00    +0.000 A 
ATOM     10  C   UNL     1       4.384   2.711  19.789  0.00  0.00    +0.000 A 
ATOM     11  C   UNL     1       4.852   3.598  18.829  0.00  0.00    +0.000 A 
ATOM     12  C   UNL     1       4.195   4.829  18.577  0.00  0.00    +0.000 A 
BRANCH  12  13
ATOM     13  C   UNL     1       4.878   5.688  17.622  0.00  0.00    +0.000 A 
ATOM     14  N   UNL     1       4.757   5.510  16.259  0.00  0.00    +0.000 NA
ATOM     15  N   UNL     1       5.507   6.441  15.685  0.00  0.00    +0.000 NA
ATOM     16  N   UNL     1       6.040   7.118  16.707  0.00  0.00    +0.000 N 
ATOM     17  N   UNL     1       5.742   6.668  17.932  0.00  0.00    +0.000 NA
ATOM     18  H   UNL     1       6.632   7.929  16.561  0.00  0.00    +0.000 HD
ENDBRANCH  12  13
ENDBRANCH   4   7
BRANCH   1  19
ATOM     19  C   UNL     1       1.391  10.797  18.903  0.00  0.00    +0.000 C 
BRANCH  19  27
ATOM     20  C   UNL     1      -3.350  13.174  24.281  0.00  0.00    +0.000 C 
ATOM     21  C   UNL     1      -2.957  12.840  22.871  0.00  0.00    +0.000 A 
ATOM     22  C   UNL     1      -4.016  12.946  21.892  0.00  0.00    +0.000 A 
ATOM     23  C   UNL     1      -3.751  12.743  20.603  0.00  0.00    +0.000 A 
ATOM     24  C   UNL     1      -2.395  12.314  20.212  0.00  0.00    +0.000 A 
ATOM     25  N   UNL     1      -2.225  12.030  18.979  0.00  0.00    +0.000 NA
ATOM     26  C   UNL     1      -1.103  11.385  18.570  0.00  0.00    +0.000 A 
ATOM     27  C   UNL     1       0.031  11.367  19.298  0.00  0.00    +0.000 A 
ATOM     28  C   UNL     1      -0.129  11.860  20.721  0.00  0.00    +0.000 A 
ATOM     29  O   UNL     1       0.849  11.900  21.472  0.00  0.00    +0.000 OA
ATOM     30  N   UNL     1      -1.415  12.196  21.152  0.00  0.00    +0.000 N 
ATOM     31  C   UNL     1      -1.716  12.478  22.486  0.00  0.00    +0.000 A 
BRANCH  26  32
ATOM     32  O   UNL     1      -1.249  10.671  17.374  0.00  0.00    +0.000 OA
BRANCH  32  33
ATOM     33  C   UNL     1      -2.643  10.613  16.959  0.00  0.00    +0.000 C 
ATOM     34  C   UNL     1      -2.704  10.656  15.438  0.00  0.00    +0.000 C 
ATOM     35  C   UNL     1      -3.388   9.438  17.569  0.00  0.00    +0.000 C 
ENDBRANCH  32  33
ENDBRANCH  26  32
ENDBRANCH  19  27
ENDBRANCH   1  19
TORSDOF 6
ENDMDL
