MODEL 1
REMARK VINA RESULT:      -8.1      0.000      0.000
REMARK  Name = 
REMARK  9 active torsions:
REMARK  status: ('A' for Active; 'I' for Inactive)
REMARK    1  A    between atoms: C_1  and  C_2
REMARK    2  A    between atoms: C_2  and  N_3
REMARK    3  A    between atoms: N_3  and  C_4
REMARK    4  A    between atoms: N_3  and  S_16
REMARK    5  A    between atoms: C_4  and  C_5
REMARK    6  A    between atoms: C_14  and  O_15
REMARK    7  A    between atoms: S_16  and  C_19
REMARK    8  A    between atoms: C_22  and  O_23
REMARK    9  A    between atoms: O_23  and  C_24
REMARK                            x       y       z     vdW  Elec       q    Type
REMARK                         _______ _______ _______ _____ _____    ______ ____
ROOT
ATOM      1  N   UNL     1       2.825   4.557  18.682  0.00  0.00    +0.000 NA
ENDROOT
BRANCH   1   2
ATOM      2  S   UNL     1       4.017   3.298  18.480  0.00  0.00    +0.000 S 
ATOM      3  O   UNL     1       4.818   3.150  19.676  0.00  0.00    +0.000 OA
ATOM      4  O   UNL     1       3.367   2.151  17.883  0.00  0.00    +0.000 OA
BRANCH   2   5
ATOM      5  C   UNL     1       5.104   4.005  17.259  0.00  0.00    +0.000 A 
ATOM      6  C   UNL     1       6.325   4.548  17.671  0.00  0.00    +0.000 A 
ATOM      7  C   UNL     1       7.226   5.019  16.716  0.00  0.00    +0.000 A 
ATOM      8  C   UNL     1       6.927   4.932  15.353  0.00  0.00    +0.000 A 
ATOM      9  C   UNL     1       5.710   4.376  14.949  0.00  0.00    +0.000 A 
ATOM     10  C   UNL     1       4.801   3.902  15.900  0.00  0.00    +0.000 A 
BRANCH   8  11
ATOM     11  O   UNL     1       7.870   5.465  14.520  0.00  0.00    +0.000 OA
ATOM     12  C   UNL     1       7.709   5.203  13.131  0.00  0.00    +0.000 C 
ENDBRANCH   8  11
ENDBRANCH   2   5
ENDBRANCH   1   2
BRANCH   1  14
ATOM     13  C   UNL     1       1.118   3.539  20.285  0.00  0.00    +0.000 C 
ATOM     14  C   UNL     1       1.451   3.953  18.862  0.00  0.00    +0.000 C 
ENDBRANCH   1  14
BRANCH   1  15
ATOM     15  C   UNL     1       3.167   5.539  19.760  0.00  0.00    +0.000 C 
BRANCH  15  16
ATOM     16  C   UNL     1       2.421   6.848  19.739  0.00  0.00    +0.000 A 
ATOM     17  C   UNL     1       1.655   7.305  20.814  0.00  0.00    +0.000 A 
ATOM     18  C   UNL     1       0.985   8.538  20.736  0.00  0.00    +0.000 A 
ATOM     19  C   UNL     1       0.223   9.053  21.802  0.00  0.00    +0.000 A 
ATOM     20  C   UNL     1      -0.419  10.286  21.687  0.00  0.00    +0.000 A 
ATOM     21  C   UNL     1      -0.322  11.005  20.502  0.00  0.00    +0.000 A 
ATOM     22  C   UNL     1       0.429  10.493  19.440  0.00  0.00    +0.000 A 
ATOM     23  C   UNL     1       1.096   9.279  19.535  0.00  0.00    +0.000 A 
ATOM     24  N   UNL     1       1.831   8.856  18.495  0.00  0.00    +0.000 NA
ATOM     25  C   UNL     1       2.464   7.677  18.630  0.00  0.00    +0.000 A 
BRANCH  25  26
ATOM     26  O   UNL     1       3.186   7.346  17.532  0.00  0.00    +0.000 OA
ATOM     27  H   UNL     1       2.908   8.068  16.938  0.00  0.00    +0.000 HD
ENDBRANCH  25  26
ENDBRANCH  15  16
ENDBRANCH   1  15
TORSDOF 7
ENDMDL
MODEL 2
REMARK VINA RESULT:      -8.0      0.447      1.063
REMARK  Name = 
REMARK  9 active torsions:
REMARK  status: ('A' for Active; 'I' for Inactive)
REMARK    1  A    between atoms: C_1  and  C_2
REMARK    2  A    between atoms: C_2  and  N_3
REMARK    3  A    between atoms: N_3  and  C_4
REMARK    4  A    between atoms: N_3  and  S_16
REMARK    5  A    between atoms: C_4  and  C_5
REMARK    6  A    between atoms: C_14  and  O_15
REMARK    7  A    between atoms: S_16  and  C_19
REMARK    8  A    between atoms: C_22  and  O_23
REMARK    9  A    between atoms: O_23  and  C_24
REMARK                            x       y       z     vdW  Elec       q    Type
REMARK                         _______ _______ _______ _____ _____    ______ ____
ROOT
ATOM      1  N   UNL     1       2.799   4.441  18.772  0.00  0.00    +0.000 NA
ENDROOT
BRANCH   1   2
ATOM      2  S   UNL     1       4.020   3.194  18.715  0.00  0.00    +0.000 S 
ATOM      3  O   UNL     1       4.736   3.116  19.969  0.00  0.00    +0.000 OA
ATOM      4  O   UNL     1       3.430   2.010  18.128  0.00  0.00    +0.000 OA
BRANCH   2   5
ATOM      5  C   UNL     1       5.181   3.862  17.541  0.00  0.00    +0.000 A 
ATOM      6  C   UNL     1       4.855   3.848  16.181  0.00  0.00    +0.000 A 
ATOM      7  C   UNL     1       5.712   4.453  15.261  0.00  0.00    +0.000 A 
ATOM      8  C   UNL     1       6.881   5.089  15.691  0.00  0.00    +0.000 A 
ATOM      9  C   UNL     1       7.193   5.109  17.053  0.00  0.00    +0.000 A 
ATOM     10  C   UNL     1       6.339   4.506  17.982  0.00  0.00    +0.000 A 
BRANCH   8  11
ATOM     11  O   UNL     1       7.658   5.605  14.692  0.00  0.00    +0.000 OA
ATOM     12  C   UNL     1       7.461   5.061  13.392  0.00  0.00    +0.000 C 
ENDBRANCH   8  11
ENDBRANCH   2   5
ENDBRANCH   1   2
BRANCH   1  14
ATOM     13  C   UNL     1       0.948   3.553  20.291  0.00  0.00    +0.000 C 
ATOM     14  C   UNL     1       1.424   3.823  18.873  0.00  0.00    +0.000 C 
ENDBRANCH   1  14
BRANCH   1  15
ATOM     15  C   UNL     1       3.045   5.473  19.829  0.00  0.00    +0.000 C 
BRANCH  15  16
ATOM     16  C   UNL     1       2.446   6.835  19.592  0.00  0.00    +0.000 A 
ATOM     17  C   UNL     1       1.651   7.491  20.535  0.00  0.00    +0.000 A 
ATOM     18  C   UNL     1       1.123   8.764  20.257  0.00  0.00    +0.000 A 
ATOM     19  C   UNL     1       0.340   9.476  21.186  0.00  0.00    +0.000 A 
ATOM     20  C   UNL     1      -0.157  10.741  20.873  0.00  0.00    +0.000 A 
ATOM     21  C   UNL     1       0.108  11.298  19.628  0.00  0.00    +0.000 A 
ATOM     22  C   UNL     1       0.880  10.590  18.703  0.00  0.00    +0.000 A 
ATOM     23  C   UNL     1       1.405   9.338  18.995  0.00  0.00    +0.000 A 
ATOM     24  N   UNL     1       2.170   8.723  18.080  0.00  0.00    +0.000 NA
ATOM     25  C   UNL     1       2.662   7.514  18.405  0.00  0.00    +0.000 A 
BRANCH  25  26
ATOM     26  O   UNL     1       3.428   6.984  17.420  0.00  0.00    +0.000 OA
ATOM     27  H   UNL     1       4.223   7.539  17.524  0.00  0.00    +0.000 HD
ENDBRANCH  25  26
ENDBRANCH  15  16
ENDBRANCH   1  15
TORSDOF 7
ENDMDL
MODEL 3
REMARK VINA RESULT:      -7.8      1.367      1.909
REMARK  Name = 
REMARK  9 active torsions:
REMARK  status: ('A' for Active; 'I' for Inactive)
REMARK    1  A    between atoms: C_1  and  C_2
REMARK    2  A    between atoms: C_2  and  N_3
REMARK    3  A    between atoms: N_3  and  C_4
REMARK    4  A    between atoms: N_3  and  S_16
REMARK    5  A    between atoms: C_4  and  C_5
REMARK    6  A    between atoms: C_14  and  O_15
REMARK    7  A    between atoms: S_16  and  C_19
REMARK    8  A    between atoms: C_22  and  O_23
REMARK    9  A    between atoms: O_23  and  C_24
REMARK                            x       y       z     vdW  Elec       q    Type
REMARK                         _______ _______ _______ _____ _____    ______ ____
ROOT
ATOM      1  N   UNL     1       2.497   4.631  18.964  0.00  0.00    +0.000 NA
ENDROOT
BRANCH   1   2
ATOM      2  S   UNL     1       3.808   3.568  18.516  0.00  0.00    +0.000 S 
ATOM      3  O   UNL     1       4.319   2.864  19.672  0.00  0.00    +0.000 OA
ATOM      4  O   UNL     1       3.416   2.844  17.326  0.00  0.00    +0.000 OA
BRANCH   2   5
ATOM      5  C   UNL     1       5.084   4.723  18.055  0.00  0.00    +0.000 A 
ATOM      6  C   UNL     1       5.020   5.339  16.802  0.00  0.00    +0.000 A 
ATOM      7  C   UNL     1       5.959   6.315  16.466  0.00  0.00    +0.000 A 
ATOM      8  C   UNL     1       6.947   6.694  17.379  0.00  0.00    +0.000 A 
ATOM      9  C   UNL     1       6.996   6.082  18.634  0.00  0.00    +0.000 A 
ATOM     10  C   UNL     1       6.059   5.103  18.979  0.00  0.00    +0.000 A 
BRANCH   8  11
ATOM     11  O   UNL     1       7.832   7.627  16.917  0.00  0.00    +0.000 OA
ATOM     12  C   UNL     1       8.110   8.721  17.783  0.00  0.00    +0.000 C 
ENDBRANCH   8  11
ENDBRANCH   2   5
ENDBRANCH   1   2
BRANCH   1  14
ATOM     13  C   UNL     1       1.037   3.388  20.651  0.00  0.00    +0.000 C 
ATOM     14  C   UNL     1       1.238   3.833  19.212  0.00  0.00    +0.000 C 
ENDBRANCH   1  14
BRANCH   1  15
ATOM     15  C   UNL     1       2.831   5.547  20.101  0.00  0.00    +0.000 C 
BRANCH  15  16
ATOM     16  C   UNL     1       2.131   6.882  20.117  0.00  0.00    +0.000 A 
ATOM     17  C   UNL     1       1.407   7.349  21.217  0.00  0.00    +0.000 A 
ATOM     18  C   UNL     1       0.780   8.605  21.172  0.00  0.00    +0.000 A 
ATOM     19  C   UNL     1       0.062   9.131  22.264  0.00  0.00    +0.000 A 
ATOM     20  C   UNL     1      -0.539  10.387  22.181  0.00  0.00    +0.000 A 
ATOM     21  C   UNL     1      -0.444  11.120  21.005  0.00  0.00    +0.000 A 
ATOM     22  C   UNL     1       0.262  10.599  19.918  0.00  0.00    +0.000 A 
ATOM     23  C   UNL     1       0.888   9.360  19.980  0.00  0.00    +0.000 A 
ATOM     24  N   UNL     1       1.583   8.928  18.916  0.00  0.00    +0.000 NA
ATOM     25  C   UNL     1       2.177   7.725  19.019  0.00  0.00    +0.000 A 
BRANCH  25  26
ATOM     26  O   UNL     1       2.861   7.386  17.899  0.00  0.00    +0.000 OA
ATOM     27  H   UNL     1       2.767   6.416  17.946  0.00  0.00    +0.000 HD
ENDBRANCH  25  26
ENDBRANCH  15  16
ENDBRANCH   1  15
TORSDOF 7
ENDMDL
MODEL 4
REMARK VINA RESULT:      -7.5      1.111      1.586
REMARK  Name = 
REMARK  9 active torsions:
REMARK  status: ('A' for Active; 'I' for Inactive)
REMARK    1  A    between atoms: C_1  and  C_2
REMARK    2  A    between atoms: C_2  and  N_3
REMARK    3  A    between atoms: N_3  and  C_4
REMARK    4  A    between atoms: N_3  and  S_16
REMARK    5  A    between atoms: C_4  and  C_5
REMARK    6  A    between atoms: C_14  and  O_15
REMARK    7  A    between atoms: S_16  and  C_19
REMARK    8  A    between atoms: C_22  and  O_23
REMARK    9  A    between atoms: O_23  and  C_24
REMARK                            x       y       z     vdW  Elec       q    Type
REMARK                         _______ _______ _______ _____ _____    ______ ____
ROOT
ATOM      1  N   UNL     1       3.557   4.993  18.873  0.00  0.00    +0.000 NA
ENDROOT
BRANCH   1   2
ATOM      2  S   UNL     1       5.203   4.432  19.031  0.00  0.00    +0.000 S 
ATOM      3  O   UNL     1       6.024   5.422  19.691  0.00  0.00    +0.000 OA
ATOM      4  O   UNL     1       5.170   3.065  19.507  0.00  0.00    +0.000 OA
BRANCH   2   5
ATOM      5  C   UNL     1       5.753   4.404  17.337  0.00  0.00    +0.000 A 
ATOM      6  C   UNL     1       4.806   4.255  16.319  0.00  0.00    +0.000 A 
ATOM      7  C   UNL     1       5.211   4.326  14.986  0.00  0.00    +0.000 A 
ATOM      8  C   UNL     1       6.550   4.567  14.662  0.00  0.00    +0.000 A 
ATOM      9  C   UNL     1       7.488   4.728  15.686  0.00  0.00    +0.000 A 
ATOM     10  C   UNL     1       7.090   4.657  17.025  0.00  0.00    +0.000 A 
BRANCH   8  11
ATOM     11  O   UNL     1       6.829   4.572  13.324  0.00  0.00    +0.000 OA
ATOM     12  C   UNL     1       6.259   3.520  12.555  0.00  0.00    +0.000 C 
ENDBRANCH   8  11
ENDBRANCH   2   5
ENDBRANCH   1   2
BRANCH   1  14
ATOM     13  C   UNL     1       1.427   4.158  17.738  0.00  0.00    +0.000 C 
ATOM     14  C   UNL     1       2.630   3.830  18.607  0.00  0.00    +0.000 C 
ENDBRANCH   1  14
BRANCH   1  15
ATOM     15  C   UNL     1       3.101   5.842  20.019  0.00  0.00    +0.000 C 
BRANCH  15  16
ATOM     16  C   UNL     1       2.400   7.129  19.667  0.00  0.00    +0.000 A 
ATOM     17  C   UNL     1       1.514   7.775  20.532  0.00  0.00    +0.000 A 
ATOM     18  C   UNL     1       0.895   8.976  20.147  0.00  0.00    +0.000 A 
ATOM     19  C   UNL     1       0.015   9.677  20.994  0.00  0.00    +0.000 A 
ATOM     20  C   UNL     1      -0.572  10.872  20.576  0.00  0.00    +0.000 A 
ATOM     21  C   UNL     1      -0.302  11.366  19.306  0.00  0.00    +0.000 A 
ATOM     22  C   UNL     1       0.566  10.668  18.462  0.00  0.00    +0.000 A 
ATOM     23  C   UNL     1       1.181   9.488  18.859  0.00  0.00    +0.000 A 
ATOM     24  N   UNL     1       2.033   8.882  18.018  0.00  0.00    +0.000 NA
ATOM     25  C   UNL     1       2.610   7.744  18.444  0.00  0.00    +0.000 A 
BRANCH  25  26
ATOM     26  O   UNL     1       3.460   7.218  17.528  0.00  0.00    +0.000 OA
ATOM     27  H   UNL     1       3.979   6.635  18.112  0.00  0.00    +0.000 HD
ENDBRANCH  25  26
ENDBRANCH  15  16
ENDBRANCH   1  15
TORSDOF 7
ENDMDL
MODEL 5
REMARK VINA RESULT:      -7.3      1.006      1.167
REMARK  Name = 
REMARK  9 active torsions:
REMARK  status: ('A' for Active; 'I' for Inactive)
REMARK    1  A    between atoms: C_1  and  C_2
REMARK    2  A    between atoms: C_2  and  N_3
REMARK    3  A    between atoms: N_3  and  C_4
REMARK    4  A    between atoms: N_3  and  S_16
REMARK    5  A    between atoms: C_4  and  C_5
REMARK    6  A    between atoms: C_14  and  O_15
REMARK    7  A    between atoms: S_16  and  C_19
REMARK    8  A    between atoms: C_22  and  O_23
REMARK    9  A    between atoms: O_23  and  C_24
REMARK                            x       y       z     vdW  Elec       q    Type
REMARK                         _______ _______ _______ _____ _____    ______ ____
ROOT
ATOM      1  N   UNL     1       3.418   4.997  18.959  0.00  0.00    +0.000 NA
ENDROOT
BRANCH   1   2
ATOM      2  S   UNL     1       5.060   4.409  19.031  0.00  0.00    +0.000 S 
ATOM      3  O   UNL     1       5.911   5.342  19.737  0.00  0.00    +0.000 OA
ATOM      4  O   UNL     1       5.024   3.013  19.411  0.00  0.00    +0.000 OA
BRANCH   2   5
ATOM      5  C   UNL     1       5.564   4.497  17.325  0.00  0.00    +0.000 A 
ATOM      6  C   UNL     1       6.912   4.718  17.026  0.00  0.00    +0.000 A 
ATOM      7  C   UNL     1       7.336   4.694  15.698  0.00  0.00    +0.000 A 
ATOM      8  C   UNL     1       6.428   4.430  14.667  0.00  0.00    +0.000 A 
ATOM      9  C   UNL     1       5.085   4.198  14.975  0.00  0.00    +0.000 A 
ATOM     10  C   UNL     1       4.652   4.220  16.305  0.00  0.00    +0.000 A 
BRANCH   8  11
ATOM     11  O   UNL     1       6.955   4.477  13.407  0.00  0.00    +0.000 OA
ATOM     12  C   UNL     1       6.413   3.566  12.459  0.00  0.00    +0.000 C 
ENDBRANCH   8  11
ENDBRANCH   2   5
ENDBRANCH   1   2
BRANCH   1  14
ATOM     13  C   UNL     1       1.527   3.624  19.988  0.00  0.00    +0.000 C 
ATOM     14  C   UNL     1       2.455   3.843  18.805  0.00  0.00    +0.000 C 
ENDBRANCH   1  14
BRANCH   1  15
ATOM     15  C   UNL     1       3.055   5.902  20.096  0.00  0.00    +0.000 C 
BRANCH  15  16
ATOM     16  C   UNL     1       2.349   7.185  19.737  0.00  0.00    +0.000 A 
ATOM     17  C   UNL     1       1.463   7.833  20.600  0.00  0.00    +0.000 A 
ATOM     18  C   UNL     1       0.839   9.030  20.209  0.00  0.00    +0.000 A 
ATOM     19  C   UNL     1      -0.040   9.735  21.053  0.00  0.00    +0.000 A 
ATOM     20  C   UNL     1      -0.632  10.925  20.629  0.00  0.00    +0.000 A 
ATOM     21  C   UNL     1      -0.366  11.411  19.355  0.00  0.00    +0.000 A 
ATOM     22  C   UNL     1       0.502  10.711  18.514  0.00  0.00    +0.000 A 
ATOM     23  C   UNL     1       1.121   9.535  18.917  0.00  0.00    +0.000 A 
ATOM     24  N   UNL     1       1.973   8.926  18.078  0.00  0.00    +0.000 NA
ATOM     25  C   UNL     1       2.554   7.792  18.510  0.00  0.00    +0.000 A 
BRANCH  25  26
ATOM     26  O   UNL     1       3.404   7.263  17.595  0.00  0.00    +0.000 OA
ATOM     27  H   UNL     1       2.809   7.242  16.822  0.00  0.00    +0.000 HD
ENDBRANCH  25  26
ENDBRANCH  15  16
ENDBRANCH   1  15
TORSDOF 7
ENDMDL
MODEL 6
REMARK VINA RESULT:      -7.2      1.630      1.997
REMARK  Name = 
REMARK  9 active torsions:
REMARK  status: ('A' for Active; 'I' for Inactive)
REMARK    1  A    between atoms: C_1  and  C_2
REMARK    2  A    between atoms: C_2  and  N_3
REMARK    3  A    between atoms: N_3  and  C_4
REMARK    4  A    between atoms: N_3  and  S_16
REMARK    5  A    between atoms: C_4  and  C_5
REMARK    6  A    between atoms: C_14  and  O_15
REMARK    7  A    between atoms: S_16  and  C_19
REMARK    8  A    between atoms: C_22  and  O_23
REMARK    9  A    between atoms: O_23  and  C_24
REMARK                            x       y       z     vdW  Elec       q    Type
REMARK                         _______ _______ _______ _____ _____    ______ ____
ROOT
ATOM      1  N   UNL     1       1.553   4.606  19.603  0.00  0.00    +0.000 NA
ENDROOT
BRANCH   1   2
ATOM      2  S   UNL     1       2.171   3.684  18.256  0.00  0.00    +0.000 S 
ATOM      3  O   UNL     1       2.410   2.309  18.638  0.00  0.00    +0.000 OA
ATOM      4  O   UNL     1       1.373   3.996  17.090  0.00  0.00    +0.000 OA
BRANCH   2   5
ATOM      5  C   UNL     1       3.784   4.403  18.020  0.00  0.00    +0.000 A 
ATOM      6  C   UNL     1       4.751   4.242  19.017  0.00  0.00    +0.000 A 
ATOM      7  C   UNL     1       6.045   4.717  18.805  0.00  0.00    +0.000 A 
ATOM      8  C   UNL     1       6.386   5.333  17.597  0.00  0.00    +0.000 A 
ATOM      9  C   UNL     1       5.417   5.479  16.600  0.00  0.00    +0.000 A 
ATOM     10  C   UNL     1       4.117   5.004  16.805  0.00  0.00    +0.000 A 
BRANCH   8  11
ATOM     11  O   UNL     1       7.671   5.793  17.526  0.00  0.00    +0.000 OA
ATOM     12  C   UNL     1       8.025   6.823  18.442  0.00  0.00    +0.000 C 
ENDBRANCH   8  11
ENDBRANCH   2   5
ENDBRANCH   1   2
BRANCH   1  14
ATOM     13  C   UNL     1       2.253   3.516  21.804  0.00  0.00    +0.000 C 
ATOM     14  C   UNL     1       1.180   3.685  20.741  0.00  0.00    +0.000 C 
ENDBRANCH   1  14
BRANCH   1  15
ATOM     15  C   UNL     1       2.460   5.716  20.036  0.00  0.00    +0.000 C 
BRANCH  15  16
ATOM     16  C   UNL     1       1.830   7.076  20.196  0.00  0.00    +0.000 A 
ATOM     17  C   UNL     1       1.123   7.457  21.339  0.00  0.00    +0.000 A 
ATOM     18  C   UNL     1       0.562   8.742  21.432  0.00  0.00    +0.000 A 
ATOM     19  C   UNL     1      -0.135   9.182  22.574  0.00  0.00    +0.000 A 
ATOM     20  C   UNL     1      -0.670  10.469  22.628  0.00  0.00    +0.000 A 
ATOM     21  C   UNL     1      -0.528  11.321  21.539  0.00  0.00    +0.000 A 
ATOM     22  C   UNL     1       0.158  10.885  20.403  0.00  0.00    +0.000 A 
ATOM     23  C   UNL     1       0.718   9.616  20.330  0.00  0.00    +0.000 A 
ATOM     24  N   UNL     1       1.398   9.267  19.226  0.00  0.00    +0.000 NA
ATOM     25  C   UNL     1       1.928   8.031  19.198  0.00  0.00    +0.000 A 
BRANCH  25  26
ATOM     26  O   UNL     1       2.602   7.781  18.048  0.00  0.00    +0.000 OA
ATOM     27  H   UNL     1       2.491   6.813  18.009  0.00  0.00    +0.000 HD
ENDBRANCH  25  26
ENDBRANCH  15  16
ENDBRANCH   1  15
TORSDOF 7
ENDMDL
MODEL 7
REMARK VINA RESULT:      -7.1      1.994      3.204
REMARK  Name = 
REMARK  9 active torsions:
REMARK  status: ('A' for Active; 'I' for Inactive)
REMARK    1  A    between atoms: C_1  and  C_2
REMARK    2  A    between atoms: C_2  and  N_3
REMARK    3  A    between atoms: N_3  and  C_4
REMARK    4  A    between atoms: N_3  and  S_16
REMARK    5  A    between atoms: C_4  and  C_5
REMARK    6  A    between atoms: C_14  and  O_15
REMARK    7  A    between atoms: S_16  and  C_19
REMARK    8  A    between atoms: C_22  and  O_23
REMARK    9  A    between atoms: O_23  and  C_24
REMARK                            x       y       z     vdW  Elec       q    Type
REMARK                         _______ _______ _______ _____ _____    ______ ____
ROOT
ATOM      1  N   UNL     1       5.431   6.359  17.908  0.00  0.00    +0.000 NA
ENDROOT
BRANCH   1   2
ATOM      2  S   UNL     1       6.072   4.735  17.925  0.00  0.00    +0.000 S 
ATOM      3  O   UNL     1       7.416   4.717  18.459  0.00  0.00    +0.000 OA
ATOM      4  O   UNL     1       5.056   3.854  18.457  0.00  0.00    +0.000 OA
BRANCH   2   5
ATOM      5  C   UNL     1       6.242   4.383  16.187  0.00  0.00    +0.000 A 
ATOM      6  C   UNL     1       5.182   3.771  15.512  0.00  0.00    +0.000 A 
ATOM      7  C   UNL     1       5.264   3.575  14.133  0.00  0.00    +0.000 A 
ATOM      8  C   UNL     1       6.388   4.006  13.421  0.00  0.00    +0.000 A 
ATOM      9  C   UNL     1       7.438   4.628  14.101  0.00  0.00    +0.000 A 
ATOM     10  C   UNL     1       7.363   4.828  15.484  0.00  0.00    +0.000 A 
BRANCH   8  11
ATOM     11  O   UNL     1       6.369   3.719  12.085  0.00  0.00    +0.000 OA
ATOM     12  C   UNL     1       5.574   2.608  11.687  0.00  0.00    +0.000 C 
ENDBRANCH   8  11
ENDBRANCH   2   5
ENDBRANCH   1   2
BRANCH   1  14
ATOM     13  C   UNL     1       7.633   7.653  17.883  0.00  0.00    +0.000 C 
ATOM     14  C   UNL     1       6.356   7.280  17.147  0.00  0.00    +0.000 C 
ENDBRANCH   1  14
BRANCH   1  15
ATOM     15  C   UNL     1       4.015   6.439  17.426  0.00  0.00    +0.000 C 
BRANCH  15  16
ATOM     16  C   UNL     1       3.052   7.208  18.294  0.00  0.00    +0.000 A 
ATOM     17  C   UNL     1       2.420   8.381  17.874  0.00  0.00    +0.000 A 
ATOM     18  C   UNL     1       1.527   9.051  18.728  0.00  0.00    +0.000 A 
ATOM     19  C   UNL     1       0.846  10.221  18.340  0.00  0.00    +0.000 A 
ATOM     20  C   UNL     1      -0.039  10.851  19.216  0.00  0.00    +0.000 A 
ATOM     21  C   UNL     1      -0.238  10.330  20.488  0.00  0.00    +0.000 A 
ATOM     22  C   UNL     1       0.442   9.173  20.877  0.00  0.00    +0.000 A 
ATOM     23  C   UNL     1       1.312   8.513  20.019  0.00  0.00    +0.000 A 
ATOM     24  N   UNL     1       1.908   7.385  20.435  0.00  0.00    +0.000 NA
ATOM     25  C   UNL     1       2.741   6.777  19.572  0.00  0.00    +0.000 A 
BRANCH  25  26
ATOM     26  O   UNL     1       3.281   5.643  20.083  0.00  0.00    +0.000 OA
ATOM     27  H   UNL     1       2.639   4.994  19.740  0.00  0.00    +0.000 HD
ENDBRANCH  25  26
ENDBRANCH  15  16
ENDBRANCH   1  15
TORSDOF 7
ENDMDL
MODEL 8
REMARK VINA RESULT:      -7.1      2.849      4.196
REMARK  Name = 
REMARK  9 active torsions:
REMARK  status: ('A' for Active; 'I' for Inactive)
REMARK    1  A    between atoms: C_1  and  C_2
REMARK    2  A    between atoms: C_2  and  N_3
REMARK    3  A    between atoms: N_3  and  C_4
REMARK    4  A    between atoms: N_3  and  S_16
REMARK    5  A    between atoms: C_4  and  C_5
REMARK    6  A    between atoms: C_14  and  O_15
REMARK    7  A    between atoms: S_16  and  C_19
REMARK    8  A    between atoms: C_22  and  O_23
REMARK    9  A    between atoms: O_23  and  C_24
REMARK                            x       y       z     vdW  Elec       q    Type
REMARK                         _______ _______ _______ _____ _____    ______ ____
ROOT
ATOM      1  N   UNL     1       5.324   4.833  17.072  0.00  0.00    +0.000 NA
ENDROOT
BRANCH   1   2
ATOM      2  S   UNL     1       6.883   4.760  17.853  0.00  0.00    +0.000 S 
ATOM      3  O   UNL     1       6.757   4.278  19.210  0.00  0.00    +0.000 OA
ATOM      4  O   UNL     1       7.819   4.144  16.936  0.00  0.00    +0.000 OA
BRANCH   2   5
ATOM      5  C   UNL     1       7.312   6.483  17.993  0.00  0.00    +0.000 A 
ATOM      6  C   UNL     1       8.299   6.863  18.908  0.00  0.00    +0.000 A 
ATOM      7  C   UNL     1       8.712   8.195  18.961  0.00  0.00    +0.000 A 
ATOM      8  C   UNL     1       8.162   9.144  18.094  0.00  0.00    +0.000 A 
ATOM      9  C   UNL     1       7.185   8.753  17.174  0.00  0.00    +0.000 A 
ATOM     10  C   UNL     1       6.766   7.420  17.114  0.00  0.00    +0.000 A 
BRANCH   8  11
ATOM     11  O   UNL     1       8.616  10.420  18.273  0.00  0.00    +0.000 OA
ATOM     12  C   UNL     1       9.554  10.618  19.325  0.00  0.00    +0.000 C 
ENDBRANCH   8  11
ENDBRANCH   2   5
ENDBRANCH   1   2
BRANCH   1  14
ATOM     13  C   UNL     1       5.697   4.804  14.545  0.00  0.00    +0.000 C 
ATOM     14  C   UNL     1       5.337   4.021  15.798  0.00  0.00    +0.000 C 
ENDBRANCH   1  14
BRANCH   1  15
ATOM     15  C   UNL     1       4.184   4.470  17.973  0.00  0.00    +0.000 C 
BRANCH  15  16
ATOM     16  C   UNL     1       3.385   5.615  18.542  0.00  0.00    +0.000 A 
ATOM     17  C   UNL     1       3.182   6.815  17.858  0.00  0.00    +0.000 A 
ATOM     18  C   UNL     1       2.423   7.845  18.440  0.00  0.00    +0.000 A 
ATOM     19  C   UNL     1       2.168   9.062  17.779  0.00  0.00    +0.000 A 
ATOM     20  C   UNL     1       1.402  10.055  18.390  0.00  0.00    +0.000 A 
ATOM     21  C   UNL     1       0.900   9.850  19.669  0.00  0.00    +0.000 A 
ATOM     22  C   UNL     1       1.157   8.646  20.329  0.00  0.00    +0.000 A 
ATOM     23  C   UNL     1       1.899   7.632  19.737  0.00  0.00    +0.000 A 
ATOM     24  N   UNL     1       2.082   6.482  20.406  0.00  0.00    +0.000 NA
ATOM     25  C   UNL     1       2.803   5.525  19.795  0.00  0.00    +0.000 A 
BRANCH  25  26
ATOM     26  O   UNL     1       2.919   4.403  20.547  0.00  0.00    +0.000 OA
ATOM     27  H   UNL     1       2.811   3.733  19.847  0.00  0.00    +0.000 HD
ENDBRANCH  25  26
ENDBRANCH  15  16
ENDBRANCH   1  15
TORSDOF 7
ENDMDL
MODEL 9
REMARK VINA RESULT:      -6.8      2.200      4.410
REMARK  Name = 
REMARK  9 active torsions:
REMARK  status: ('A' for Active; 'I' for Inactive)
REMARK    1  A    between atoms: C_1  and  C_2
REMARK    2  A    between atoms: C_2  and  N_3
REMARK    3  A    between atoms: N_3  and  C_4
REMARK    4  A    between atoms: N_3  and  S_16
REMARK    5  A    between atoms: C_4  and  C_5
REMARK    6  A    between atoms: C_14  and  O_15
REMARK    7  A    between atoms: S_16  and  C_19
REMARK    8  A    between atoms: C_22  and  O_23
REMARK    9  A    between atoms: O_23  and  C_24
REMARK                            x       y       z     vdW  Elec       q    Type
REMARK                         _______ _______ _______ _____ _____    ______ ____
ROOT
ATOM      1  N   UNL     1       5.663   6.435  17.787  0.00  0.00    +0.000 NA
ENDROOT
BRANCH   1   2
ATOM      2  S   UNL     1       6.383   4.847  17.692  0.00  0.00    +0.000 S 
ATOM      3  O   UNL     1       6.793   4.548  16.337  0.00  0.00    +0.000 OA
ATOM      4  O   UNL     1       7.313   4.706  18.791  0.00  0.00    +0.000 OA
BRANCH   2   5
ATOM      5  C   UNL     1       4.990   3.785  18.017  0.00  0.00    +0.000 A 
ATOM      6  C   UNL     1       4.846   3.226  19.290  0.00  0.00    +0.000 A 
ATOM      7  C   UNL     1       3.712   2.470  19.586  0.00  0.00    +0.000 A 
ATOM      8  C   UNL     1       2.710   2.287  18.628  0.00  0.00    +0.000 A 
ATOM      9  C   UNL     1       2.856   2.860  17.361  0.00  0.00    +0.000 A 
ATOM     10  C   UNL     1       3.990   3.619  17.057  0.00  0.00    +0.000 A 
BRANCH   8  11
ATOM     11  O   UNL     1       1.671   1.493  19.024  0.00  0.00    +0.000 OA
ATOM     12  C   UNL     1       0.377   2.083  18.998  0.00  0.00    +0.000 C 
ENDBRANCH   8  11
ENDBRANCH   2   5
ENDBRANCH   1   2
BRANCH   1  14
ATOM     13  C   UNL     1       7.835   7.773  17.909  0.00  0.00    +0.000 C 
ATOM     14  C   UNL     1       6.564   7.458  17.136  0.00  0.00    +0.000 C 
ENDBRANCH   1  14
BRANCH   1  15
ATOM     15  C   UNL     1       4.260   6.489  17.265  0.00  0.00    +0.000 C 
BRANCH  15  16
ATOM     16  C   UNL     1       3.263   7.257  18.094  0.00  0.00    +0.000 A 
ATOM     17  C   UNL     1       2.567   8.368  17.611  0.00  0.00    +0.000 A 
ATOM     18  C   UNL     1       1.645   9.040  18.431  0.00  0.00    +0.000 A 
ATOM     19  C   UNL     1       0.900  10.148  17.981  0.00  0.00    +0.000 A 
ATOM     20  C   UNL     1      -0.011  10.782  18.826  0.00  0.00    +0.000 A 
ATOM     21  C   UNL     1      -0.173  10.328  20.130  0.00  0.00    +0.000 A 
ATOM     22  C   UNL     1       0.569   9.234  20.580  0.00  0.00    +0.000 A 
ATOM     23  C   UNL     1       1.468   8.571  19.754  0.00  0.00    +0.000 A 
ATOM     24  N   UNL     1       2.125   7.502  20.232  0.00  0.00    +0.000 NA
ATOM     25  C   UNL     1       2.983   6.888  19.398  0.00  0.00    +0.000 A 
BRANCH  25  26
ATOM     26  O   UNL     1       3.586   5.817  19.971  0.00  0.00    +0.000 OA
ATOM     27  H   UNL     1       4.492   6.170  20.048  0.00  0.00    +0.000 HD
ENDBRANCH  25  26
ENDBRANCH  15  16
ENDBRANCH   1  15
TORSDOF 7
ENDMDL
