MODEL 1
REMARK VINA RESULT:      -7.5      0.000      0.000
REMARK  Name = 
REMARK  10 active torsions:
REMARK  status: ('A' for Active; 'I' for Inactive)
REMARK    1  A    between atoms: C_1  and  C_2
REMARK    2  A    between atoms: C_2  and  O_3
REMARK    3  A    between atoms: O_3  and  C_4
REMARK    4  A    between atoms: C_4  and  C_6
REMARK    5  A    between atoms: C_10  and  C_11
REMARK    6  A    between atoms: C_14  and  C_15
REMARK    7  A    between atoms: N_21  and  C_22
REMARK    8  A    between atoms: C_22  and  C_23
REMARK    9  A    between atoms: N_25  and  C_26
REMARK   10  A    between atoms: C_26  and  C_27
REMARK                            x       y       z     vdW  Elec       q    Type
REMARK                         _______ _______ _______ _____ _____    ______ ____
ROOT
ATOM      1  C   UNL     1       3.134   3.379  17.840  0.00  0.00    +0.000 C 
ATOM      2  C   UNL     1       3.447   4.683  17.914  0.00  0.00    +0.000 A 
ATOM      3  S   UNL     1       2.277   5.899  18.328  0.00  0.00    +0.000 S 
ATOM      4  C   UNL     1       3.369   7.180  17.964  0.00  0.00    +0.000 A 
ATOM      5  C   UNL     1       3.066   8.489  17.975  0.00  0.00    +0.000 C 
ATOM      6  C   UNL     1       4.718   6.651  17.629  0.00  0.00    +0.000 A 
ATOM      7  O   UNL     1       5.688   7.352  17.382  0.00  0.00    +0.000 OA
ATOM      8  N   UNL     1       4.683   5.254  17.640  0.00  0.00    +0.000 N 
ENDROOT
BRANCH   5   9
ATOM      9  C   UNL     1       1.728   8.981  18.329  0.00  0.00    +0.000 A 
ATOM     10  C   UNL     1       0.766   9.168  17.331  0.00  0.00    +0.000 A 
ATOM     11  C   UNL     1      -0.438   9.819  17.620  0.00  0.00    +0.000 A 
ATOM     12  C   UNL     1      -0.694  10.274  18.920  0.00  0.00    +0.000 A 
ATOM     13  C   UNL     1       0.247  10.050  19.928  0.00  0.00    +0.000 A 
ATOM     14  C   UNL     1       1.455   9.405  19.636  0.00  0.00    +0.000 A 
BRANCH  12  15
ATOM     15  C   UNL     1      -1.904  10.998  19.204  0.00  0.00    +0.000 C 
ATOM     16  N   UNL     1      -2.880  11.573  19.439  0.00  0.00    +0.000 NA
ENDBRANCH  12  15
ENDBRANCH   5   9
BRANCH   1  17
ATOM     17  C   UNL     1       1.842   2.801  18.296  0.00  0.00    +0.000 C 
ATOM     18  O   UNL     1       0.734   3.133  17.910  0.00  0.00    +0.000 OA
BRANCH  17  19
ATOM     19  O   UNL     1       2.102   1.978  19.344  0.00  0.00    +0.000 OA
BRANCH  19  21
ATOM     20  C   UNL     1       1.363   3.013  21.356  0.00  0.00    +0.000 C 
ATOM     21  C   UNL     1       2.580   2.648  20.522  0.00  0.00    +0.000 C 
ENDBRANCH  19  21
ENDBRANCH  17  19
ENDBRANCH   1  17
BRANCH   8  22
ATOM     22  C   UNL     1       5.921   4.532  17.365  0.00  0.00    +0.000 C 
BRANCH  22  23
ATOM     23  C   UNL     1       6.574   4.710  15.983  0.00  0.00    +0.000 C 
ATOM     24  O   UNL     1       7.515   5.493  15.835  0.00  0.00    +0.000 OA
ATOM     25  N   UNL     1       6.069   3.994  14.924  0.00  0.00    +0.000 N 
ATOM     26  H   UNL     1       5.143   3.588  14.979  0.00  0.00    +0.000 HD
BRANCH  25  27
ATOM     27  C   UNL     1       6.669   4.151  13.613  0.00  0.00    +0.000 C 
BRANCH  27  28
ATOM     28  C   UNL     1       5.848   3.476  12.580  0.00  0.00    +0.000 A 
ATOM     29  C   UNL     1       4.596   3.725  12.051  0.00  0.00    +0.000 A 
ATOM     30  C   UNL     1       4.345   2.694  11.114  0.00  0.00    +0.000 A 
ATOM     31  C   UNL     1       5.448   1.875  11.142  0.00  0.00    +0.000 A 
ATOM     32  O   UNL     1       6.368   2.343  12.025  0.00  0.00    +0.000 OA
ENDBRANCH  27  28
ENDBRANCH  25  27
ENDBRANCH  22  23
ENDBRANCH   8  22
TORSDOF 9
ENDMDL
MODEL 2
REMARK VINA RESULT:      -7.3      5.343     11.160
REMARK  Name = 
REMARK  10 active torsions:
REMARK  status: ('A' for Active; 'I' for Inactive)
REMARK    1  A    between atoms: C_1  and  C_2
REMARK    2  A    between atoms: C_2  and  O_3
REMARK    3  A    between atoms: O_3  and  C_4
REMARK    4  A    between atoms: C_4  and  C_6
REMARK    5  A    between atoms: C_10  and  C_11
REMARK    6  A    between atoms: C_14  and  C_15
REMARK    7  A    between atoms: N_21  and  C_22
REMARK    8  A    between atoms: C_22  and  C_23
REMARK    9  A    between atoms: N_25  and  C_26
REMARK   10  A    between atoms: C_26  and  C_27
REMARK                            x       y       z     vdW  Elec       q    Type
REMARK                         _______ _______ _______ _____ _____    ______ ____
ROOT
ATOM      1  C   UNL     1      -1.586  12.307  19.892  0.00  0.00    +0.000 C 
ATOM      2  C   UNL     1      -0.877  11.430  20.620  0.00  0.00    +0.000 A 
ATOM      3  S   UNL     1       0.062  10.161  19.896  0.00  0.00    +0.000 S 
ATOM      4  C   UNL     1       0.390   9.430  21.420  0.00  0.00    +0.000 A 
ATOM      5  C   UNL     1       1.037   8.267  21.604  0.00  0.00    +0.000 C 
ATOM      6  C   UNL     1      -0.139  10.261  22.534  0.00  0.00    +0.000 A 
ATOM      7  O   UNL     1       0.004   9.994  23.717  0.00  0.00    +0.000 OA
ATOM      8  N   UNL     1      -0.816  11.364  22.007  0.00  0.00    +0.000 N 
ENDROOT
BRANCH   5   9
ATOM      9  C   UNL     1       1.566   7.479  20.482  0.00  0.00    +0.000 A 
ATOM     10  C   UNL     1       1.669   6.089  20.593  0.00  0.00    +0.000 A 
ATOM     11  C   UNL     1       2.350   5.348  19.621  0.00  0.00    +0.000 A 
ATOM     12  C   UNL     1       2.920   5.997  18.518  0.00  0.00    +0.000 A 
ATOM     13  C   UNL     1       2.782   7.380  18.383  0.00  0.00    +0.000 A 
ATOM     14  C   UNL     1       2.106   8.121  19.361  0.00  0.00    +0.000 A 
BRANCH  12  15
ATOM     15  C   UNL     1       3.673   5.245  17.551  0.00  0.00    +0.000 C 
ATOM     16  N   UNL     1       4.272   4.643  16.765  0.00  0.00    +0.000 NA
ENDBRANCH  12  15
ENDBRANCH   5   9
BRANCH   1  17
ATOM     17  C   UNL     1      -1.493  12.436  18.413  0.00  0.00    +0.000 C 
ATOM     18  O   UNL     1      -0.642  13.059  17.802  0.00  0.00    +0.000 OA
BRANCH  17  19
ATOM     19  O   UNL     1      -2.620  11.900  17.878  0.00  0.00    +0.000 OA
BRANCH  19  21
ATOM     20  C   UNL     1      -3.303   9.645  17.534  0.00  0.00    +0.000 C 
ATOM     21  C   UNL     1      -2.393  10.756  17.037  0.00  0.00    +0.000 C 
ENDBRANCH  19  21
ENDBRANCH  17  19
ENDBRANCH   1  17
BRANCH   8  22
ATOM     22  C   UNL     1      -1.390  12.329  22.939  0.00  0.00    +0.000 C 
BRANCH  22  23
ATOM     23  C   UNL     1      -2.912  12.304  23.166  0.00  0.00    +0.000 C 
ATOM     24  O   UNL     1      -3.406  11.523  23.981  0.00  0.00    +0.000 OA
ATOM     25  N   UNL     1      -3.699  13.152  22.424  0.00  0.00    +0.000 N 
ATOM     26  H   UNL     1      -3.337  13.569  21.574  0.00  0.00    +0.000 HD
BRANCH  25  27
ATOM     27  C   UNL     1      -5.135  13.139  22.620  0.00  0.00    +0.000 C 
BRANCH  27  28
ATOM     28  C   UNL     1      -5.830  12.758  21.368  0.00  0.00    +0.000 A 
ATOM     29  C   UNL     1      -7.145  12.838  20.951  0.00  0.00    +0.000 A 
ATOM     30  C   UNL     1      -7.188  12.272  19.654  0.00  0.00    +0.000 A 
ATOM     31  C   UNL     1      -5.905  11.869  19.369  0.00  0.00    +0.000 A 
ATOM     32  O   UNL     1      -5.072  12.163  20.401  0.00  0.00    +0.000 OA
ENDBRANCH  27  28
ENDBRANCH  25  27
ENDBRANCH  22  23
ENDBRANCH   8  22
TORSDOF 9
ENDMDL
MODEL 3
REMARK VINA RESULT:      -7.1      5.211     11.193
REMARK  Name = 
REMARK  10 active torsions:
REMARK  status: ('A' for Active; 'I' for Inactive)
REMARK    1  A    between atoms: C_1  and  C_2
REMARK    2  A    between atoms: C_2  and  O_3
REMARK    3  A    between atoms: O_3  and  C_4
REMARK    4  A    between atoms: C_4  and  C_6
REMARK    5  A    between atoms: C_10  and  C_11
REMARK    6  A    between atoms: C_14  and  C_15
REMARK    7  A    between atoms: N_21  and  C_22
REMARK    8  A    between atoms: C_22  and  C_23
REMARK    9  A    between atoms: N_25  and  C_26
REMARK   10  A    between atoms: C_26  and  C_27
REMARK                            x       y       z     vdW  Elec       q    Type
REMARK                         _______ _______ _______ _____ _____    ______ ____
ROOT
ATOM      1  C   UNL     1      -1.398  12.159  19.785  0.00  0.00    +0.000 C 
ATOM      2  C   UNL     1      -0.715  11.274  20.528  0.00  0.00    +0.000 A 
ATOM      3  S   UNL     1       0.174   9.956  19.827  0.00  0.00    +0.000 S 
ATOM      4  C   UNL     1       0.486   9.248  21.366  0.00  0.00    +0.000 A 
ATOM      5  C   UNL     1       1.092   8.068  21.571  0.00  0.00    +0.000 C 
ATOM      6  C   UNL     1      -0.007  10.122  22.463  0.00  0.00    +0.000 A 
ATOM      7  O   UNL     1       0.134   9.876  23.651  0.00  0.00    +0.000 OA
ATOM      8  N   UNL     1      -0.648  11.236  21.916  0.00  0.00    +0.000 N 
ENDROOT
BRANCH   5   9
ATOM      9  C   UNL     1       1.586   7.236  20.464  0.00  0.00    +0.000 A 
ATOM     10  C   UNL     1       1.585   5.843  20.584  0.00  0.00    +0.000 A 
ATOM     11  C   UNL     1       2.231   5.049  19.630  0.00  0.00    +0.000 A 
ATOM     12  C   UNL     1       2.870   5.648  18.536  0.00  0.00    +0.000 A 
ATOM     13  C   UNL     1       2.836   7.038  18.393  0.00  0.00    +0.000 A 
ATOM     14  C   UNL     1       2.196   7.831  19.353  0.00  0.00    +0.000 A 
BRANCH  12  15
ATOM     15  C   UNL     1       3.587   4.838  17.589  0.00  0.00    +0.000 C 
ATOM     16  N   UNL     1       4.163   4.194  16.820  0.00  0.00    +0.000 NA
ENDBRANCH  12  15
ENDBRANCH   5   9
BRANCH   1  17
ATOM     17  C   UNL     1      -1.309  12.252  18.303  0.00  0.00    +0.000 C 
ATOM     18  O   UNL     1      -1.678  11.402  17.510  0.00  0.00    +0.000 OA
BRANCH  17  19
ATOM     19  O   UNL     1      -0.581  13.356  17.998  0.00  0.00    +0.000 OA
BRANCH  19  21
ATOM     20  C   UNL     1       1.225  14.633  18.881  0.00  0.00    +0.000 C 
ATOM     21  C   UNL     1       0.809  13.269  18.355  0.00  0.00    +0.000 C 
ENDBRANCH  19  21
ENDBRANCH  17  19
ENDBRANCH   1  17
BRANCH   8  22
ATOM     22  C   UNL     1      -1.182  12.241  22.829  0.00  0.00    +0.000 C 
BRANCH  22  23
ATOM     23  C   UNL     1      -2.706  12.300  23.034  0.00  0.00    +0.000 C 
ATOM     24  O   UNL     1      -3.258  11.530  23.822  0.00  0.00    +0.000 OA
ATOM     25  N   UNL     1      -3.430  13.213  22.304  0.00  0.00    +0.000 N 
ATOM     26  H   UNL     1      -3.031  13.629  21.470  0.00  0.00    +0.000 HD
BRANCH  25  27
ATOM     27  C   UNL     1      -4.867  13.280  22.479  0.00  0.00    +0.000 C 
BRANCH  27  28
ATOM     28  C   UNL     1      -5.561  12.569  21.381  0.00  0.00    +0.000 A 
ATOM     29  C   UNL     1      -5.416  12.574  20.007  0.00  0.00    +0.000 A 
ATOM     30  C   UNL     1      -6.408  11.703  19.495  0.00  0.00    +0.000 A 
ATOM     31  C   UNL     1      -7.105  11.236  20.584  0.00  0.00    +0.000 A 
ATOM     32  O   UNL     1      -6.596  11.752  21.733  0.00  0.00    +0.000 OA
ENDBRANCH  27  28
ENDBRANCH  25  27
ENDBRANCH  22  23
ENDBRANCH   8  22
TORSDOF 9
ENDMDL
MODEL 4
REMARK VINA RESULT:      -7.0      4.568      8.924
REMARK  Name = 
REMARK  10 active torsions:
REMARK  status: ('A' for Active; 'I' for Inactive)
REMARK    1  A    between atoms: C_1  and  C_2
REMARK    2  A    between atoms: C_2  and  O_3
REMARK    3  A    between atoms: O_3  and  C_4
REMARK    4  A    between atoms: C_4  and  C_6
REMARK    5  A    between atoms: C_10  and  C_11
REMARK    6  A    between atoms: C_14  and  C_15
REMARK    7  A    between atoms: N_21  and  C_22
REMARK    8  A    between atoms: C_22  and  C_23
REMARK    9  A    between atoms: N_25  and  C_26
REMARK   10  A    between atoms: C_26  and  C_27
REMARK                            x       y       z     vdW  Elec       q    Type
REMARK                         _______ _______ _______ _____ _____    ______ ____
ROOT
ATOM      1  C   UNL     1       0.206  10.300  21.414  0.00  0.00    +0.000 C 
ATOM      2  C   UNL     1       0.818   9.876  20.298  0.00  0.00    +0.000 A 
ATOM      3  S   UNL     1       1.249   8.212  20.046  0.00  0.00    +0.000 S 
ATOM      4  C   UNL     1       2.137   8.579  18.616  0.00  0.00    +0.000 A 
ATOM      5  C   UNL     1       2.866   7.704  17.906  0.00  0.00    +0.000 C 
ATOM      6  C   UNL     1       1.994  10.014  18.255  0.00  0.00    +0.000 A 
ATOM      7  O   UNL     1       2.482  10.522  17.257  0.00  0.00    +0.000 OA
ATOM      8  N   UNL     1       1.232  10.663  19.230  0.00  0.00    +0.000 N 
ENDROOT
BRANCH   5   9
ATOM      9  C   UNL     1       2.971   6.286  18.279  0.00  0.00    +0.000 A 
ATOM     10  C   UNL     1       4.118   5.818  18.928  0.00  0.00    +0.000 A 
ATOM     11  C   UNL     1       4.321   4.446  19.110  0.00  0.00    +0.000 A 
ATOM     12  C   UNL     1       3.362   3.530  18.656  0.00  0.00    +0.000 A 
ATOM     13  C   UNL     1       2.196   3.997  18.045  0.00  0.00    +0.000 A 
ATOM     14  C   UNL     1       1.999   5.371  17.856  0.00  0.00    +0.000 A 
BRANCH  12  15
ATOM     15  C   UNL     1       3.597   2.118  18.786  0.00  0.00    +0.000 C 
ATOM     16  N   UNL     1       3.779   0.981  18.900  0.00  0.00    +0.000 NA
ENDBRANCH  12  15
ENDBRANCH   5   9
BRANCH   1  17
ATOM     17  C   UNL     1      -0.358   9.398  22.454  0.00  0.00    +0.000 C 
ATOM     18  O   UNL     1      -0.505   8.193  22.351  0.00  0.00    +0.000 OA
BRANCH  17  19
ATOM     19  O   UNL     1      -0.849  10.174  23.454  0.00  0.00    +0.000 OA
BRANCH  19  21
ATOM     20  C   UNL     1      -2.570  11.818  23.423  0.00  0.00    +0.000 C 
ATOM     21  C   UNL     1      -1.119  11.534  23.075  0.00  0.00    +0.000 C 
ENDBRANCH  19  21
ENDBRANCH  17  19
ENDBRANCH   1  17
BRANCH   8  22
ATOM     22  C   UNL     1       0.947  12.083  19.050  0.00  0.00    +0.000 C 
BRANCH  22  23
ATOM     23  C   UNL     1      -0.454  12.486  18.556  0.00  0.00    +0.000 C 
ATOM     24  O   UNL     1      -0.680  13.646  18.206  0.00  0.00    +0.000 OA
ATOM     25  N   UNL     1      -1.441  11.530  18.537  0.00  0.00    +0.000 N 
ATOM     26  H   UNL     1      -1.339  10.682  19.082  0.00  0.00    +0.000 HD
BRANCH  25  27
ATOM     27  C   UNL     1      -2.768  11.891  18.079  0.00  0.00    +0.000 C 
BRANCH  27  28
ATOM     28  C   UNL     1      -3.091  11.194  16.812  0.00  0.00    +0.000 A 
ATOM     29  C   UNL     1      -4.206  11.178  15.996  0.00  0.00    +0.000 A 
ATOM     30  C   UNL     1      -3.916  10.281  14.939  0.00  0.00    +0.000 A 
ATOM     31  C   UNL     1      -2.653   9.796  15.185  0.00  0.00    +0.000 A 
ATOM     32  O   UNL     1      -2.142  10.347  16.317  0.00  0.00    +0.000 OA
ENDBRANCH  27  28
ENDBRANCH  25  27
ENDBRANCH  22  23
ENDBRANCH   8  22
TORSDOF 9
ENDMDL
MODEL 5
REMARK VINA RESULT:      -7.0      5.332     10.969
REMARK  Name = 
REMARK  10 active torsions:
REMARK  status: ('A' for Active; 'I' for Inactive)
REMARK    1  A    between atoms: C_1  and  C_2
REMARK    2  A    between atoms: C_2  and  O_3
REMARK    3  A    between atoms: O_3  and  C_4
REMARK    4  A    between atoms: C_4  and  C_6
REMARK    5  A    between atoms: C_10  and  C_11
REMARK    6  A    between atoms: C_14  and  C_15
REMARK    7  A    between atoms: N_21  and  C_22
REMARK    8  A    between atoms: C_22  and  C_23
REMARK    9  A    between atoms: N_25  and  C_26
REMARK   10  A    between atoms: C_26  and  C_27
REMARK                            x       y       z     vdW  Elec       q    Type
REMARK                         _______ _______ _______ _____ _____    ______ ____
ROOT
ATOM      1  C   UNL     1      -1.604  11.699  19.614  0.00  0.00    +0.000 C 
ATOM      2  C   UNL     1      -0.826  10.959  20.419  0.00  0.00    +0.000 A 
ATOM      3  S   UNL     1       0.080   9.594  19.842  0.00  0.00    +0.000 S 
ATOM      4  C   UNL     1       0.534   9.125  21.436  0.00  0.00    +0.000 A 
ATOM      5  C   UNL     1       1.214   8.013  21.757  0.00  0.00    +0.000 C 
ATOM      6  C   UNL     1       0.072  10.124  22.436  0.00  0.00    +0.000 A 
ATOM      7  O   UNL     1       0.307  10.055  23.633  0.00  0.00    +0.000 OA
ATOM      8  N   UNL     1      -0.662  11.121  21.790  0.00  0.00    +0.000 N 
ENDROOT
BRANCH   5   9
ATOM      9  C   UNL     1       1.674   7.055  20.742  0.00  0.00    +0.000 A 
ATOM     10  C   UNL     1       2.189   7.519  19.527  0.00  0.00    +0.000 A 
ATOM     11  C   UNL     1       2.443   6.628  18.478  0.00  0.00    +0.000 A 
ATOM     12  C   UNL     1       2.199   5.259  18.647  0.00  0.00    +0.000 A 
ATOM     13  C   UNL     1       1.725   4.788  19.875  0.00  0.00    +0.000 A 
ATOM     14  C   UNL     1       1.464   5.682  20.921  0.00  0.00    +0.000 A 
BRANCH  12  15
ATOM     15  C   UNL     1       2.401   4.351  17.551  0.00  0.00    +0.000 C 
ATOM     16  N   UNL     1       2.570   3.628  16.664  0.00  0.00    +0.000 NA
ENDBRANCH  12  15
ENDBRANCH   5   9
BRANCH   1  17
ATOM     17  C   UNL     1      -1.622  11.585  18.131  0.00  0.00    +0.000 C 
ATOM     18  O   UNL     1      -1.055  12.329  17.350  0.00  0.00    +0.000 OA
BRANCH  17  19
ATOM     19  O   UNL     1      -2.527  10.629  17.799  0.00  0.00    +0.000 OA
BRANCH  19  21
ATOM     20  C   UNL     1      -3.043  10.051  15.548  0.00  0.00    +0.000 C 
ATOM     21  C   UNL     1      -3.387  10.979  16.702  0.00  0.00    +0.000 C 
ENDBRANCH  19  21
ENDBRANCH  17  19
ENDBRANCH   1  17
BRANCH   8  22
ATOM     22  C   UNL     1      -1.185  12.222  22.592  0.00  0.00    +0.000 C 
BRANCH  22  23
ATOM     23  C   UNL     1      -2.704  12.291  22.830  0.00  0.00    +0.000 C 
ATOM     24  O   UNL     1      -3.223  11.626  23.729  0.00  0.00    +0.000 OA
ATOM     25  N   UNL     1      -3.460  13.090  22.006  0.00  0.00    +0.000 N 
ATOM     26  H   UNL     1      -3.089  13.395  21.114  0.00  0.00    +0.000 HD
BRANCH  25  27
ATOM     27  C   UNL     1      -4.893  13.164  22.212  0.00  0.00    +0.000 C 
BRANCH  27  28
ATOM     28  C   UNL     1      -5.611  12.419  21.152  0.00  0.00    +0.000 A 
ATOM     29  C   UNL     1      -5.493  12.376  19.776  0.00  0.00    +0.000 A 
ATOM     30  C   UNL     1      -6.499  11.492  19.315  0.00  0.00    +0.000 A 
ATOM     31  C   UNL     1      -7.176  11.066  20.433  0.00  0.00    +0.000 A 
ATOM     32  O   UNL     1      -6.643  11.619  21.553  0.00  0.00    +0.000 OA
ENDBRANCH  27  28
ENDBRANCH  25  27
ENDBRANCH  22  23
ENDBRANCH   8  22
TORSDOF 9
ENDMDL
MODEL 6
REMARK VINA RESULT:      -6.9      5.601     11.671
REMARK  Name = 
REMARK  10 active torsions:
REMARK  status: ('A' for Active; 'I' for Inactive)
REMARK    1  A    between atoms: C_1  and  C_2
REMARK    2  A    between atoms: C_2  and  O_3
REMARK    3  A    between atoms: O_3  and  C_4
REMARK    4  A    between atoms: C_4  and  C_6
REMARK    5  A    between atoms: C_10  and  C_11
REMARK    6  A    between atoms: C_14  and  C_15
REMARK    7  A    between atoms: N_21  and  C_22
REMARK    8  A    between atoms: C_22  and  C_23
REMARK    9  A    between atoms: N_25  and  C_26
REMARK   10  A    between atoms: C_26  and  C_27
REMARK                            x       y       z     vdW  Elec       q    Type
REMARK                         _______ _______ _______ _____ _____    ______ ____
ROOT
ATOM      1  C   UNL     1      -3.087  11.864  18.838  0.00  0.00    +0.000 C 
ATOM      2  C   UNL     1      -1.873  11.667  19.376  0.00  0.00    +0.000 A 
ATOM      3  S   UNL     1      -0.924  10.250  19.043  0.00  0.00    +0.000 S 
ATOM      4  C   UNL     1       0.248  10.662  20.235  0.00  0.00    +0.000 A 
ATOM      5  C   UNL     1       1.290   9.896  20.600  0.00  0.00    +0.000 C 
ATOM      6  C   UNL     1      -0.038  11.997  20.823  0.00  0.00    +0.000 A 
ATOM      7  O   UNL     1       0.670  12.545  21.655  0.00  0.00    +0.000 OA
ATOM      8  N   UNL     1      -1.224  12.498  20.281  0.00  0.00    +0.000 N 
ENDROOT
BRANCH   5   9
ATOM      9  C   UNL     1       1.556   8.589  19.984  0.00  0.00    +0.000 A 
ATOM     10  C   UNL     1       1.472   7.424  20.755  0.00  0.00    +0.000 A 
ATOM     11  C   UNL     1       1.914   6.200  20.241  0.00  0.00    +0.000 A 
ATOM     12  C   UNL     1       2.427   6.132  18.939  0.00  0.00    +0.000 A 
ATOM     13  C   UNL     1       2.472   7.286  18.153  0.00  0.00    +0.000 A 
ATOM     14  C   UNL     1       2.037   8.512  18.672  0.00  0.00    +0.000 A 
BRANCH  12  15
ATOM     15  C   UNL     1       2.938   4.888  18.432  0.00  0.00    +0.000 C 
ATOM     16  N   UNL     1       3.349   3.890  18.013  0.00  0.00    +0.000 NA
ENDBRANCH  12  15
ENDBRANCH   5   9
BRANCH   1  17
ATOM     17  C   UNL     1      -3.668  11.027  17.754  0.00  0.00    +0.000 C 
ATOM     18  O   UNL     1      -4.389  10.057  17.910  0.00  0.00    +0.000 OA
BRANCH  17  19
ATOM     19  O   UNL     1      -3.107  11.417  16.581  0.00  0.00    +0.000 OA
BRANCH  19  21
ATOM     20  C   UNL     1      -3.459  10.233  14.546  0.00  0.00    +0.000 C 
ATOM     21  C   UNL     1      -2.585  10.340  15.785  0.00  0.00    +0.000 C 
ENDBRANCH  19  21
ENDBRANCH  17  19
ENDBRANCH   1  17
BRANCH   8  22
ATOM     22  C   UNL     1      -1.672  13.820  20.706  0.00  0.00    +0.000 C 
BRANCH  22  23
ATOM     23  C   UNL     1      -2.426  13.937  22.042  0.00  0.00    +0.000 C 
ATOM     24  O   UNL     1      -2.047  14.734  22.903  0.00  0.00    +0.000 OA
ATOM     25  N   UNL     1      -3.511  13.120  22.255  0.00  0.00    +0.000 N 
ATOM     26  H   UNL     1      -3.641  12.289  21.690  0.00  0.00    +0.000 HD
BRANCH  25  27
ATOM     27  C   UNL     1      -4.232  13.213  23.509  0.00  0.00    +0.000 C 
BRANCH  27  28
ATOM     28  C   UNL     1      -5.677  12.957  23.301  0.00  0.00    +0.000 A 
ATOM     29  C   UNL     1      -6.806  13.227  24.050  0.00  0.00    +0.000 A 
ATOM     30  C   UNL     1      -7.902  12.698  23.327  0.00  0.00    +0.000 A 
ATOM     31  C   UNL     1      -7.374  12.125  22.194  0.00  0.00    +0.000 A 
ATOM     32  O   UNL     1      -6.024  12.280  22.167  0.00  0.00    +0.000 OA
ENDBRANCH  27  28
ENDBRANCH  25  27
ENDBRANCH  22  23
ENDBRANCH   8  22
TORSDOF 9
ENDMDL
MODEL 7
REMARK VINA RESULT:      -6.9      5.728     11.905
REMARK  Name = 
REMARK  10 active torsions:
REMARK  status: ('A' for Active; 'I' for Inactive)
REMARK    1  A    between atoms: C_1  and  C_2
REMARK    2  A    between atoms: C_2  and  O_3
REMARK    3  A    between atoms: O_3  and  C_4
REMARK    4  A    between atoms: C_4  and  C_6
REMARK    5  A    between atoms: C_10  and  C_11
REMARK    6  A    between atoms: C_14  and  C_15
REMARK    7  A    between atoms: N_21  and  C_22
REMARK    8  A    between atoms: C_22  and  C_23
REMARK    9  A    between atoms: N_25  and  C_26
REMARK   10  A    between atoms: C_26  and  C_27
REMARK                            x       y       z     vdW  Elec       q    Type
REMARK                         _______ _______ _______ _____ _____    ______ ____
ROOT
ATOM      1  C   UNL     1      -1.739  11.974  19.793  0.00  0.00    +0.000 C 
ATOM      2  C   UNL     1      -0.948  11.161  20.511  0.00  0.00    +0.000 A 
ATOM      3  S   UNL     1       0.019   9.917  19.779  0.00  0.00    +0.000 S 
ATOM      4  C   UNL     1       0.462   9.257  21.306  0.00  0.00    +0.000 A 
ATOM      5  C   UNL     1       1.178   8.136  21.492  0.00  0.00    +0.000 C 
ATOM      6  C   UNL     1      -0.054  10.098  22.419  0.00  0.00    +0.000 A 
ATOM      7  O   UNL     1       0.164   9.879  23.601  0.00  0.00    +0.000 OA
ATOM      8  N   UNL     1      -0.813  11.146  21.893  0.00  0.00    +0.000 N 
ENDROOT
BRANCH   5   9
ATOM      9  C   UNL     1       1.690   7.337  20.370  0.00  0.00    +0.000 A 
ATOM     10  C   UNL     1       1.793   5.948  20.492  0.00  0.00    +0.000 A 
ATOM     11  C   UNL     1       2.460   5.198  19.517  0.00  0.00    +0.000 A 
ATOM     12  C   UNL     1       3.015   5.837  18.400  0.00  0.00    +0.000 A 
ATOM     13  C   UNL     1       2.877   7.219  18.256  0.00  0.00    +0.000 A 
ATOM     14  C   UNL     1       2.216   7.970  19.237  0.00  0.00    +0.000 A 
BRANCH  12  15
ATOM     15  C   UNL     1       3.754   5.076  17.430  0.00  0.00    +0.000 C 
ATOM     16  N   UNL     1       4.349   4.472  16.642  0.00  0.00    +0.000 NA
ENDBRANCH  12  15
ENDBRANCH   5   9
BRANCH   1  17
ATOM     17  C   UNL     1      -1.727  12.057  18.308  0.00  0.00    +0.000 C 
ATOM     18  O   UNL     1      -0.963  12.727  17.635  0.00  0.00    +0.000 OA
BRANCH  17  19
ATOM     19  O   UNL     1      -2.828  11.408  17.847  0.00  0.00    +0.000 OA
BRANCH  19  21
ATOM     20  C   UNL     1      -2.765  10.526  15.637  0.00  0.00    +0.000 C 
ATOM     21  C   UNL     1      -2.545  10.209  17.107  0.00  0.00    +0.000 C 
ENDBRANCH  19  21
ENDBRANCH  17  19
ENDBRANCH   1  17
BRANCH   8  22
ATOM     22  C   UNL     1      -1.390  12.112  22.823  0.00  0.00    +0.000 C 
BRANCH  22  23
ATOM     23  C   UNL     1      -0.790  13.528  22.866  0.00  0.00    +0.000 C 
ATOM     24  O   UNL     1       0.360  13.728  22.468  0.00  0.00    +0.000 OA
ATOM     25  N   UNL     1      -1.557  14.549  23.375  0.00  0.00    +0.000 N 
ATOM     26  H   UNL     1      -2.362  14.340  23.953  0.00  0.00    +0.000 HD
BRANCH  25  27
ATOM     27  C   UNL     1      -1.007  15.889  23.427  0.00  0.00    +0.000 C 
BRANCH  27  28
ATOM     28  C   UNL     1      -0.718  16.280  24.827  0.00  0.00    +0.000 A 
ATOM     29  C   UNL     1      -1.506  16.424  25.953  0.00  0.00    +0.000 A 
ATOM     30  C   UNL     1      -0.647  16.861  26.990  0.00  0.00    +0.000 A 
ATOM     31  C   UNL     1       0.604  16.973  26.429  0.00  0.00    +0.000 A 
ATOM     32  O   UNL     1       0.572  16.619  25.118  0.00  0.00    +0.000 OA
ENDBRANCH  27  28
ENDBRANCH  25  27
ENDBRANCH  22  23
ENDBRANCH   8  22
TORSDOF 9
ENDMDL
MODEL 8
REMARK VINA RESULT:      -6.8      4.512      7.697
REMARK  Name = 
REMARK  10 active torsions:
REMARK  status: ('A' for Active; 'I' for Inactive)
REMARK    1  A    between atoms: C_1  and  C_2
REMARK    2  A    between atoms: C_2  and  O_3
REMARK    3  A    between atoms: O_3  and  C_4
REMARK    4  A    between atoms: C_4  and  C_6
REMARK    5  A    between atoms: C_10  and  C_11
REMARK    6  A    between atoms: C_14  and  C_15
REMARK    7  A    between atoms: N_21  and  C_22
REMARK    8  A    between atoms: C_22  and  C_23
REMARK    9  A    between atoms: N_25  and  C_26
REMARK   10  A    between atoms: C_26  and  C_27
REMARK                            x       y       z     vdW  Elec       q    Type
REMARK                         _______ _______ _______ _____ _____    ______ ____
ROOT
ATOM      1  C   UNL     1      -1.359  10.411  17.823  0.00  0.00    +0.000 C 
ATOM      2  C   UNL     1      -0.935  10.867  19.012  0.00  0.00    +0.000 A 
ATOM      3  S   UNL     1      -2.009  11.588  20.171  0.00  0.00    +0.000 S 
ATOM      4  C   UNL     1      -0.708  12.077  21.187  0.00  0.00    +0.000 A 
ATOM      5  C   UNL     1      -0.824  12.823  22.298  0.00  0.00    +0.000 C 
ATOM      6  C   UNL     1       0.590  11.560  20.676  0.00  0.00    +0.000 A 
ATOM      7  O   UNL     1       1.662  11.722  21.238  0.00  0.00    +0.000 OA
ATOM      8  N   UNL     1       0.376  10.884  19.472  0.00  0.00    +0.000 N 
ENDROOT
BRANCH   5   9
ATOM      9  C   UNL     1      -2.124  13.302  22.788  0.00  0.00    +0.000 A 
ATOM     10  C   UNL     1      -2.959  12.440  23.507  0.00  0.00    +0.000 A 
ATOM     11  C   UNL     1      -4.274  12.813  23.807  0.00  0.00    +0.000 A 
ATOM     12  C   UNL     1      -4.757  14.064  23.400  0.00  0.00    +0.000 A 
ATOM     13  C   UNL     1      -3.912  14.943  22.718  0.00  0.00    +0.000 A 
ATOM     14  C   UNL     1      -2.598  14.565  22.413  0.00  0.00    +0.000 A 
BRANCH  12  15
ATOM     15  C   UNL     1      -6.126  14.423  23.652  0.00  0.00    +0.000 C 
ATOM     16  N   UNL     1      -7.225  14.723  23.855  0.00  0.00    +0.000 NA
ENDBRANCH  12  15
ENDBRANCH   5   9
BRANCH   1  17
ATOM     17  C   UNL     1      -2.791  10.269  17.443  0.00  0.00    +0.000 C 
ATOM     18  O   UNL     1      -3.540   9.375  17.798  0.00  0.00    +0.000 OA
BRANCH  17  19
ATOM     19  O   UNL     1      -3.061  11.197  16.490  0.00  0.00    +0.000 OA
BRANCH  19  21
ATOM     20  C   UNL     1      -3.018  10.120  14.367  0.00  0.00    +0.000 C 
ATOM     21  C   UNL     1      -3.914  10.731  15.431  0.00  0.00    +0.000 C 
ENDBRANCH  19  21
ENDBRANCH  17  19
ENDBRANCH   1  17
BRANCH   8  22
ATOM     22  C   UNL     1       1.525  10.270  18.813  0.00  0.00    +0.000 C 
BRANCH  22  23
ATOM     23  C   UNL     1       1.793   8.776  19.064  0.00  0.00    +0.000 C 
ATOM     24  O   UNL     1       1.653   8.299  20.192  0.00  0.00    +0.000 OA
ATOM     25  N   UNL     1       2.211   8.000  18.009  0.00  0.00    +0.000 N 
ATOM     26  H   UNL     1       2.597   8.435  17.179  0.00  0.00    +0.000 HD
BRANCH  25  27
ATOM     27  C   UNL     1       2.474   6.591  18.227  0.00  0.00    +0.000 C 
BRANCH  27  28
ATOM     28  C   UNL     1       3.810   6.222  17.703  0.00  0.00    +0.000 A 
ATOM     29  C   UNL     1       4.629   6.763  16.730  0.00  0.00    +0.000 A 
ATOM     30  C   UNL     1       5.774   5.932  16.664  0.00  0.00    +0.000 A 
ATOM     31  C   UNL     1       5.573   4.930  17.584  0.00  0.00    +0.000 A 
ATOM     32  O   UNL     1       4.386   5.100  18.223  0.00  0.00    +0.000 OA
ENDBRANCH  27  28
ENDBRANCH  25  27
ENDBRANCH  22  23
ENDBRANCH   8  22
TORSDOF 9
ENDMDL
MODEL 9
REMARK VINA RESULT:      -6.8      5.478     11.962
REMARK  Name = 
REMARK  10 active torsions:
REMARK  status: ('A' for Active; 'I' for Inactive)
REMARK    1  A    between atoms: C_1  and  C_2
REMARK    2  A    between atoms: C_2  and  O_3
REMARK    3  A    between atoms: O_3  and  C_4
REMARK    4  A    between atoms: C_4  and  C_6
REMARK    5  A    between atoms: C_10  and  C_11
REMARK    6  A    between atoms: C_14  and  C_15
REMARK    7  A    between atoms: N_21  and  C_22
REMARK    8  A    between atoms: C_22  and  C_23
REMARK    9  A    between atoms: N_25  and  C_26
REMARK   10  A    between atoms: C_26  and  C_27
REMARK                            x       y       z     vdW  Elec       q    Type
REMARK                         _______ _______ _______ _____ _____    ______ ____
ROOT
ATOM      1  C   UNL     1      -1.586  11.885  19.684  0.00  0.00    +0.000 C 
ATOM      2  C   UNL     1      -0.808  11.079  20.423  0.00  0.00    +0.000 A 
ATOM      3  S   UNL     1       0.077   9.752  19.736  0.00  0.00    +0.000 S 
ATOM      4  C   UNL     1       0.544   9.162  21.285  0.00  0.00    +0.000 A 
ATOM      5  C   UNL     1       1.216   8.022  21.515  0.00  0.00    +0.000 C 
ATOM      6  C   UNL     1       0.104  10.088  22.362  0.00  0.00    +0.000 A 
ATOM      7  O   UNL     1       0.352   9.929  23.547  0.00  0.00    +0.000 OA
ATOM      8  N   UNL     1      -0.626  11.138  21.800  0.00  0.00    +0.000 N 
ENDROOT
BRANCH   5   9
ATOM      9  C   UNL     1       1.654   7.137  20.426  0.00  0.00    +0.000 A 
ATOM     10  C   UNL     1       1.566   5.749  20.576  0.00  0.00    +0.000 A 
ATOM     11  C   UNL     1       2.159   4.896  19.639  0.00  0.00    +0.000 A 
ATOM     12  C   UNL     1       2.831   5.430  18.532  0.00  0.00    +0.000 A 
ATOM     13  C   UNL     1       2.883   6.815  18.357  0.00  0.00    +0.000 A 
ATOM     14  C   UNL     1       2.296   7.668  19.300  0.00  0.00    +0.000 A 
BRANCH  12  15
ATOM     15  C   UNL     1       3.493   4.556  17.602  0.00  0.00    +0.000 C 
ATOM     16  N   UNL     1       4.021   3.844  16.858  0.00  0.00    +0.000 NA
ENDBRANCH  12  15
ENDBRANCH   5   9
BRANCH   1  17
ATOM     17  C   UNL     1      -1.623  11.881  18.197  0.00  0.00    +0.000 C 
ATOM     18  O   UNL     1      -1.040  12.663  17.466  0.00  0.00    +0.000 OA
BRANCH  17  19
ATOM     19  O   UNL     1      -2.561  10.981  17.807  0.00  0.00    +0.000 OA
BRANCH  19  21
ATOM     20  C   UNL     1      -2.867  10.348  15.532  0.00  0.00    +0.000 C 
ATOM     21  C   UNL     1      -3.270  11.341  16.610  0.00  0.00    +0.000 C 
ENDBRANCH  19  21
ENDBRANCH  17  19
ENDBRANCH   1  17
BRANCH   8  22
ATOM     22  C   UNL     1      -1.128  12.182  22.688  0.00  0.00    +0.000 C 
BRANCH  22  23
ATOM     23  C   UNL     1      -2.631  12.194  23.019  0.00  0.00    +0.000 C 
ATOM     24  O   UNL     1      -3.094  11.393  23.833  0.00  0.00    +0.000 OA
ATOM     25  N   UNL     1      -3.436  13.100  22.372  0.00  0.00    +0.000 N 
ATOM     26  H   UNL     1      -3.119  13.543  21.518  0.00  0.00    +0.000 HD
BRANCH  25  27
ATOM     27  C   UNL     1      -4.856  13.123  22.668  0.00  0.00    +0.000 C 
BRANCH  27  28
ATOM     28  C   UNL     1      -5.237  14.412  23.290  0.00  0.00    +0.000 A 
ATOM     29  C   UNL     1      -6.428  15.107  23.378  0.00  0.00    +0.000 A 
ATOM     30  C   UNL     1      -6.142  16.307  24.074  0.00  0.00    +0.000 A 
ATOM     31  C   UNL     1      -4.796  16.276  24.351  0.00  0.00    +0.000 A 
ATOM     32  O   UNL     1      -4.238  15.129  23.883  0.00  0.00    +0.000 OA
ENDBRANCH  27  28
ENDBRANCH  25  27
ENDBRANCH  22  23
ENDBRANCH   8  22
TORSDOF 9
ENDMDL
