MODEL 1
REMARK VINA RESULT:      -8.2      0.000      0.000
REMARK  Name = 
REMARK  11 active torsions:
REMARK  status: ('A' for Active; 'I' for Inactive)
REMARK    1  A    between atoms: C_1  and  O_2
REMARK    2  A    between atoms: O_2  and  C_3
REMARK    3  A    between atoms: C_5  and  C_6
REMARK    4  A    between atoms: N_8  and  O_9
REMARK    5  A    between atoms: C_11  and  O_12
REMARK    6  A    between atoms: O_12  and  C_13
REMARK    7  A    between atoms: C_14  and  O_15
REMARK    8  A    between atoms: O_15  and  C_16
REMARK    9  A    between atoms: C_16  and  C_17
REMARK   10  A    between atoms: C_20  and  C_21
REMARK   11  A    between atoms: N_23  and  O_24
REMARK                            x       y       z     vdW  Elec       q    Type
REMARK                         _______ _______ _______ _____ _____    ______ ____
ROOT
ATOM      1  C   UNL     1       5.931   4.998  18.627  0.00  0.00    +0.000 A 
ATOM      2  C   UNL     1       6.630   4.868  17.420  0.00  0.00    +0.000 A 
ATOM      3  C   UNL     1       6.000   4.369  16.290  0.00  0.00    +0.000 A 
ATOM      4  C   UNL     1       4.703   3.873  16.391  0.00  0.00    +0.000 A 
ATOM      5  C   UNL     1       4.008   3.915  17.612  0.00  0.00    +0.000 A 
ATOM      6  C   UNL     1       4.606   4.506  18.751  0.00  0.00    +0.000 A 
ENDROOT
BRANCH   3   7
ATOM      7  C   UNL     1       6.685   4.479  14.973  0.00  0.00    +0.000 C 
ATOM      8  N   UNL     1       6.361   3.605  13.966  0.00  0.00    +0.000 N 
ATOM      9  N   UNL     1       7.567   5.426  14.823  0.00  0.00    +0.000 NA
ATOM     10  H   UNL     1       6.223   2.648  14.249  0.00  0.00    +0.000 HD
ATOM     11  H   UNL     1       7.028   3.701  13.205  0.00  0.00    +0.000 HD
BRANCH   9  12
ATOM     12  O   UNL     1       8.102   5.427  13.528  0.00  0.00    +0.000 OA
ATOM     13  H   UNL     1       9.059   5.358  13.704  0.00  0.00    +0.000 HD
ENDBRANCH   9  12
ENDBRANCH   3   7
BRANCH   1  15
ATOM     14  C   UNL     1       7.967   5.839  19.506  0.00  0.00    +0.000 C 
ATOM     15  O   UNL     1       6.570   5.585  19.692  0.00  0.00    +0.000 OA
ENDBRANCH   1  15
BRANCH   5  16
ATOM     16  O   UNL     1       2.759   3.362  17.473  0.00  0.00    +0.000 OA
ATOM     17  C   UNL     1       2.548   2.002  17.807  0.00  0.00    +0.000 C 
ENDBRANCH   5  16
BRANCH   6  18
ATOM     18  O   UNL     1       3.830   4.576  19.888  0.00  0.00    +0.000 OA
BRANCH  18  19
ATOM     19  C   UNL     1       2.455   4.921  19.750  0.00  0.00    +0.000 C 
BRANCH  19  20
ATOM     20  C   UNL     1       2.203   6.384  19.449  0.00  0.00    +0.000 A 
ATOM     21  C   UNL     1       1.742   7.313  20.391  0.00  0.00    +0.000 A 
ATOM     22  C   UNL     1       1.527   8.647  20.025  0.00  0.00    +0.000 A 
ATOM     23  C   UNL     1       1.769   9.065  18.711  0.00  0.00    +0.000 A 
ATOM     24  C   UNL     1       2.215   8.144  17.762  0.00  0.00    +0.000 A 
ATOM     25  C   UNL     1       2.436   6.819  18.134  0.00  0.00    +0.000 A 
BRANCH  23  26
ATOM     26  C   UNL     1       1.568  10.489  18.314  0.00  0.00    +0.000 C 
ATOM     27  N   UNL     1       0.320  11.049  18.448  0.00  0.00    +0.000 N 
ATOM     28  N   UNL     1       2.593  11.165  17.877  0.00  0.00    +0.000 NA
ATOM     29  H   UNL     1      -0.174  10.779  19.291  0.00  0.00    +0.000 HD
ATOM     30  H   UNL     1       0.398  12.060  18.358  0.00  0.00    +0.000 HD
BRANCH  28  31
ATOM     31  O   UNL     1       2.233  12.491  17.585  0.00  0.00    +0.000 OA
ATOM     32  H   UNL     1       1.486  12.363  16.970  0.00  0.00    +0.000 HD
ENDBRANCH  28  31
ENDBRANCH  23  26
ENDBRANCH  19  20
ENDBRANCH  18  19
ENDBRANCH   6  18
TORSDOF 9
ENDMDL
MODEL 2
REMARK VINA RESULT:      -8.1      0.782      1.339
REMARK  Name = 
REMARK  11 active torsions:
REMARK  status: ('A' for Active; 'I' for Inactive)
REMARK    1  A    between atoms: C_1  and  O_2
REMARK    2  A    between atoms: O_2  and  C_3
REMARK    3  A    between atoms: C_5  and  C_6
REMARK    4  A    between atoms: N_8  and  O_9
REMARK    5  A    between atoms: C_11  and  O_12
REMARK    6  A    between atoms: O_12  and  C_13
REMARK    7  A    between atoms: C_14  and  O_15
REMARK    8  A    between atoms: O_15  and  C_16
REMARK    9  A    between atoms: C_16  and  C_17
REMARK   10  A    between atoms: C_20  and  C_21
REMARK   11  A    between atoms: N_23  and  O_24
REMARK                            x       y       z     vdW  Elec       q    Type
REMARK                         _______ _______ _______ _____ _____    ______ ____
ROOT
ATOM      1  C   UNL     1       6.114   5.133  18.313  0.00  0.00    +0.000 A 
ATOM      2  C   UNL     1       6.747   5.016  17.069  0.00  0.00    +0.000 A 
ATOM      3  C   UNL     1       6.126   4.352  16.022  0.00  0.00    +0.000 A 
ATOM      4  C   UNL     1       4.924   3.687  16.249  0.00  0.00    +0.000 A 
ATOM      5  C   UNL     1       4.309   3.718  17.512  0.00  0.00    +0.000 A 
ATOM      6  C   UNL     1       4.886   4.469  18.565  0.00  0.00    +0.000 A 
ENDROOT
BRANCH   3   7
ATOM      7  C   UNL     1       6.702   4.462  14.654  0.00  0.00    +0.000 C 
ATOM      8  N   UNL     1       6.354   3.543  13.696  0.00  0.00    +0.000 N 
ATOM      9  N   UNL     1       7.515   5.452  14.413  0.00  0.00    +0.000 NA
ATOM     10  H   UNL     1       6.293   2.588  14.012  0.00  0.00    +0.000 HD
ATOM     11  H   UNL     1       6.956   3.653  12.885  0.00  0.00    +0.000 HD
BRANCH   9  12
ATOM     12  O   UNL     1       7.950   5.445  13.081  0.00  0.00    +0.000 OA
ATOM     13  H   UNL     1       7.157   5.124  12.612  0.00  0.00    +0.000 HD
ENDBRANCH   9  12
ENDBRANCH   3   7
BRANCH   1  15
ATOM     14  C   UNL     1       8.054   6.324  18.982  0.00  0.00    +0.000 C 
ATOM     15  O   UNL     1       6.728   5.880  19.290  0.00  0.00    +0.000 OA
ENDBRANCH   1  15
BRANCH   5  16
ATOM     16  O   UNL     1       3.149   2.986  17.500  0.00  0.00    +0.000 OA
ATOM     17  C   UNL     1       3.143   1.664  18.007  0.00  0.00    +0.000 C 
ENDBRANCH   5  16
BRANCH   6  18
ATOM     18  O   UNL     1       4.182   4.511  19.749  0.00  0.00    +0.000 OA
BRANCH  18  19
ATOM     19  C   UNL     1       2.781   4.760  19.696  0.00  0.00    +0.000 C 
BRANCH  19  20
ATOM     20  C   UNL     1       2.410   6.206  19.438  0.00  0.00    +0.000 A 
ATOM     21  C   UNL     1       2.597   6.859  18.213  0.00  0.00    +0.000 A 
ATOM     22  C   UNL     1       2.234   8.203  18.063  0.00  0.00    +0.000 A 
ATOM     23  C   UNL     1       1.681   8.908  19.139  0.00  0.00    +0.000 A 
ATOM     24  C   UNL     1       1.504   8.269  20.367  0.00  0.00    +0.000 A 
ATOM     25  C   UNL     1       1.859   6.929  20.509  0.00  0.00    +0.000 A 
BRANCH  23  26
ATOM     26  C   UNL     1       1.266  10.332  18.986  0.00  0.00    +0.000 C 
ATOM     27  N   UNL     1       1.689  11.035  17.882  0.00  0.00    +0.000 N 
ATOM     28  N   UNL     1       0.491  10.857  19.892  0.00  0.00    +0.000 NA
ATOM     29  H   UNL     1       1.684  10.506  17.018  0.00  0.00    +0.000 HD
ATOM     30  H   UNL     1       1.148  11.893  17.808  0.00  0.00    +0.000 HD
BRANCH  28  31
ATOM     31  O   UNL     1       0.172  12.187  19.572  0.00  0.00    +0.000 OA
ATOM     32  H   UNL     1      -0.177  12.518  20.422  0.00  0.00    +0.000 HD
ENDBRANCH  28  31
ENDBRANCH  23  26
ENDBRANCH  19  20
ENDBRANCH  18  19
ENDBRANCH   6  18
TORSDOF 9
ENDMDL
MODEL 3
REMARK VINA RESULT:      -8.1      1.085      1.272
REMARK  Name = 
REMARK  11 active torsions:
REMARK  status: ('A' for Active; 'I' for Inactive)
REMARK    1  A    between atoms: C_1  and  O_2
REMARK    2  A    between atoms: O_2  and  C_3
REMARK    3  A    between atoms: C_5  and  C_6
REMARK    4  A    between atoms: N_8  and  O_9
REMARK    5  A    between atoms: C_11  and  O_12
REMARK    6  A    between atoms: O_12  and  C_13
REMARK    7  A    between atoms: C_14  and  O_15
REMARK    8  A    between atoms: O_15  and  C_16
REMARK    9  A    between atoms: C_16  and  C_17
REMARK   10  A    between atoms: C_20  and  C_21
REMARK   11  A    between atoms: N_23  and  O_24
REMARK                            x       y       z     vdW  Elec       q    Type
REMARK                         _______ _______ _______ _____ _____    ______ ____
ROOT
ATOM      1  C   UNL     1       6.506   5.662  17.788  0.00  0.00    +0.000 A 
ATOM      2  C   UNL     1       7.021   5.369  16.519  0.00  0.00    +0.000 A 
ATOM      3  C   UNL     1       6.310   4.572  15.636  0.00  0.00    +0.000 A 
ATOM      4  C   UNL     1       5.138   3.953  16.062  0.00  0.00    +0.000 A 
ATOM      5  C   UNL     1       4.642   4.163  17.360  0.00  0.00    +0.000 A 
ATOM      6  C   UNL     1       5.310   5.048  18.241  0.00  0.00    +0.000 A 
ENDROOT
BRANCH   3   7
ATOM      7  C   UNL     1       6.756   4.486  14.218  0.00  0.00    +0.000 C 
ATOM      8  N   UNL     1       6.266   3.490  13.412  0.00  0.00    +0.000 N 
ATOM      9  N   UNL     1       7.597   5.385  13.790  0.00  0.00    +0.000 NA
ATOM     10  H   UNL     1       6.183   2.583  13.844  0.00  0.00    +0.000 HD
ATOM     11  H   UNL     1       6.792   3.467  12.542  0.00  0.00    +0.000 HD
BRANCH   9  12
ATOM     12  O   UNL     1       7.900   5.198  12.434  0.00  0.00    +0.000 OA
ATOM     13  H   UNL     1       8.855   5.397  12.411  0.00  0.00    +0.000 HD
ENDBRANCH   9  12
ENDBRANCH   3   7
BRANCH   1  15
ATOM     14  C   UNL     1       7.799   7.647  17.916  0.00  0.00    +0.000 C 
ATOM     15  O   UNL     1       7.203   6.533  18.591  0.00  0.00    +0.000 OA
ENDBRANCH   1  15
BRANCH   5  16
ATOM     16  O   UNL     1       3.489   3.445  17.557  0.00  0.00    +0.000 OA
ATOM     17  C   UNL     1       3.562   2.093  17.972  0.00  0.00    +0.000 C 
ENDBRANCH   5  16
BRANCH   6  18
ATOM     18  O   UNL     1       4.718   5.260  19.468  0.00  0.00    +0.000 OA
BRANCH  18  19
ATOM     19  C   UNL     1       3.295   5.279  19.540  0.00  0.00    +0.000 C 
BRANCH  19  20
ATOM     20  C   UNL     1       2.675   6.644  19.323  0.00  0.00    +0.000 A 
ATOM     21  C   UNL     1       1.987   7.361  20.311  0.00  0.00    +0.000 A 
ATOM     22  C   UNL     1       1.436   8.616  20.022  0.00  0.00    +0.000 A 
ATOM     23  C   UNL     1       1.567   9.165  18.741  0.00  0.00    +0.000 A 
ATOM     24  C   UNL     1       2.239   8.452  17.747  0.00  0.00    +0.000 A 
ATOM     25  C   UNL     1       2.793   7.207  18.042  0.00  0.00    +0.000 A 
BRANCH  23  26
ATOM     26  C   UNL     1       1.007  10.511  18.427  0.00  0.00    +0.000 C 
ATOM     27  N   UNL     1       1.870  11.547  18.162  0.00  0.00    +0.000 N 
ATOM     28  N   UNL     1      -0.288  10.654  18.385  0.00  0.00    +0.000 NA
ATOM     29  H   UNL     1       2.676  11.292  17.604  0.00  0.00    +0.000 HD
ATOM     30  H   UNL     1       1.349  12.318  17.750  0.00  0.00    +0.000 HD
BRANCH  28  31
ATOM     31  O   UNL     1      -0.638  11.970  18.041  0.00  0.00    +0.000 OA
ATOM     32  H   UNL     1      -1.267  11.824  17.309  0.00  0.00    +0.000 HD
ENDBRANCH  28  31
ENDBRANCH  23  26
ENDBRANCH  19  20
ENDBRANCH  18  19
ENDBRANCH   6  18
TORSDOF 9
ENDMDL
MODEL 4
REMARK VINA RESULT:      -8.0      1.371      1.906
REMARK  Name = 
REMARK  11 active torsions:
REMARK  status: ('A' for Active; 'I' for Inactive)
REMARK    1  A    between atoms: C_1  and  O_2
REMARK    2  A    between atoms: O_2  and  C_3
REMARK    3  A    between atoms: C_5  and  C_6
REMARK    4  A    between atoms: N_8  and  O_9
REMARK    5  A    between atoms: C_11  and  O_12
REMARK    6  A    between atoms: O_12  and  C_13
REMARK    7  A    between atoms: C_14  and  O_15
REMARK    8  A    between atoms: O_15  and  C_16
REMARK    9  A    between atoms: C_16  and  C_17
REMARK   10  A    between atoms: C_20  and  C_21
REMARK   11  A    between atoms: N_23  and  O_24
REMARK                            x       y       z     vdW  Elec       q    Type
REMARK                         _______ _______ _______ _____ _____    ______ ____
ROOT
ATOM      1  C   UNL     1       6.663   5.823  17.683  0.00  0.00    +0.000 A 
ATOM      2  C   UNL     1       7.126   5.560  16.388  0.00  0.00    +0.000 A 
ATOM      3  C   UNL     1       6.471   4.646  15.577  0.00  0.00    +0.000 A 
ATOM      4  C   UNL     1       5.426   3.890  16.101  0.00  0.00    +0.000 A 
ATOM      5  C   UNL     1       4.995   4.075  17.426  0.00  0.00    +0.000 A 
ATOM      6  C   UNL     1       5.594   5.070  18.236  0.00  0.00    +0.000 A 
ENDROOT
BRANCH   3   7
ATOM      7  C   UNL     1       6.828   4.574  14.134  0.00  0.00    +0.000 C 
ATOM      8  N   UNL     1       7.775   5.427  13.626  0.00  0.00    +0.000 N 
ATOM      9  N   UNL     1       6.228   3.678  13.402  0.00  0.00    +0.000 NA
ATOM     10  H   UNL     1       7.731   6.375  13.965  0.00  0.00    +0.000 HD
ATOM     11  H   UNL     1       7.776   5.369  12.612  0.00  0.00    +0.000 HD
BRANCH   9  12
ATOM     12  O   UNL     1       6.687   3.706  12.079  0.00  0.00    +0.000 OA
ATOM     13  H   UNL     1       6.198   2.963  11.679  0.00  0.00    +0.000 HD
ENDBRANCH   9  12
ENDBRANCH   3   7
BRANCH   1  15
ATOM     14  C   UNL     1       7.713   7.950  17.666  0.00  0.00    +0.000 C 
ATOM     15  O   UNL     1       7.288   6.805  18.414  0.00  0.00    +0.000 OA
ENDBRANCH   1  15
BRANCH   5  16
ATOM     16  O   UNL     1       3.966   3.216  17.722  0.00  0.00    +0.000 OA
ATOM     17  C   UNL     1       2.735   3.325  17.031  0.00  0.00    +0.000 C 
ENDBRANCH   5  16
BRANCH   6  18
ATOM     18  O   UNL     1       5.064   5.240  19.496  0.00  0.00    +0.000 OA
BRANCH  18  19
ATOM     19  C   UNL     1       3.647   5.244  19.641  0.00  0.00    +0.000 C 
BRANCH  19  20
ATOM     20  C   UNL     1       2.978   6.541  19.235  0.00  0.00    +0.000 A 
ATOM     21  C   UNL     1       3.163   7.166  17.995  0.00  0.00    +0.000 A 
ATOM     22  C   UNL     1       2.512   8.371  17.704  0.00  0.00    +0.000 A 
ATOM     23  C   UNL     1       1.670   8.964  18.652  0.00  0.00    +0.000 A 
ATOM     24  C   UNL     1       1.491   8.356  19.896  0.00  0.00    +0.000 A 
ATOM     25  C   UNL     1       2.135   7.152  20.177  0.00  0.00    +0.000 A 
BRANCH  23  26
ATOM     26  C   UNL     1       0.951  10.235  18.346  0.00  0.00    +0.000 C 
ATOM     27  N   UNL     1       1.681  11.377  18.120  0.00  0.00    +0.000 N 
ATOM     28  N   UNL     1      -0.350  10.213  18.275  0.00  0.00    +0.000 NA
ATOM     29  H   UNL     1       2.526  11.237  17.578  0.00  0.00    +0.000 HD
ATOM     30  H   UNL     1       1.075  12.083  17.708  0.00  0.00    +0.000 HD
BRANCH  28  31
ATOM     31  O   UNL     1      -0.857  11.480  17.944  0.00  0.00    +0.000 OA
ATOM     32  H   UNL     1      -0.779  11.478  16.971  0.00  0.00    +0.000 HD
ENDBRANCH  28  31
ENDBRANCH  23  26
ENDBRANCH  19  20
ENDBRANCH  18  19
ENDBRANCH   6  18
TORSDOF 9
ENDMDL
MODEL 5
REMARK VINA RESULT:      -8.0      0.852      2.814
REMARK  Name = 
REMARK  11 active torsions:
REMARK  status: ('A' for Active; 'I' for Inactive)
REMARK    1  A    between atoms: C_1  and  O_2
REMARK    2  A    between atoms: O_2  and  C_3
REMARK    3  A    between atoms: C_5  and  C_6
REMARK    4  A    between atoms: N_8  and  O_9
REMARK    5  A    between atoms: C_11  and  O_12
REMARK    6  A    between atoms: O_12  and  C_13
REMARK    7  A    between atoms: C_14  and  O_15
REMARK    8  A    between atoms: O_15  and  C_16
REMARK    9  A    between atoms: C_16  and  C_17
REMARK   10  A    between atoms: C_20  and  C_21
REMARK   11  A    between atoms: N_23  and  O_24
REMARK                            x       y       z     vdW  Elec       q    Type
REMARK                         _______ _______ _______ _____ _____    ______ ____
ROOT
ATOM      1  C   UNL     1       4.305   3.944  17.157  0.00  0.00    +0.000 A 
ATOM      2  C   UNL     1       4.822   3.993  15.856  0.00  0.00    +0.000 A 
ATOM      3  C   UNL     1       5.985   4.698  15.586  0.00  0.00    +0.000 A 
ATOM      4  C   UNL     1       6.568   5.470  16.588  0.00  0.00    +0.000 A 
ATOM      5  C   UNL     1       6.020   5.505  17.881  0.00  0.00    +0.000 A 
ATOM      6  C   UNL     1       4.886   4.716  18.195  0.00  0.00    +0.000 A 
ENDROOT
BRANCH   3   7
ATOM      7  C   UNL     1       6.645   4.525  14.263  0.00  0.00    +0.000 C 
ATOM      8  N   UNL     1       6.314   3.451  13.475  0.00  0.00    +0.000 N 
ATOM      9  N   UNL     1       7.512   5.425  13.893  0.00  0.00    +0.000 NA
ATOM     10  H   UNL     1       6.193   2.577  13.962  0.00  0.00    +0.000 HD
ATOM     11  H   UNL     1       6.967   3.385  12.699  0.00  0.00    +0.000 HD
BRANCH   9  12
ATOM     12  O   UNL     1       8.024   5.149  12.618  0.00  0.00    +0.000 OA
ATOM     13  H   UNL     1       7.845   4.194  12.530  0.00  0.00    +0.000 HD
ENDBRANCH   9  12
ENDBRANCH   3   7
BRANCH   1  15
ATOM     14  C   UNL     1       3.485   1.847  17.905  0.00  0.00    +0.000 C 
ATOM     15  O   UNL     1       3.204   3.155  17.393  0.00  0.00    +0.000 OA
ENDBRANCH   1  15
BRANCH   5  16
ATOM     16  O   UNL     1       6.752   6.336  18.691  0.00  0.00    +0.000 OA
ATOM     17  C   UNL     1       7.919   5.851  19.331  0.00  0.00    +0.000 C 
ENDBRANCH   5  16
BRANCH   6  18
ATOM     18  O   UNL     1       4.457   4.748  19.505  0.00  0.00    +0.000 OA
BRANCH  18  19
ATOM     19  C   UNL     1       3.080   5.005  19.762  0.00  0.00    +0.000 C 
BRANCH  19  20
ATOM     20  C   UNL     1       2.611   6.383  19.340  0.00  0.00    +0.000 A 
ATOM     21  C   UNL     1       2.762   6.904  18.048  0.00  0.00    +0.000 A 
ATOM     22  C   UNL     1       2.306   8.193  17.746  0.00  0.00    +0.000 A 
ATOM     23  C   UNL     1       1.696   8.974  18.734  0.00  0.00    +0.000 A 
ATOM     24  C   UNL     1       1.553   8.468  20.027  0.00  0.00    +0.000 A 
ATOM     25  C   UNL     1       2.001   7.181  20.321  0.00  0.00    +0.000 A 
BRANCH  23  26
ATOM     26  C   UNL     1       1.183  10.339  18.419  0.00  0.00    +0.000 C 
ATOM     27  N   UNL     1       2.073  11.314  18.038  0.00  0.00    +0.000 N 
ATOM     28  N   UNL     1      -0.101  10.554  18.488  0.00  0.00    +0.000 NA
ATOM     29  H   UNL     1       2.810  10.995  17.420  0.00  0.00    +0.000 HD
ATOM     30  H   UNL     1       1.558  12.099  17.645  0.00  0.00    +0.000 HD
BRANCH  28  31
ATOM     31  O   UNL     1      -0.409  11.876  18.126  0.00  0.00    +0.000 OA
ATOM     32  H   UNL     1      -1.348  11.798  17.871  0.00  0.00    +0.000 HD
ENDBRANCH  28  31
ENDBRANCH  23  26
ENDBRANCH  19  20
ENDBRANCH  18  19
ENDBRANCH   6  18
TORSDOF 9
ENDMDL
MODEL 6
REMARK VINA RESULT:      -7.9      1.246      2.869
REMARK  Name = 
REMARK  11 active torsions:
REMARK  status: ('A' for Active; 'I' for Inactive)
REMARK    1  A    between atoms: C_1  and  O_2
REMARK    2  A    between atoms: O_2  and  C_3
REMARK    3  A    between atoms: C_5  and  C_6
REMARK    4  A    between atoms: N_8  and  O_9
REMARK    5  A    between atoms: C_11  and  O_12
REMARK    6  A    between atoms: O_12  and  C_13
REMARK    7  A    between atoms: C_14  and  O_15
REMARK    8  A    between atoms: O_15  and  C_16
REMARK    9  A    between atoms: C_16  and  C_17
REMARK   10  A    between atoms: C_20  and  C_21
REMARK   11  A    between atoms: N_23  and  O_24
REMARK                            x       y       z     vdW  Elec       q    Type
REMARK                         _______ _______ _______ _____ _____    ______ ____
ROOT
ATOM      1  C   UNL     1       4.373   4.163  17.131  0.00  0.00    +0.000 A 
ATOM      2  C   UNL     1       4.854   4.112  15.816  0.00  0.00    +0.000 A 
ATOM      3  C   UNL     1       5.971   4.844  15.446  0.00  0.00    +0.000 A 
ATOM      4  C   UNL     1       6.538   5.736  16.352  0.00  0.00    +0.000 A 
ATOM      5  C   UNL     1       6.022   5.869  17.652  0.00  0.00    +0.000 A 
ATOM      6  C   UNL     1       4.939   5.060  18.073  0.00  0.00    +0.000 A 
ENDROOT
BRANCH   3   7
ATOM      7  C   UNL     1       6.606   4.577  14.126  0.00  0.00    +0.000 C 
ATOM      8  N   UNL     1       7.711   5.295  13.747  0.00  0.00    +0.000 N 
ATOM      9  N   UNL     1       6.085   3.645  13.378  0.00  0.00    +0.000 NA
ATOM     10  H   UNL     1       7.688   6.278  13.970  0.00  0.00    +0.000 HD
ATOM     11  H   UNL     1       7.913   5.117  12.767  0.00  0.00    +0.000 HD
BRANCH   9  12
ATOM     12  O   UNL     1       6.804   3.484  12.186  0.00  0.00    +0.000 OA
ATOM     13  H   UNL     1       7.681   3.209  12.514  0.00  0.00    +0.000 HD
ENDBRANCH   9  12
ENDBRANCH   3   7
BRANCH   1  15
ATOM     14  C   UNL     1       3.684   2.057  17.980  0.00  0.00    +0.000 C 
ATOM     15  O   UNL     1       3.321   3.347  17.473  0.00  0.00    +0.000 OA
ENDBRANCH   1  15
BRANCH   5  16
ATOM     16  O   UNL     1       6.730   6.810  18.357  0.00  0.00    +0.000 OA
ATOM     17  C   UNL     1       7.672   7.630  17.690  0.00  0.00    +0.000 C 
ENDBRANCH   5  16
BRANCH   6  18
ATOM     18  O   UNL     1       4.542   5.196  19.386  0.00  0.00    +0.000 OA
BRANCH  18  19
ATOM     19  C   UNL     1       3.149   5.290  19.667  0.00  0.00    +0.000 C 
BRANCH  19  20
ATOM     20  C   UNL     1       2.552   6.661  19.428  0.00  0.00    +0.000 A 
ATOM     21  C   UNL     1       1.948   7.441  20.423  0.00  0.00    +0.000 A 
ATOM     22  C   UNL     1       1.413   8.697  20.113  0.00  0.00    +0.000 A 
ATOM     23  C   UNL     1       1.474   9.185  18.802  0.00  0.00    +0.000 A 
ATOM     24  C   UNL     1       2.061   8.409  17.801  0.00  0.00    +0.000 A 
ATOM     25  C   UNL     1       2.601   7.163  18.117  0.00  0.00    +0.000 A 
BRANCH  23  26
ATOM     26  C   UNL     1       0.930  10.532  18.463  0.00  0.00    +0.000 C 
ATOM     27  N   UNL     1       1.805  11.547  18.157  0.00  0.00    +0.000 N 
ATOM     28  N   UNL     1      -0.363  10.694  18.439  0.00  0.00    +0.000 NA
ATOM     29  H   UNL     1       2.597  11.265  17.592  0.00  0.00    +0.000 HD
ATOM     30  H   UNL     1       1.289  12.315  17.734  0.00  0.00    +0.000 HD
BRANCH  28  31
ATOM     31  O   UNL     1      -0.698  12.007  18.067  0.00  0.00    +0.000 OA
ATOM     32  H   UNL     1      -0.916  12.408  18.930  0.00  0.00    +0.000 HD
ENDBRANCH  28  31
ENDBRANCH  23  26
ENDBRANCH  19  20
ENDBRANCH  18  19
ENDBRANCH   6  18
TORSDOF 9
ENDMDL
MODEL 7
REMARK VINA RESULT:      -7.8      0.492      1.245
REMARK  Name = 
REMARK  11 active torsions:
REMARK  status: ('A' for Active; 'I' for Inactive)
REMARK    1  A    between atoms: C_1  and  O_2
REMARK    2  A    between atoms: O_2  and  C_3
REMARK    3  A    between atoms: C_5  and  C_6
REMARK    4  A    between atoms: N_8  and  O_9
REMARK    5  A    between atoms: C_11  and  O_12
REMARK    6  A    between atoms: O_12  and  C_13
REMARK    7  A    between atoms: C_14  and  O_15
REMARK    8  A    between atoms: O_15  and  C_16
REMARK    9  A    between atoms: C_16  and  C_17
REMARK   10  A    between atoms: C_20  and  C_21
REMARK   11  A    between atoms: N_23  and  O_24
REMARK                            x       y       z     vdW  Elec       q    Type
REMARK                         _______ _______ _______ _____ _____    ______ ____
ROOT
ATOM      1  C   UNL     1       5.944   4.927  18.601  0.00  0.00    +0.000 A 
ATOM      2  C   UNL     1       6.595   4.814  17.366  0.00  0.00    +0.000 A 
ATOM      3  C   UNL     1       5.914   4.352  16.250  0.00  0.00    +0.000 A 
ATOM      4  C   UNL     1       4.614   3.874  16.389  0.00  0.00    +0.000 A 
ATOM      5  C   UNL     1       3.966   3.899  17.636  0.00  0.00    +0.000 A 
ATOM      6  C   UNL     1       4.616   4.453  18.764  0.00  0.00    +0.000 A 
ENDROOT
BRANCH   3   7
ATOM      7  C   UNL     1       6.550   4.482  14.910  0.00  0.00    +0.000 C 
ATOM      8  N   UNL     1       7.642   5.298  14.754  0.00  0.00    +0.000 N 
ATOM      9  N   UNL     1       6.045   3.791  13.928  0.00  0.00    +0.000 NA
ATOM     10  H   UNL     1       7.602   6.176  15.247  0.00  0.00    +0.000 HD
ATOM     11  H   UNL     1       7.845   5.409  13.764  0.00  0.00    +0.000 HD
BRANCH   9  12
ATOM     12  O   UNL     1       6.764   3.987  12.741  0.00  0.00    +0.000 OA
ATOM     13  H   UNL     1       7.403   3.251  12.767  0.00  0.00    +0.000 HD
ENDBRANCH   9  12
ENDBRANCH   3   7
BRANCH   1  15
ATOM     14  C   UNL     1       7.998   5.819  19.385  0.00  0.00    +0.000 C 
ATOM     15  O   UNL     1       6.633   5.478  19.655  0.00  0.00    +0.000 OA
ENDBRANCH   1  15
BRANCH   5  16
ATOM     16  O   UNL     1       2.704   3.369  17.532  0.00  0.00    +0.000 OA
ATOM     17  C   UNL     1       2.493   1.992  17.784  0.00  0.00    +0.000 C 
ENDBRANCH   5  16
BRANCH   6  18
ATOM     18  O   UNL     1       3.885   4.509  19.931  0.00  0.00    +0.000 OA
BRANCH  18  19
ATOM     19  C   UNL     1       2.506   4.855  19.852  0.00  0.00    +0.000 C 
BRANCH  19  20
ATOM     20  C   UNL     1       2.243   6.301  19.484  0.00  0.00    +0.000 A 
ATOM     21  C   UNL     1       2.505   6.852  18.222  0.00  0.00    +0.000 A 
ATOM     22  C   UNL     1       2.239   8.203  17.969  0.00  0.00    +0.000 A 
ATOM     23  C   UNL     1       1.710   9.018  18.977  0.00  0.00    +0.000 A 
ATOM     24  C   UNL     1       1.459   8.482  20.241  0.00  0.00    +0.000 A 
ATOM     25  C   UNL     1       1.717   7.134  20.485  0.00  0.00    +0.000 A 
BRANCH  23  26
ATOM     26  C   UNL     1       1.399  10.453  18.714  0.00  0.00    +0.000 C 
ATOM     27  N   UNL     1       0.256  10.996  19.249  0.00  0.00    +0.000 N 
ATOM     28  N   UNL     1       2.240  11.154  18.007  0.00  0.00    +0.000 NA
ATOM     29  H   UNL     1       0.046  10.692  20.192  0.00  0.00    +0.000 HD
ATOM     30  H   UNL     1       0.304  12.010  19.176  0.00  0.00    +0.000 HD
BRANCH  28  31
ATOM     31  O   UNL     1       1.810  12.486  17.889  0.00  0.00    +0.000 OA
ATOM     32  H   UNL     1       1.159  12.421  17.164  0.00  0.00    +0.000 HD
ENDBRANCH  28  31
ENDBRANCH  23  26
ENDBRANCH  19  20
ENDBRANCH  18  19
ENDBRANCH   6  18
TORSDOF 9
ENDMDL
MODEL 8
REMARK VINA RESULT:      -7.7      1.505      1.899
REMARK  Name = 
REMARK  11 active torsions:
REMARK  status: ('A' for Active; 'I' for Inactive)
REMARK    1  A    between atoms: C_1  and  O_2
REMARK    2  A    between atoms: O_2  and  C_3
REMARK    3  A    between atoms: C_5  and  C_6
REMARK    4  A    between atoms: N_8  and  O_9
REMARK    5  A    between atoms: C_11  and  O_12
REMARK    6  A    between atoms: O_12  and  C_13
REMARK    7  A    between atoms: C_14  and  O_15
REMARK    8  A    between atoms: O_15  and  C_16
REMARK    9  A    between atoms: C_16  and  C_17
REMARK   10  A    between atoms: C_20  and  C_21
REMARK   11  A    between atoms: N_23  and  O_24
REMARK                            x       y       z     vdW  Elec       q    Type
REMARK                         _______ _______ _______ _____ _____    ______ ____
ROOT
ATOM      1  C   UNL     1       6.084   6.288  17.321  0.00  0.00    +0.000 A 
ATOM      2  C   UNL     1       6.627   5.886  16.094  0.00  0.00    +0.000 A 
ATOM      3  C   UNL     1       6.238   4.690  15.510  0.00  0.00    +0.000 A 
ATOM      4  C   UNL     1       5.404   3.823  16.211  0.00  0.00    +0.000 A 
ATOM      5  C   UNL     1       4.912   4.166  17.482  0.00  0.00    +0.000 A 
ATOM      6  C   UNL     1       5.226   5.425  18.050  0.00  0.00    +0.000 A 
ENDROOT
BRANCH   3   7
ATOM      7  C   UNL     1       6.633   4.411  14.102  0.00  0.00    +0.000 C 
ATOM      8  N   UNL     1       6.177   3.275  13.482  0.00  0.00    +0.000 N 
ATOM      9  N   UNL     1       7.397   5.279  13.501  0.00  0.00    +0.000 NA
ATOM     10  H   UNL     1       6.168   2.443  14.051  0.00  0.00    +0.000 HD
ATOM     11  H   UNL     1       6.668   3.148  12.602  0.00  0.00    +0.000 HD
BRANCH   9  12
ATOM     12  O   UNL     1       7.657   4.902  12.177  0.00  0.00    +0.000 OA
ATOM     13  H   UNL     1       6.848   4.409  11.944  0.00  0.00    +0.000 HD
ENDBRANCH   9  12
ENDBRANCH   3   7
BRANCH   1  15
ATOM     14  C   UNL     1       7.827   7.830  17.785  0.00  0.00    +0.000 C 
ATOM     15  O   UNL     1       6.428   7.525  17.813  0.00  0.00    +0.000 OA
ENDBRANCH   1  15
BRANCH   5  16
ATOM     16  O   UNL     1       4.125   3.159  17.981  0.00  0.00    +0.000 OA
ATOM     17  C   UNL     1       2.915   2.819  17.328  0.00  0.00    +0.000 C 
ENDBRANCH   5  16
BRANCH   6  18
ATOM     18  O   UNL     1       4.643   5.716  19.264  0.00  0.00    +0.000 OA
BRANCH  18  19
ATOM     19  C   UNL     1       3.224   5.645  19.370  0.00  0.00    +0.000 C 
BRANCH  19  20
ATOM     20  C   UNL     1       2.521   6.983  19.268  0.00  0.00    +0.000 A 
ATOM     21  C   UNL     1       2.506   7.778  18.114  0.00  0.00    +0.000 A 
ATOM     22  C   UNL     1       1.837   9.008  18.109  0.00  0.00    +0.000 A 
ATOM     23  C   UNL     1       1.179   9.457  19.260  0.00  0.00    +0.000 A 
ATOM     24  C   UNL     1       1.200   8.678  20.419  0.00  0.00    +0.000 A 
ATOM     25  C   UNL     1       1.859   7.450  20.416  0.00  0.00    +0.000 A 
BRANCH  23  26
ATOM     26  C   UNL     1       0.441  10.754  19.262  0.00  0.00    +0.000 C 
ATOM     27  N   UNL     1       0.323  11.455  18.085  0.00  0.00    +0.000 N 
ATOM     28  N   UNL     1      -0.093  11.166  20.376  0.00  0.00    +0.000 NA
ATOM     29  H   UNL     1       0.153  10.881  17.268  0.00  0.00    +0.000 HD
ATOM     30  H   UNL     1      -0.383  12.178  18.198  0.00  0.00    +0.000 HD
BRANCH  28  31
ATOM     31  O   UNL     1      -0.776  12.379  20.188  0.00  0.00    +0.000 OA
ATOM     32  H   UNL     1      -1.601  12.079  19.761  0.00  0.00    +0.000 HD
ENDBRANCH  28  31
ENDBRANCH  23  26
ENDBRANCH  19  20
ENDBRANCH  18  19
ENDBRANCH   6  18
TORSDOF 9
ENDMDL
MODEL 9
REMARK VINA RESULT:      -7.7      1.297      1.820
REMARK  Name = 
REMARK  11 active torsions:
REMARK  status: ('A' for Active; 'I' for Inactive)
REMARK    1  A    between atoms: C_1  and  O_2
REMARK    2  A    between atoms: O_2  and  C_3
REMARK    3  A    between atoms: C_5  and  C_6
REMARK    4  A    between atoms: N_8  and  O_9
REMARK    5  A    between atoms: C_11  and  O_12
REMARK    6  A    between atoms: O_12  and  C_13
REMARK    7  A    between atoms: C_14  and  O_15
REMARK    8  A    between atoms: O_15  and  C_16
REMARK    9  A    between atoms: C_16  and  C_17
REMARK   10  A    between atoms: C_20  and  C_21
REMARK   11  A    between atoms: N_23  and  O_24
REMARK                            x       y       z     vdW  Elec       q    Type
REMARK                         _______ _______ _______ _____ _____    ______ ____
ROOT
ATOM      1  C   UNL     1       6.174   4.930  18.255  0.00  0.00    +0.000 A 
ATOM      2  C   UNL     1       6.782   4.797  17.001  0.00  0.00    +0.000 A 
ATOM      3  C   UNL     1       6.044   4.388  15.900  0.00  0.00    +0.000 A 
ATOM      4  C   UNL     1       4.724   3.981  16.072  0.00  0.00    +0.000 A 
ATOM      5  C   UNL     1       4.115   4.025  17.338  0.00  0.00    +0.000 A 
ATOM      6  C   UNL     1       4.828   4.529  18.453  0.00  0.00    +0.000 A 
ENDROOT
BRANCH   3   7
ATOM      7  C   UNL     1       6.647   4.499  14.544  0.00  0.00    +0.000 C 
ATOM      8  N   UNL     1       7.685   5.371  14.333  0.00  0.00    +0.000 N 
ATOM      9  N   UNL     1       6.167   3.739  13.600  0.00  0.00    +0.000 NA
ATOM     10  H   UNL     1       7.601   6.265  14.790  0.00  0.00    +0.000 HD
ATOM     11  H   UNL     1       7.863   5.452  13.335  0.00  0.00    +0.000 HD
BRANCH   9  12
ATOM     12  O   UNL     1       6.851   3.928  12.392  0.00  0.00    +0.000 OA
ATOM     13  H   UNL     1       7.780   3.961  12.689  0.00  0.00    +0.000 HD
ENDBRANCH   9  12
ENDBRANCH   3   7
BRANCH   1  15
ATOM     14  C   UNL     1       7.982   6.318  18.917  0.00  0.00    +0.000 C 
ATOM     15  O   UNL     1       6.924   5.430  19.294  0.00  0.00    +0.000 OA
ENDBRANCH   1  15
BRANCH   5  16
ATOM     16  O   UNL     1       2.823   3.568  17.267  0.00  0.00    +0.000 OA
ATOM     17  C   UNL     1       2.539   2.209  17.548  0.00  0.00    +0.000 C 
ENDBRANCH   5  16
BRANCH   6  18
ATOM     18  O   UNL     1       4.135   4.610  19.642  0.00  0.00    +0.000 OA
BRANCH  18  19
ATOM     19  C   UNL     1       2.722   4.785  19.593  0.00  0.00    +0.000 C 
BRANCH  19  20
ATOM     20  C   UNL     1       2.264   6.223  19.718  0.00  0.00    +0.000 A 
ATOM     21  C   UNL     1       2.453   7.197  18.728  0.00  0.00    +0.000 A 
ATOM     22  C   UNL     1       2.004   8.508  18.929  0.00  0.00    +0.000 A 
ATOM     23  C   UNL     1       1.364   8.859  20.124  0.00  0.00    +0.000 A 
ATOM     24  C   UNL     1       1.184   7.899  21.121  0.00  0.00    +0.000 A 
ATOM     25  C   UNL     1       1.625   6.593  20.912  0.00  0.00    +0.000 A 
BRANCH  23  26
ATOM     26  C   UNL     1       0.859  10.246  20.341  0.00  0.00    +0.000 C 
ATOM     27  N   UNL     1       0.123  10.850  19.349  0.00  0.00    +0.000 N 
ATOM     28  N   UNL     1       1.109  10.829  21.479  0.00  0.00    +0.000 NA
ATOM     29  H   UNL     1      -0.533  10.238  18.879  0.00  0.00    +0.000 HD
ATOM     30  H   UNL     1      -0.331  11.677  19.730  0.00  0.00    +0.000 HD
BRANCH  28  31
ATOM     31  O   UNL     1       0.532  12.109  21.525  0.00  0.00    +0.000 OA
ATOM     32  H   UNL     1       1.247  12.664  21.160  0.00  0.00    +0.000 HD
ENDBRANCH  28  31
ENDBRANCH  23  26
ENDBRANCH  19  20
ENDBRANCH  18  19
ENDBRANCH   6  18
TORSDOF 9
ENDMDL
