MODEL 1
REMARK VINA RESULT:      -8.2      0.000      0.000
REMARK  Name = 
REMARK  9 active torsions:
REMARK  status: ('A' for Active; 'I' for Inactive)
REMARK    1  A    between atoms: C_1  and  O_2
REMARK    2  A    between atoms: O_2  and  C_3
REMARK    3  A    between atoms: C_5  and  N_6
REMARK    4  A    between atoms: C_7  and  C_9
REMARK    5  A    between atoms: C_9  and  N_10
REMARK    6  A    between atoms: C_28  and  O_29
REMARK    7  A    between atoms: O_29  and  C_30
REMARK    8  A    between atoms: C_31  and  O_32
REMARK    9  A    between atoms: O_32  and  C_33
REMARK                            x       y       z     vdW  Elec       q    Type
REMARK                         _______ _______ _______ _____ _____    ______ ____
ROOT
ATOM      1  C   UNL     1       8.026   6.956  18.631  0.00  0.00    +0.000 C 
ENDROOT
BRANCH   1   2
ATOM      2  N   UNL     1       6.894   6.370  17.950  0.00  0.00    +0.000 N 
ATOM      3  N   UNL     1       5.830   5.844  18.665  0.00  0.00    +0.000 NA
ATOM      4  C   UNL     1       5.210   5.124  17.784  0.00  0.00    +0.000 A 
ATOM      5  C   UNL     1       4.031   4.345  17.988  0.00  0.00    +0.000 A 
ATOM      6  C   UNL     1       3.249   4.129  19.161  0.00  0.00    +0.000 A 
ATOM      7  C   UNL     1       2.211   3.258  18.890  0.00  0.00    +0.000 A 
ATOM      8  S   UNL     1       2.173   2.742  17.267  0.00  0.00    +0.000 S 
ATOM      9  C   UNL     1       3.574   3.641  16.885  0.00  0.00    +0.000 A 
ATOM     10  N   UNL     1       4.142   3.617  15.640  0.00  0.00    +0.000 NA
ATOM     11  C   UNL     1       5.222   4.332  15.525  0.00  0.00    +0.000 A 
ATOM     12  N   UNL     1       5.759   5.085  16.550  0.00  0.00    +0.000 N 
ATOM     13  C   UNL     1       6.899   5.856  16.642  0.00  0.00    +0.000 A 
ATOM     14  O   UNL     1       7.761   6.052  15.800  0.00  0.00    +0.000 OA
ATOM     15  C   UNL     1       1.190   2.807  19.897  0.00  0.00    +0.000 C 
ATOM     16  C   UNL     1       1.668   3.116  21.326  0.00  0.00    +0.000 C 
ATOM     17  C   UNL     1       2.266   4.525  21.436  0.00  0.00    +0.000 C 
ATOM     18  C   UNL     1       3.494   4.689  20.526  0.00  0.00    +0.000 C 
ENDBRANCH   1   2
BRANCH   1  20
ATOM     19  N   UNL     1       9.156   9.067  19.167  0.00  0.00    +0.000 N 
ATOM     20  C   UNL     1       8.211   8.447  18.362  0.00  0.00    +0.000 C 
ATOM     21  O   UNL     1       7.463   9.015  17.567  0.00  0.00    +0.000 OA
ATOM     22  H   UNL     1       9.744   8.472  19.749  0.00  0.00    +0.000 HD
BRANCH  19  25
ATOM     23  C   UNL     1       9.636  12.474  20.661  0.00  0.00    +0.000 A 
ATOM     24  C   UNL     1       9.272  11.122  20.530  0.00  0.00    +0.000 A 
ATOM     25  C   UNL     1       9.359  10.459  19.313  0.00  0.00    +0.000 A 
ATOM     26  C   UNL     1       9.733  11.196  18.192  0.00  0.00    +0.000 A 
ATOM     27  C   UNL     1       9.991  12.579  18.272  0.00  0.00    +0.000 A 
ATOM     28  C   UNL     1       9.938  13.241  19.518  0.00  0.00    +0.000 A 
BRANCH  23  30
ATOM     29  C   UNL     1       8.634  12.664  22.799  0.00  0.00    +0.000 C 
ATOM     30  O   UNL     1       9.690  13.045  21.911  0.00  0.00    +0.000 OA
ENDBRANCH  23  30
BRANCH  27  31
ATOM     31  O   UNL     1      10.299  13.100  17.037  0.00  0.00    +0.000 OA
ATOM     32  C   UNL     1      11.652  13.378  16.712  0.00  0.00    +0.000 C 
ENDBRANCH  27  31
BRANCH  28  33
ATOM     33  O   UNL     1      10.179  14.586  19.495  0.00  0.00    +0.000 OA
ATOM     34  C   UNL     1       9.123  15.524  19.384  0.00  0.00    +0.000 C 
ENDBRANCH  28  33
ENDBRANCH  19  25
ENDBRANCH   1  20
TORSDOF 6
ENDMDL
MODEL 2
REMARK VINA RESULT:      -8.2      7.893     10.608
REMARK  Name = 
REMARK  9 active torsions:
REMARK  status: ('A' for Active; 'I' for Inactive)
REMARK    1  A    between atoms: C_1  and  O_2
REMARK    2  A    between atoms: O_2  and  C_3
REMARK    3  A    between atoms: C_5  and  N_6
REMARK    4  A    between atoms: C_7  and  C_9
REMARK    5  A    between atoms: C_9  and  N_10
REMARK    6  A    between atoms: C_28  and  O_29
REMARK    7  A    between atoms: O_29  and  C_30
REMARK    8  A    between atoms: C_31  and  O_32
REMARK    9  A    between atoms: O_32  and  C_33
REMARK                            x       y       z     vdW  Elec       q    Type
REMARK                         _______ _______ _______ _____ _____    ______ ____
ROOT
ATOM      1  C   UNL     1       0.678  10.317  20.661  0.00  0.00    +0.000 C 
ENDROOT
BRANCH   1   2
ATOM      2  N   UNL     1      -0.262  10.752  19.654  0.00  0.00    +0.000 N 
ATOM      3  N   UNL     1      -1.455  11.359  20.011  0.00  0.00    +0.000 NA
ATOM      4  C   UNL     1      -2.160  11.286  18.926  0.00  0.00    +0.000 A 
ATOM      5  C   UNL     1      -3.493  11.760  18.734  0.00  0.00    +0.000 A 
ATOM      6  C   UNL     1      -4.393  12.396  19.639  0.00  0.00    +0.000 A 
ATOM      7  C   UNL     1      -5.603  12.640  19.017  0.00  0.00    +0.000 A 
ATOM      8  S   UNL     1      -5.635  12.137  17.390  0.00  0.00    +0.000 S 
ATOM      9  C   UNL     1      -4.037  11.540  17.480  0.00  0.00    +0.000 A 
ATOM     10  N   UNL     1      -3.429  10.915  16.425  0.00  0.00    +0.000 NA
ATOM     11  C   UNL     1      -2.224  10.492  16.669  0.00  0.00    +0.000 A 
ATOM     12  N   UNL     1      -1.577  10.668  17.875  0.00  0.00    +0.000 N 
ATOM     13  C   UNL     1      -0.343  10.260  18.340  0.00  0.00    +0.000 A 
ATOM     14  O   UNL     1       0.507   9.594  17.771  0.00  0.00    +0.000 OA
ATOM     15  C   UNL     1      -6.784  13.296  19.674  0.00  0.00    +0.000 C 
ATOM     16  C   UNL     1      -6.617  13.303  21.203  0.00  0.00    +0.000 C 
ATOM     17  C   UNL     1      -5.197  13.710  21.620  0.00  0.00    +0.000 C 
ATOM     18  C   UNL     1      -4.147  12.729  21.076  0.00  0.00    +0.000 C 
ENDBRANCH   1   2
BRANCH   1  20
ATOM     19  N   UNL     1       1.891   8.265  20.077  0.00  0.00    +0.000 N 
ATOM     20  C   UNL     1       0.815   8.801  20.771  0.00  0.00    +0.000 C 
ATOM     21  O   UNL     1      -0.062   8.154  21.344  0.00  0.00    +0.000 OA
ATOM     22  H   UNL     1       2.573   8.916  19.688  0.00  0.00    +0.000 HD
BRANCH  19  25
ATOM     23  C   UNL     1       1.736   4.519  20.183  0.00  0.00    +0.000 A 
ATOM     24  C   UNL     1       1.622   5.863  20.580  0.00  0.00    +0.000 A 
ATOM     25  C   UNL     1       2.120   6.898  19.798  0.00  0.00    +0.000 A 
ATOM     26  C   UNL     1       2.821   6.565  18.642  0.00  0.00    +0.000 A 
ATOM     27  C   UNL     1       3.051   5.223  18.280  0.00  0.00    +0.000 A 
ATOM     28  C   UNL     1       2.511   4.174  19.058  0.00  0.00    +0.000 A 
BRANCH  23  30
ATOM     29  C   UNL     1       1.878   2.914  21.920  0.00  0.00    +0.000 C 
ATOM     30  O   UNL     1       1.090   3.541  20.903  0.00  0.00    +0.000 OA
ENDBRANCH  23  30
BRANCH  27  31
ATOM     31  O   UNL     1       3.799   5.138  17.130  0.00  0.00    +0.000 OA
ATOM     32  C   UNL     1       5.210   5.267  17.200  0.00  0.00    +0.000 C 
ENDBRANCH  27  31
BRANCH  28  33
ATOM     33  O   UNL     1       2.806   2.905  18.645  0.00  0.00    +0.000 OA
ATOM     34  C   UNL     1       3.970   2.234  19.094  0.00  0.00    +0.000 C 
ENDBRANCH  28  33
ENDBRANCH  19  25
ENDBRANCH   1  20
TORSDOF 6
ENDMDL
MODEL 3
REMARK VINA RESULT:      -8.2      0.453      2.266
REMARK  Name = 
REMARK  9 active torsions:
REMARK  status: ('A' for Active; 'I' for Inactive)
REMARK    1  A    between atoms: C_1  and  O_2
REMARK    2  A    between atoms: O_2  and  C_3
REMARK    3  A    between atoms: C_5  and  N_6
REMARK    4  A    between atoms: C_7  and  C_9
REMARK    5  A    between atoms: C_9  and  N_10
REMARK    6  A    between atoms: C_28  and  O_29
REMARK    7  A    between atoms: O_29  and  C_30
REMARK    8  A    between atoms: C_31  and  O_32
REMARK    9  A    between atoms: O_32  and  C_33
REMARK                            x       y       z     vdW  Elec       q    Type
REMARK                         _______ _______ _______ _____ _____    ______ ____
ROOT
ATOM      1  C   UNL     1       8.026   6.944  18.669  0.00  0.00    +0.000 C 
ENDROOT
BRANCH   1   2
ATOM      2  N   UNL     1       6.898   6.360  17.979  0.00  0.00    +0.000 N 
ATOM      3  N   UNL     1       5.828   5.835  18.686  0.00  0.00    +0.000 NA
ATOM      4  C   UNL     1       5.214   5.116  17.800  0.00  0.00    +0.000 A 
ATOM      5  C   UNL     1       4.032   4.338  17.994  0.00  0.00    +0.000 A 
ATOM      6  C   UNL     1       3.241   4.123  19.161  0.00  0.00    +0.000 A 
ATOM      7  C   UNL     1       2.204   3.253  18.882  0.00  0.00    +0.000 A 
ATOM      8  S   UNL     1       2.177   2.738  17.259  0.00  0.00    +0.000 S 
ATOM      9  C   UNL     1       3.582   3.637  16.887  0.00  0.00    +0.000 A 
ATOM     10  N   UNL     1       4.159   3.613  15.647  0.00  0.00    +0.000 NA
ATOM     11  C   UNL     1       5.241   4.327  15.540  0.00  0.00    +0.000 A 
ATOM     12  N   UNL     1       5.772   5.078  16.570  0.00  0.00    +0.000 N 
ATOM     13  C   UNL     1       6.912   5.847  16.671  0.00  0.00    +0.000 A 
ATOM     14  O   UNL     1       7.780   6.043  15.835  0.00  0.00    +0.000 OA
ATOM     15  C   UNL     1       1.176   2.802  19.881  0.00  0.00    +0.000 C 
ATOM     16  C   UNL     1       1.643   3.109  21.314  0.00  0.00    +0.000 C 
ATOM     17  C   UNL     1       2.243   4.518  21.429  0.00  0.00    +0.000 C 
ATOM     18  C   UNL     1       3.477   4.681  20.529  0.00  0.00    +0.000 C 
ENDBRANCH   1   2
BRANCH   1  20
ATOM     19  N   UNL     1       9.215   9.037  19.145  0.00  0.00    +0.000 N 
ATOM     20  C   UNL     1       8.240   8.425  18.370  0.00  0.00    +0.000 C 
ATOM     21  O   UNL     1       7.489   8.996  17.580  0.00  0.00    +0.000 OA
ATOM     22  H   UNL     1       9.801   8.438  19.725  0.00  0.00    +0.000 HD
BRANCH  19  25
ATOM     23  C   UNL     1       9.873  12.634  18.312  0.00  0.00    +0.000 A 
ATOM     24  C   UNL     1       9.801  11.235  18.188  0.00  0.00    +0.000 A 
ATOM     25  C   UNL     1       9.453  10.426  19.261  0.00  0.00    +0.000 A 
ATOM     26  C   UNL     1       9.261  11.030  20.501  0.00  0.00    +0.000 A 
ATOM     27  C   UNL     1       9.441  12.416  20.681  0.00  0.00    +0.000 A 
ATOM     28  C   UNL     1       9.759  13.241  19.579  0.00  0.00    +0.000 A 
BRANCH  23  30
ATOM     29  C   UNL     1      11.401  13.428  16.685  0.00  0.00    +0.000 C 
ATOM     30  O   UNL     1      10.062  13.407  17.190  0.00  0.00    +0.000 OA
ENDBRANCH  23  30
BRANCH  27  31
ATOM     31  O   UNL     1       9.240  12.779  21.992  0.00  0.00    +0.000 OA
ATOM     32  C   UNL     1       7.924  13.035  22.455  0.00  0.00    +0.000 C 
ENDBRANCH  27  31
BRANCH  28  33
ATOM     33  O   UNL     1       9.937  14.568  19.852  0.00  0.00    +0.000 OA
ATOM     34  C   UNL     1      11.219  15.096  20.143  0.00  0.00    +0.000 C 
ENDBRANCH  28  33
ENDBRANCH  19  25
ENDBRANCH   1  20
TORSDOF 6
ENDMDL
MODEL 4
REMARK VINA RESULT:      -8.0      7.561     10.106
REMARK  Name = 
REMARK  9 active torsions:
REMARK  status: ('A' for Active; 'I' for Inactive)
REMARK    1  A    between atoms: C_1  and  O_2
REMARK    2  A    between atoms: O_2  and  C_3
REMARK    3  A    between atoms: C_5  and  N_6
REMARK    4  A    between atoms: C_7  and  C_9
REMARK    5  A    between atoms: C_9  and  N_10
REMARK    6  A    between atoms: C_28  and  O_29
REMARK    7  A    between atoms: O_29  and  C_30
REMARK    8  A    between atoms: C_31  and  O_32
REMARK    9  A    between atoms: O_32  and  C_33
REMARK                            x       y       z     vdW  Elec       q    Type
REMARK                         _______ _______ _______ _____ _____    ______ ____
ROOT
ATOM      1  C   UNL     1       1.431  10.283  19.249  0.00  0.00    +0.000 C 
ENDROOT
BRANCH   1   2
ATOM      2  N   UNL     1       1.872   8.953  19.602  0.00  0.00    +0.000 N 
ATOM      3  N   UNL     1       2.660   8.214  18.735  0.00  0.00    +0.000 NA
ATOM      4  C   UNL     1       2.562   7.009  19.203  0.00  0.00    +0.000 A 
ATOM      5  C   UNL     1       3.178   5.832  18.680  0.00  0.00    +0.000 A 
ATOM      6  C   UNL     1       4.017   5.648  17.541  0.00  0.00    +0.000 A 
ATOM      7  C   UNL     1       4.344   4.313  17.399  0.00  0.00    +0.000 A 
ATOM      8  S   UNL     1       3.678   3.325  18.617  0.00  0.00    +0.000 S 
ATOM      9  C   UNL     1       2.896   4.653  19.352  0.00  0.00    +0.000 A 
ATOM     10  N   UNL     1       2.089   4.512  20.448  0.00  0.00    +0.000 NA
ATOM     11  C   UNL     1       1.545   5.617  20.865  0.00  0.00    +0.000 A 
ATOM     12  N   UNL     1       1.766   6.850  20.283  0.00  0.00    +0.000 N 
ATOM     13  C   UNL     1       1.256   8.106  20.539  0.00  0.00    +0.000 A 
ATOM     14  O   UNL     1       0.430   8.442  21.373  0.00  0.00    +0.000 OA
ATOM     15  C   UNL     1       5.212   3.758  16.305  0.00  0.00    +0.000 C 
ATOM     16  C   UNL     1       5.361   4.779  15.164  0.00  0.00    +0.000 C 
ATOM     17  C   UNL     1       5.626   6.194  15.695  0.00  0.00    +0.000 C 
ATOM     18  C   UNL     1       4.467   6.694  16.571  0.00  0.00    +0.000 C 
ENDBRANCH   1   2
BRANCH   1  20
ATOM     19  N   UNL     1      -0.712  11.359  18.726  0.00  0.00    +0.000 N 
ATOM     20  C   UNL     1       0.149  10.315  18.420  0.00  0.00    +0.000 C 
ATOM     21  O   UNL     1      -0.094   9.389  17.647  0.00  0.00    +0.000 OA
ATOM     22  H   UNL     1      -0.367  12.088  19.350  0.00  0.00    +0.000 HD
BRANCH  19  25
ATOM     23  C   UNL     1      -3.863  11.169  16.700  0.00  0.00    +0.000 A 
ATOM     24  C   UNL     1      -2.496  11.169  17.031  0.00  0.00    +0.000 A 
ATOM     25  C   UNL     1      -2.055  11.497  18.307  0.00  0.00    +0.000 A 
ATOM     26  C   UNL     1      -3.002  11.916  19.238  0.00  0.00    +0.000 A 
ATOM     27  C   UNL     1      -4.365  12.036  18.900  0.00  0.00    +0.000 A 
ATOM     28  C   UNL     1      -4.814  11.667  17.613  0.00  0.00    +0.000 A 
BRANCH  23  30
ATOM     29  C   UNL     1      -3.210  10.219  14.630  0.00  0.00    +0.000 C 
ATOM     30  O   UNL     1      -4.266  10.684  15.478  0.00  0.00    +0.000 OA
ENDBRANCH  23  30
BRANCH  27  31
ATOM     31  O   UNL     1      -5.101  12.506  19.962  0.00  0.00    +0.000 OA
ATOM     32  C   UNL     1      -4.504  13.398  20.890  0.00  0.00    +0.000 C 
ENDBRANCH  27  31
BRANCH  28  33
ATOM     33  O   UNL     1      -6.147  11.840  17.368  0.00  0.00    +0.000 OA
ATOM     34  C   UNL     1      -6.675  13.108  17.019  0.00  0.00    +0.000 C 
ENDBRANCH  28  33
ENDBRANCH  19  25
ENDBRANCH   1  20
TORSDOF 6
ENDMDL
MODEL 5
REMARK VINA RESULT:      -7.9      7.923     10.796
REMARK  Name = 
REMARK  9 active torsions:
REMARK  status: ('A' for Active; 'I' for Inactive)
REMARK    1  A    between atoms: C_1  and  O_2
REMARK    2  A    between atoms: O_2  and  C_3
REMARK    3  A    between atoms: C_5  and  N_6
REMARK    4  A    between atoms: C_7  and  C_9
REMARK    5  A    between atoms: C_9  and  N_10
REMARK    6  A    between atoms: C_28  and  O_29
REMARK    7  A    between atoms: O_29  and  C_30
REMARK    8  A    between atoms: C_31  and  O_32
REMARK    9  A    between atoms: O_32  and  C_33
REMARK                            x       y       z     vdW  Elec       q    Type
REMARK                         _______ _______ _______ _____ _____    ______ ____
ROOT
ATOM      1  C   UNL     1       0.472  10.282  20.746  0.00  0.00    +0.000 C 
ENDROOT
BRANCH   1   2
ATOM      2  N   UNL     1      -0.424  10.734  19.707  0.00  0.00    +0.000 N 
ATOM      3  N   UNL     1      -1.636  11.328  20.024  0.00  0.00    +0.000 NA
ATOM      4  C   UNL     1      -2.291  11.275  18.907  0.00  0.00    +0.000 A 
ATOM      5  C   UNL     1      -3.617  11.746  18.667  0.00  0.00    +0.000 A 
ATOM      6  C   UNL     1      -4.561  12.360  19.543  0.00  0.00    +0.000 A 
ATOM      7  C   UNL     1      -5.743  12.610  18.874  0.00  0.00    +0.000 A 
ATOM      8  S   UNL     1      -5.700  12.143  17.236  0.00  0.00    +0.000 S 
ATOM      9  C   UNL     1      -4.104  11.551  17.384  0.00  0.00    +0.000 A 
ATOM     10  N   UNL     1      -3.447  10.952  16.344  0.00  0.00    +0.000 NA
ATOM     11  C   UNL     1      -2.251  10.529  16.633  0.00  0.00    +0.000 A 
ATOM     12  N   UNL     1      -1.659  10.682  17.870  0.00  0.00    +0.000 N 
ATOM     13  C   UNL     1      -0.445  10.270  18.381  0.00  0.00    +0.000 A 
ATOM     14  O   UNL     1       0.433   9.620  17.836  0.00  0.00    +0.000 OA
ATOM     15  C   UNL     1      -6.956  13.248  19.491  0.00  0.00    +0.000 C 
ATOM     16  C   UNL     1      -6.856  13.222  21.027  0.00  0.00    +0.000 C 
ATOM     17  C   UNL     1      -5.458  13.626  21.514  0.00  0.00    +0.000 C 
ATOM     18  C   UNL     1      -4.380  12.662  20.997  0.00  0.00    +0.000 C 
ENDBRANCH   1   2
BRANCH   1  20
ATOM     19  N   UNL     1       1.865   8.366  20.104  0.00  0.00    +0.000 N 
ATOM     20  C   UNL     1       0.707   8.774  20.752  0.00  0.00    +0.000 C 
ATOM     21  O   UNL     1      -0.161   8.028  21.205  0.00  0.00    +0.000 OA
ATOM     22  H   UNL     1       2.526   9.088  19.819  0.00  0.00    +0.000 HD
BRANCH  19  25
ATOM     23  C   UNL     1       3.188   5.403  18.223  0.00  0.00    +0.000 A 
ATOM     24  C   UNL     1       2.709   6.697  18.493  0.00  0.00    +0.000 A 
ATOM     25  C   UNL     1       2.209   7.043  19.742  0.00  0.00    +0.000 A 
ATOM     26  C   UNL     1       2.110   6.044  20.706  0.00  0.00    +0.000 A 
ATOM     27  C   UNL     1       2.474   4.711  20.427  0.00  0.00    +0.000 A 
ATOM     28  C   UNL     1       3.016   4.371  19.168  0.00  0.00    +0.000 A 
BRANCH  23  30
ATOM     29  C   UNL     1       5.243   5.312  17.048  0.00  0.00    +0.000 C 
ATOM     30  O   UNL     1       3.821   5.148  17.029  0.00  0.00    +0.000 OA
ENDBRANCH  23  30
BRANCH  27  31
ATOM     31  O   UNL     1       2.250   3.896  21.511  0.00  0.00    +0.000 OA
ATOM     32  C   UNL     1       1.233   2.908  21.448  0.00  0.00    +0.000 C 
ENDBRANCH  27  31
BRANCH  28  33
ATOM     33  O   UNL     1       3.318   3.052  18.979  0.00  0.00    +0.000 OA
ATOM     34  C   UNL     1       2.551   2.236  18.112  0.00  0.00    +0.000 C 
ENDBRANCH  28  33
ENDBRANCH  19  25
ENDBRANCH   1  20
TORSDOF 6
ENDMDL
MODEL 6
REMARK VINA RESULT:      -7.9      7.605     10.595
REMARK  Name = 
REMARK  9 active torsions:
REMARK  status: ('A' for Active; 'I' for Inactive)
REMARK    1  A    between atoms: C_1  and  O_2
REMARK    2  A    between atoms: O_2  and  C_3
REMARK    3  A    between atoms: C_5  and  N_6
REMARK    4  A    between atoms: C_7  and  C_9
REMARK    5  A    between atoms: C_9  and  N_10
REMARK    6  A    between atoms: C_28  and  O_29
REMARK    7  A    between atoms: O_29  and  C_30
REMARK    8  A    between atoms: C_31  and  O_32
REMARK    9  A    between atoms: O_32  and  C_33
REMARK                            x       y       z     vdW  Elec       q    Type
REMARK                         _______ _______ _______ _____ _____    ______ ____
ROOT
ATOM      1  C   UNL     1       1.602  10.187  18.752  0.00  0.00    +0.000 C 
ENDROOT
BRANCH   1   2
ATOM      2  N   UNL     1       0.505  10.577  19.608  0.00  0.00    +0.000 N 
ATOM      3  N   UNL     1      -0.749  10.839  19.079  0.00  0.00    +0.000 NA
ATOM      4  C   UNL     1      -1.347  11.474  20.038  0.00  0.00    +0.000 A 
ATOM      5  C   UNL     1      -2.677  11.991  20.027  0.00  0.00    +0.000 A 
ATOM      6  C   UNL     1      -3.673  11.978  19.005  0.00  0.00    +0.000 A 
ATOM      7  C   UNL     1      -4.806  12.642  19.433  0.00  0.00    +0.000 A 
ATOM      8  S   UNL     1      -4.676  13.236  21.024  0.00  0.00    +0.000 S 
ATOM      9  C   UNL     1      -3.077  12.655  21.175  0.00  0.00    +0.000 A 
ATOM     10  N   UNL     1      -2.326  12.864  22.299  0.00  0.00    +0.000 NA
ATOM     11  C   UNL     1      -1.118  12.385  22.240  0.00  0.00    +0.000 A 
ATOM     12  N   UNL     1      -0.618  11.694  21.154  0.00  0.00    +0.000 N 
ATOM     13  C   UNL     1       0.624  11.158  20.882  0.00  0.00    +0.000 A 
ATOM     14  O   UNL     1       1.636  11.187  21.563  0.00  0.00    +0.000 OA
ATOM     15  C   UNL     1      -6.052  12.822  18.612  0.00  0.00    +0.000 C 
ATOM     16  C   UNL     1      -5.768  12.529  17.128  0.00  0.00    +0.000 C 
ATOM     17  C   UNL     1      -4.921  11.262  16.949  0.00  0.00    +0.000 C 
ATOM     18  C   UNL     1      -3.550  11.398  17.631  0.00  0.00    +0.000 C 
ENDBRANCH   1   2
BRANCH   1  20
ATOM     19  N   UNL     1       2.040   7.942  19.641  0.00  0.00    +0.000 N 
ATOM     20  C   UNL     1       1.703   8.682  18.517  0.00  0.00    +0.000 C 
ATOM     21  O   UNL     1       1.603   8.241  17.372  0.00  0.00    +0.000 OA
ATOM     22  H   UNL     1       2.042   8.423  20.540  0.00  0.00    +0.000 HD
BRANCH  19  25
ATOM     23  C   UNL     1       2.017   4.215  20.067  0.00  0.00    +0.000 A 
ATOM     24  C   UNL     1       1.655   5.568  20.198  0.00  0.00    +0.000 A 
ATOM     25  C   UNL     1       2.440   6.586  19.671  0.00  0.00    +0.000 A 
ATOM     26  C   UNL     1       3.652   6.238  19.080  0.00  0.00    +0.000 A 
ATOM     27  C   UNL     1       4.094   4.901  19.038  0.00  0.00    +0.000 A 
ATOM     28  C   UNL     1       3.277   3.865  19.541  0.00  0.00    +0.000 A 
BRANCH  23  30
ATOM     29  C   UNL     1       1.374   2.687  21.759  0.00  0.00    +0.000 C 
ATOM     30  O   UNL     1       1.135   3.236  20.459  0.00  0.00    +0.000 OA
ENDBRANCH  23  30
BRANCH  27  31
ATOM     31  O   UNL     1       5.333   4.805  18.448  0.00  0.00    +0.000 OA
ATOM     32  C   UNL     1       6.433   5.502  19.010  0.00  0.00    +0.000 C 
ENDBRANCH  27  31
BRANCH  28  33
ATOM     33  O   UNL     1       3.798   2.604  19.480  0.00  0.00    +0.000 OA
ATOM     34  C   UNL     1       3.514   1.740  18.393  0.00  0.00    +0.000 C 
ENDBRANCH  28  33
ENDBRANCH  19  25
ENDBRANCH   1  20
TORSDOF 6
ENDMDL
MODEL 7
REMARK VINA RESULT:      -7.9      7.588      9.926
REMARK  Name = 
REMARK  9 active torsions:
REMARK  status: ('A' for Active; 'I' for Inactive)
REMARK    1  A    between atoms: C_1  and  O_2
REMARK    2  A    between atoms: O_2  and  C_3
REMARK    3  A    between atoms: C_5  and  N_6
REMARK    4  A    between atoms: C_7  and  C_9
REMARK    5  A    between atoms: C_9  and  N_10
REMARK    6  A    between atoms: C_28  and  O_29
REMARK    7  A    between atoms: O_29  and  C_30
REMARK    8  A    between atoms: C_31  and  O_32
REMARK    9  A    between atoms: O_32  and  C_33
REMARK                            x       y       z     vdW  Elec       q    Type
REMARK                         _______ _______ _______ _____ _____    ______ ____
ROOT
ATOM      1  C   UNL     1       1.433  10.252  19.012  0.00  0.00    +0.000 C 
ENDROOT
BRANCH   1   2
ATOM      2  N   UNL     1       1.900   8.941  19.400  0.00  0.00    +0.000 N 
ATOM      3  N   UNL     1       2.698   8.192  18.550  0.00  0.00    +0.000 NA
ATOM      4  C   UNL     1       2.624   6.999  19.052  0.00  0.00    +0.000 A 
ATOM      5  C   UNL     1       3.259   5.819  18.558  0.00  0.00    +0.000 A 
ATOM      6  C   UNL     1       4.095   5.618  17.420  0.00  0.00    +0.000 A 
ATOM      7  C   UNL     1       4.447   4.287  17.313  0.00  0.00    +0.000 A 
ATOM      8  S   UNL     1       3.806   3.321  18.562  0.00  0.00    +0.000 S 
ATOM      9  C   UNL     1       3.003   4.655  19.264  0.00  0.00    +0.000 A 
ATOM     10  N   UNL     1       2.205   4.530  20.369  0.00  0.00    +0.000 NA
ATOM     11  C   UNL     1       1.642   5.636  20.757  0.00  0.00    +0.000 A 
ATOM     12  N   UNL     1       1.837   6.856  20.140  0.00  0.00    +0.000 N 
ATOM     13  C   UNL     1       1.306   8.109  20.364  0.00  0.00    +0.000 A 
ATOM     14  O   UNL     1       0.478   8.453  21.193  0.00  0.00    +0.000 OA
ATOM     15  C   UNL     1       5.319   3.717  16.231  0.00  0.00    +0.000 C 
ATOM     16  C   UNL     1       5.443   4.708  15.060  0.00  0.00    +0.000 C 
ATOM     17  C   UNL     1       5.685   6.142  15.550  0.00  0.00    +0.000 C 
ATOM     18  C   UNL     1       4.521   6.645  16.419  0.00  0.00    +0.000 C 
ENDBRANCH   1   2
BRANCH   1  20
ATOM     19  N   UNL     1      -0.778  11.277  18.722  0.00  0.00    +0.000 N 
ATOM     20  C   UNL     1       0.068  10.250  18.329  0.00  0.00    +0.000 C 
ATOM     21  O   UNL     1      -0.237   9.313  17.592  0.00  0.00    +0.000 OA
ATOM     22  H   UNL     1      -0.383  12.018  19.300  0.00  0.00    +0.000 HD
BRANCH  19  25
ATOM     23  C   UNL     1      -4.425  12.106  19.010  0.00  0.00    +0.000 A 
ATOM     24  C   UNL     1      -3.086  11.867  19.369  0.00  0.00    +0.000 A 
ATOM     25  C   UNL     1      -2.161  11.383  18.452  0.00  0.00    +0.000 A 
ATOM     26  C   UNL     1      -2.616  11.051  17.178  0.00  0.00    +0.000 A 
ATOM     27  C   UNL     1      -3.975  11.171  16.826  0.00  0.00    +0.000 A 
ATOM     28  C   UNL     1      -4.905  11.699  17.750  0.00  0.00    +0.000 A 
BRANCH  23  30
ATOM     29  C   UNL     1      -4.708  13.881  20.553  0.00  0.00    +0.000 C 
ATOM     30  O   UNL     1      -5.264  12.736  19.900  0.00  0.00    +0.000 OA
ENDBRANCH  23  30
BRANCH  27  31
ATOM     31  O   UNL     1      -4.195  10.747  15.537  0.00  0.00    +0.000 OA
ATOM     32  C   UNL     1      -3.107  10.278  14.758  0.00  0.00    +0.000 C 
ENDBRANCH  27  31
BRANCH  28  33
ATOM     33  O   UNL     1      -6.204  11.755  17.330  0.00  0.00    +0.000 OA
ATOM     34  C   UNL     1      -6.866  12.994  17.141  0.00  0.00    +0.000 C 
ENDBRANCH  28  33
ENDBRANCH  19  25
ENDBRANCH   1  20
TORSDOF 6
ENDMDL
MODEL 8
REMARK VINA RESULT:      -7.8      7.763     10.758
REMARK  Name = 
REMARK  9 active torsions:
REMARK  status: ('A' for Active; 'I' for Inactive)
REMARK    1  A    between atoms: C_1  and  O_2
REMARK    2  A    between atoms: O_2  and  C_3
REMARK    3  A    between atoms: C_5  and  N_6
REMARK    4  A    between atoms: C_7  and  C_9
REMARK    5  A    between atoms: C_9  and  N_10
REMARK    6  A    between atoms: C_28  and  O_29
REMARK    7  A    between atoms: O_29  and  C_30
REMARK    8  A    between atoms: C_31  and  O_32
REMARK    9  A    between atoms: O_32  and  C_33
REMARK                            x       y       z     vdW  Elec       q    Type
REMARK                         _______ _______ _______ _____ _____    ______ ____
ROOT
ATOM      1  C   UNL     1       1.207  10.261  18.571  0.00  0.00    +0.000 C 
ENDROOT
BRANCH   1   2
ATOM      2  N   UNL     1       0.261  10.836  19.500  0.00  0.00    +0.000 N 
ATOM      3  N   UNL     1      -1.063  11.024  19.139  0.00  0.00    +0.000 NA
ATOM      4  C   UNL     1      -1.500  11.846  20.041  0.00  0.00    +0.000 A 
ATOM      5  C   UNL     1      -2.818  12.386  20.144  0.00  0.00    +0.000 A 
ATOM      6  C   UNL     1      -3.966  12.204  19.317  0.00  0.00    +0.000 A 
ATOM      7  C   UNL     1      -5.018  12.967  19.785  0.00  0.00    +0.000 A 
ATOM      8  S   UNL     1      -4.635  13.850  21.191  0.00  0.00    +0.000 S 
ATOM      9  C   UNL     1      -3.029  13.267  21.192  0.00  0.00    +0.000 A 
ATOM     10  N   UNL     1      -2.106  13.668  22.120  0.00  0.00    +0.000 NA
ATOM     11  C   UNL     1      -0.922  13.154  21.961  0.00  0.00    +0.000 A 
ATOM     12  N   UNL     1      -0.601  12.256  20.962  0.00  0.00    +0.000 N 
ATOM     13  C   UNL     1       0.583  11.646  20.602  0.00  0.00    +0.000 A 
ATOM     14  O   UNL     1       1.692  11.778  21.094  0.00  0.00    +0.000 OA
ATOM     15  C   UNL     1      -6.382  13.020  19.156  0.00  0.00    +0.000 C 
ATOM     16  C   UNL     1      -6.341  12.442  17.730  0.00  0.00    +0.000 C 
ATOM     17  C   UNL     1      -5.527  11.142  17.665  0.00  0.00    +0.000 C 
ATOM     18  C   UNL     1      -4.065  11.370  18.079  0.00  0.00    +0.000 C 
ENDBRANCH   1   2
BRANCH   1  20
ATOM     19  N   UNL     1       2.537   8.264  18.056  0.00  0.00    +0.000 N 
ATOM     20  C   UNL     1       1.783   8.920  19.018  0.00  0.00    +0.000 C 
ATOM     21  O   UNL     1       1.465   8.462  20.115  0.00  0.00    +0.000 OA
ATOM     22  H   UNL     1       2.769   8.778  17.207  0.00  0.00    +0.000 HD
BRANCH  19  25
ATOM     23  C   UNL     1       4.727   5.219  18.107  0.00  0.00    +0.000 A 
ATOM     24  C   UNL     1       4.299   6.543  17.899  0.00  0.00    +0.000 A 
ATOM     25  C   UNL     1       2.977   6.921  18.099  0.00  0.00    +0.000 A 
ATOM     26  C   UNL     1       2.056   5.930  18.427  0.00  0.00    +0.000 A 
ATOM     27  C   UNL     1       2.434   4.577  18.528  0.00  0.00    +0.000 A 
ATOM     28  C   UNL     1       3.785   4.201  18.361  0.00  0.00    +0.000 A 
BRANCH  23  30
ATOM     29  C   UNL     1       6.595   4.710  16.741  0.00  0.00    +0.000 C 
ATOM     30  O   UNL     1       6.069   4.923  18.056  0.00  0.00    +0.000 OA
ENDBRANCH  23  30
BRANCH  27  31
ATOM     31  O   UNL     1       1.353   3.777  18.818  0.00  0.00    +0.000 OA
ATOM     32  C   UNL     1       0.867   3.712  20.149  0.00  0.00    +0.000 C 
ENDBRANCH  27  31
BRANCH  28  33
ATOM     33  O   UNL     1       4.055   2.865  18.452  0.00  0.00    +0.000 OA
ATOM     34  C   UNL     1       4.317   2.249  19.701  0.00  0.00    +0.000 C 
ENDBRANCH  28  33
ENDBRANCH  19  25
ENDBRANCH   1  20
TORSDOF 6
ENDMDL
MODEL 9
REMARK VINA RESULT:      -7.8      7.619     10.710
REMARK  Name = 
REMARK  9 active torsions:
REMARK  status: ('A' for Active; 'I' for Inactive)
REMARK    1  A    between atoms: C_1  and  O_2
REMARK    2  A    between atoms: O_2  and  C_3
REMARK    3  A    between atoms: C_5  and  N_6
REMARK    4  A    between atoms: C_7  and  C_9
REMARK    5  A    between atoms: C_9  and  N_10
REMARK    6  A    between atoms: C_28  and  O_29
REMARK    7  A    between atoms: O_29  and  C_30
REMARK    8  A    between atoms: C_31  and  O_32
REMARK    9  A    between atoms: O_32  and  C_33
REMARK                            x       y       z     vdW  Elec       q    Type
REMARK                         _______ _______ _______ _____ _____    ______ ____
ROOT
ATOM      1  C   UNL     1       1.594  10.503  18.687  0.00  0.00    +0.000 C 
ENDROOT
BRANCH   1   2
ATOM      2  N   UNL     1       0.470  10.771  19.555  0.00  0.00    +0.000 N 
ATOM      3  N   UNL     1      -0.791  11.007  19.031  0.00  0.00    +0.000 NA
ATOM      4  C   UNL     1      -1.429  11.536  20.028  0.00  0.00    +0.000 A 
ATOM      5  C   UNL     1      -2.785  11.984  20.038  0.00  0.00    +0.000 A 
ATOM      6  C   UNL     1      -3.769  11.998  19.005  0.00  0.00    +0.000 A 
ATOM      7  C   UNL     1      -4.939  12.568  19.467  0.00  0.00    +0.000 A 
ATOM      8  S   UNL     1      -4.855  13.045  21.100  0.00  0.00    +0.000 S 
ATOM      9  C   UNL     1      -3.229  12.536  21.228  0.00  0.00    +0.000 A 
ATOM     10  N   UNL     1      -2.500  12.698  22.375  0.00  0.00    +0.000 NA
ATOM     11  C   UNL     1      -1.269  12.286  22.295  0.00  0.00    +0.000 A 
ATOM     12  N   UNL     1      -0.724  11.707  21.167  0.00  0.00    +0.000 N 
ATOM     13  C   UNL     1       0.547  11.258  20.871  0.00  0.00    +0.000 A 
ATOM     14  O   UNL     1       1.550  11.286  21.566  0.00  0.00    +0.000 OA
ATOM     15  C   UNL     1      -6.185  12.747  18.646  0.00  0.00    +0.000 C 
ATOM     16  C   UNL     1      -5.872  12.583  17.148  0.00  0.00    +0.000 C 
ATOM     17  C   UNL     1      -4.958  11.378  16.885  0.00  0.00    +0.000 C 
ATOM     18  C   UNL     1      -3.604  11.531  17.593  0.00  0.00    +0.000 C 
ENDBRANCH   1   2
BRANCH   1  20
ATOM     19  N   UNL     1       2.166   8.196  19.296  0.00  0.00    +0.000 N 
ATOM     20  C   UNL     1       1.733   9.038  18.282  0.00  0.00    +0.000 C 
ATOM     21  O   UNL     1       1.576   8.719  17.103  0.00  0.00    +0.000 OA
ATOM     22  H   UNL     1       2.208   8.577  20.241  0.00  0.00    +0.000 HD
BRANCH  19  25
ATOM     23  C   UNL     1       3.946   5.135  18.058  0.00  0.00    +0.000 A 
ATOM     24  C   UNL     1       3.387   6.425  18.085  0.00  0.00    +0.000 A 
ATOM     25  C   UNL     1       2.615   6.863  19.153  0.00  0.00    +0.000 A 
ATOM     26  C   UNL     1       2.329   5.954  20.169  0.00  0.00    +0.000 A 
ATOM     27  C   UNL     1       2.779   4.620  20.112  0.00  0.00    +0.000 A 
ATOM     28  C   UNL     1       3.595   4.189  19.042  0.00  0.00    +0.000 A 
BRANCH  23  30
ATOM     29  C   UNL     1       6.207   5.081  17.353  0.00  0.00    +0.000 C 
ATOM     30  O   UNL     1       4.834   4.800  17.062  0.00  0.00    +0.000 OA
ENDBRANCH  23  30
BRANCH  27  31
ATOM     31  O   UNL     1       2.342   3.899  21.198  0.00  0.00    +0.000 OA
ATOM     32  C   UNL     1       1.165   3.114  21.090  0.00  0.00    +0.000 C 
ENDBRANCH  27  31
BRANCH  28  33
ATOM     33  O   UNL     1       3.964   2.874  19.058  0.00  0.00    +0.000 OA
ATOM     34  C   UNL     1       3.274   1.904  18.289  0.00  0.00    +0.000 C 
ENDBRANCH  28  33
ENDBRANCH  19  25
ENDBRANCH   1  20
TORSDOF 6
ENDMDL
