MODEL 1
REMARK VINA RESULT:      -7.7      0.000      0.000
REMARK  Name = 
REMARK  7 active torsions:
REMARK  status: ('A' for Active; 'I' for Inactive)
REMARK    1  A    between atoms: C_4  and  C_5
REMARK    2  A    between atoms: C_5  and  C_6
REMARK    3  A    between atoms: C_9  and  S_10
REMARK    4  A    between atoms: S_10  and  C_11
REMARK    5  A    between atoms: C_11  and  C_12
REMARK    6  A    between atoms: C_12  and  C_13
REMARK    7  A    between atoms: C_13  and  N_14
REMARK                            x       y       z     vdW  Elec       q    Type
REMARK                         _______ _______ _______ _____ _____    ______ ____
ROOT
ATOM      1  C   UNL     1       8.601   9.947  18.149  0.00  0.00    +0.000 C 
ENDROOT
BRANCH   1   2
ATOM      2  S   UNL     1       9.505  10.593  19.602  0.00  0.00    +0.000 S 
BRANCH   2   6
ATOM      3  C   UNL     1      11.632  13.673  18.861  0.00  0.00    +0.000 A 
ATOM      4  N   UNL     1      11.956  12.965  17.796  0.00  0.00    +0.000 NA
ATOM      5  N   UNL     1      11.251  11.776  17.843  0.00  0.00    +0.000 NA
ATOM      6  C   UNL     1      10.528  11.792  18.931  0.00  0.00    +0.000 A 
ATOM      7  N   UNL     1      10.699  12.977  19.587  0.00  0.00    +0.000 N 
ATOM      8  H   UNL     1      10.262  13.240  20.454  0.00  0.00    +0.000 HD
BRANCH   3   9
ATOM      9  C   UNL     1      12.211  14.973  19.316  0.00  0.00    +0.000 C 
BRANCH   9  13
ATOM     10  C   UNL     1      10.304  18.498  17.685  0.00  0.00    +0.000 A 
ATOM     11  C   UNL     1      11.654  18.249  17.451  0.00  0.00    +0.000 A 
ATOM     12  C   UNL     1      12.258  17.114  17.996  0.00  0.00    +0.000 A 
ATOM     13  C   UNL     1      11.526  16.219  18.796  0.00  0.00    +0.000 A 
ATOM     14  C   UNL     1      10.161  16.470  18.997  0.00  0.00    +0.000 A 
ATOM     15  C   UNL     1       9.558  17.607  18.453  0.00  0.00    +0.000 A 
ENDBRANCH   9  13
ENDBRANCH   3   9
ENDBRANCH   2   6
ENDBRANCH   1   2
BRANCH   1  16
ATOM     16  C   UNL     1       8.419   8.447  18.413  0.00  0.00    +0.000 C 
BRANCH  16  17
ATOM     17  C   UNL     1       7.491   7.695  17.450  0.00  0.00    +0.000 C 
BRANCH  17  18
ATOM     18  N   UNL     1       7.663   6.240  17.386  0.00  0.00    +0.000 NA
ATOM     19  C   UNL     1       7.476   5.543  18.687  0.00  0.00    +0.000 C 
ATOM     20  C   UNL     1       6.019   5.392  19.205  0.00  0.00    +0.000 C 
ATOM     21  N   UNL     1       5.198   4.819  18.136  0.00  0.00    +0.000 N 
ATOM     22  C   UNL     1       4.164   3.967  18.455  0.00  0.00    +0.000 A 
ATOM     23  C   UNL     1       3.723   3.029  17.520  0.00  0.00    +0.000 A 
ATOM     24  C   UNL     1       2.759   2.085  17.867  0.00  0.00    +0.000 A 
ATOM     25  C   UNL     1       2.233   2.101  19.146  0.00  0.00    +0.000 A 
ATOM     26  C   UNL     1       2.701   3.065  20.020  0.00  0.00    +0.000 A 
ATOM     27  N   UNL     1       3.655   3.979  19.707  0.00  0.00    +0.000 NA
ATOM     28  C   UNL     1       5.241   5.545  16.867  0.00  0.00    +0.000 C 
ATOM     29  C   UNL     1       6.715   5.647  16.400  0.00  0.00    +0.000 C 
ENDBRANCH  17  18
ENDBRANCH  16  17
ENDBRANCH   1  16
TORSDOF 7
ENDMDL
MODEL 2
REMARK VINA RESULT:      -7.7      1.664     12.310
REMARK  Name = 
REMARK  7 active torsions:
REMARK  status: ('A' for Active; 'I' for Inactive)
REMARK    1  A    between atoms: C_4  and  C_5
REMARK    2  A    between atoms: C_5  and  C_6
REMARK    3  A    between atoms: C_9  and  S_10
REMARK    4  A    between atoms: S_10  and  C_11
REMARK    5  A    between atoms: C_11  and  C_12
REMARK    6  A    between atoms: C_12  and  C_13
REMARK    7  A    between atoms: C_13  and  N_14
REMARK                            x       y       z     vdW  Elec       q    Type
REMARK                         _______ _______ _______ _____ _____    ______ ____
ROOT
ATOM      1  C   UNL     1       8.563   8.682  18.916  0.00  0.00    +0.000 C 
ENDROOT
BRANCH   1   2
ATOM      2  S   UNL     1       7.792   8.003  17.402  0.00  0.00    +0.000 S 
BRANCH   2   6
ATOM      3  C   UNL     1       5.443   5.062  18.029  0.00  0.00    +0.000 A 
ATOM      4  N   UNL     1       6.409   4.705  18.855  0.00  0.00    +0.000 NA
ATOM      5  N   UNL     1       7.389   5.680  18.811  0.00  0.00    +0.000 NA
ATOM      6  C   UNL     1       6.998   6.592  17.961  0.00  0.00    +0.000 A 
ATOM      7  N   UNL     1       5.764   6.273  17.470  0.00  0.00    +0.000 N 
ATOM      8  H   UNL     1       5.242   6.805  16.796  0.00  0.00    +0.000 HD
BRANCH   3   9
ATOM      9  C   UNL     1       4.227   4.285  17.643  0.00  0.00    +0.000 C 
BRANCH   9  13
ATOM     10  C   UNL     1       1.050   4.094  20.576  0.00  0.00    +0.000 A 
ATOM     11  C   UNL     1       1.128   3.154  19.552  0.00  0.00    +0.000 A 
ATOM     12  C   UNL     1       2.151   3.238  18.605  0.00  0.00    +0.000 A 
ATOM     13  C   UNL     1       3.103   4.271  18.658  0.00  0.00    +0.000 A 
ATOM     14  C   UNL     1       3.027   5.192  19.713  0.00  0.00    +0.000 A 
ATOM     15  C   UNL     1       2.001   5.109  20.659  0.00  0.00    +0.000 A 
ENDBRANCH   9  13
ENDBRANCH   3   9
ENDBRANCH   2   6
ENDBRANCH   1   2
BRANCH   1  16
ATOM     16  C   UNL     1       9.030  10.093  18.539  0.00  0.00    +0.000 C 
BRANCH  16  17
ATOM     17  C   UNL     1      10.011  10.765  19.509  0.00  0.00    +0.000 C 
BRANCH  17  18
ATOM     18  N   UNL     1      11.220  11.345  18.913  0.00  0.00    +0.000 NA
ATOM     19  C   UNL     1      10.992  12.032  17.613  0.00  0.00    +0.000 C 
ATOM     20  C   UNL     1      10.297  13.420  17.660  0.00  0.00    +0.000 C 
ATOM     21  N   UNL     1      10.999  14.264  18.628  0.00  0.00    +0.000 N 
ATOM     22  C   UNL     1      11.101  15.620  18.402  0.00  0.00    +0.000 A 
ATOM     23  C   UNL     1      12.151  16.343  18.970  0.00  0.00    +0.000 A 
ATOM     24  C   UNL     1      12.333  17.688  18.657  0.00  0.00    +0.000 A 
ATOM     25  C   UNL     1      11.448  18.301  17.790  0.00  0.00    +0.000 A 
ATOM     26  C   UNL     1      10.420  17.534  17.273  0.00  0.00    +0.000 A 
ATOM     27  N   UNL     1      10.240  16.217  17.549  0.00  0.00    +0.000 NA
ATOM     28  C   UNL     1      11.135  13.690  19.966  0.00  0.00    +0.000 C 
ATOM     29  C   UNL     1      11.848  12.318  19.851  0.00  0.00    +0.000 C 
ENDBRANCH  17  18
ENDBRANCH  16  17
ENDBRANCH   1  16
TORSDOF 7
ENDMDL
MODEL 3
REMARK VINA RESULT:      -7.4      1.098      1.206
REMARK  Name = 
REMARK  7 active torsions:
REMARK  status: ('A' for Active; 'I' for Inactive)
REMARK    1  A    between atoms: C_4  and  C_5
REMARK    2  A    between atoms: C_5  and  C_6
REMARK    3  A    between atoms: C_9  and  S_10
REMARK    4  A    between atoms: S_10  and  C_11
REMARK    5  A    between atoms: C_11  and  C_12
REMARK    6  A    between atoms: C_12  and  C_13
REMARK    7  A    between atoms: C_13  and  N_14
REMARK                            x       y       z     vdW  Elec       q    Type
REMARK                         _______ _______ _______ _____ _____    ______ ____
ROOT
ATOM      1  C   UNL     1       8.646   9.336  17.752  0.00  0.00    +0.000 C 
ENDROOT
BRANCH   1   2
ATOM      2  S   UNL     1       9.137  10.129  19.326  0.00  0.00    +0.000 S 
BRANCH   2   6
ATOM      3  C   UNL     1      11.210  12.877  17.678  0.00  0.00    +0.000 A 
ATOM      4  N   UNL     1      12.045  12.578  18.655  0.00  0.00    +0.000 NA
ATOM      5  N   UNL     1      11.490  11.546  19.390  0.00  0.00    +0.000 NA
ATOM      6  C   UNL     1      10.339  11.252  18.846  0.00  0.00    +0.000 A 
ATOM      7  N   UNL     1      10.131  12.030  17.744  0.00  0.00    +0.000 N 
ATOM      8  H   UNL     1       9.321  12.009  17.149  0.00  0.00    +0.000 HD
BRANCH   3   9
ATOM      9  C   UNL     1      11.308  13.993  16.691  0.00  0.00    +0.000 C 
BRANCH   9  13
ATOM     10  C   UNL     1      10.028  17.931  17.951  0.00  0.00    +0.000 A 
ATOM     11  C   UNL     1      11.292  17.738  17.399  0.00  0.00    +0.000 A 
ATOM     12  C   UNL     1      11.696  16.459  17.011  0.00  0.00    +0.000 A 
ATOM     13  C   UNL     1      10.847  15.350  17.181  0.00  0.00    +0.000 A 
ATOM     14  C   UNL     1       9.568  15.567  17.712  0.00  0.00    +0.000 A 
ATOM     15  C   UNL     1       9.165  16.847  18.102  0.00  0.00    +0.000 A 
ENDBRANCH   9  13
ENDBRANCH   3   9
ENDBRANCH   2   6
ENDBRANCH   1   2
BRANCH   1  16
ATOM     16  C   UNL     1       7.743   8.162  18.150  0.00  0.00    +0.000 C 
BRANCH  16  17
ATOM     17  C   UNL     1       7.585   7.045  17.110  0.00  0.00    +0.000 C 
BRANCH  17  18
ATOM     18  N   UNL     1       7.544   5.674  17.631  0.00  0.00    +0.000 NA
ATOM     19  C   UNL     1       6.869   5.539  18.949  0.00  0.00    +0.000 C 
ATOM     20  C   UNL     1       5.318   5.637  18.962  0.00  0.00    +0.000 C 
ATOM     21  N   UNL     1       4.782   4.717  17.958  0.00  0.00    +0.000 N 
ATOM     22  C   UNL     1       3.582   4.080  18.190  0.00  0.00    +0.000 A 
ATOM     23  C   UNL     1       3.307   2.865  17.560  0.00  0.00    +0.000 A 
ATOM     24  C   UNL     1       2.151   2.153  17.873  0.00  0.00    +0.000 A 
ATOM     25  C   UNL     1       1.271   2.676  18.803  0.00  0.00    +0.000 A 
ATOM     26  C   UNL     1       1.594   3.891  19.380  0.00  0.00    +0.000 A 
ATOM     27  N   UNL     1       2.727   4.588  19.104  0.00  0.00    +0.000 NA
ATOM     28  C   UNL     1       5.316   4.894  16.608  0.00  0.00    +0.000 C 
ATOM     29  C   UNL     1       6.860   4.770  16.662  0.00  0.00    +0.000 C 
ENDBRANCH  17  18
ENDBRANCH  16  17
ENDBRANCH   1  16
TORSDOF 7
ENDMDL
MODEL 4
REMARK VINA RESULT:      -7.4      2.819     10.907
REMARK  Name = 
REMARK  7 active torsions:
REMARK  status: ('A' for Active; 'I' for Inactive)
REMARK    1  A    between atoms: C_4  and  C_5
REMARK    2  A    between atoms: C_5  and  C_6
REMARK    3  A    between atoms: C_9  and  S_10
REMARK    4  A    between atoms: S_10  and  C_11
REMARK    5  A    between atoms: C_11  and  C_12
REMARK    6  A    between atoms: C_12  and  C_13
REMARK    7  A    between atoms: C_13  and  N_14
REMARK                            x       y       z     vdW  Elec       q    Type
REMARK                         _______ _______ _______ _____ _____    ______ ____
ROOT
ATOM      1  C   UNL     1       9.188  10.090  19.119  0.00  0.00    +0.000 C 
ENDROOT
BRANCH   1   2
ATOM      2  S   UNL     1       8.282   9.680  17.583  0.00  0.00    +0.000 S 
BRANCH   2   6
ATOM      3  C   UNL     1       6.805   6.168  17.372  0.00  0.00    +0.000 A 
ATOM      4  N   UNL     1       7.575   5.980  18.427  0.00  0.00    +0.000 NA
ATOM      5  N   UNL     1       8.206   7.177  18.713  0.00  0.00    +0.000 NA
ATOM      6  C   UNL     1       7.810   8.051  17.826  0.00  0.00    +0.000 A 
ATOM      7  N   UNL     1       6.900   7.480  16.983  0.00  0.00    +0.000 N 
ATOM      8  H   UNL     1       6.446   7.934  16.209  0.00  0.00    +0.000 HD
BRANCH   3   9
ATOM      9  C   UNL     1       6.014   5.151  16.615  0.00  0.00    +0.000 C 
BRANCH   9  13
ATOM     10  C   UNL     1       1.919   4.624  17.913  0.00  0.00    +0.000 A 
ATOM     11  C   UNL     1       2.558   5.854  18.058  0.00  0.00    +0.000 A 
ATOM     12  C   UNL     1       3.884   6.004  17.647  0.00  0.00    +0.000 A 
ATOM     13  C   UNL     1       4.598   4.923  17.099  0.00  0.00    +0.000 A 
ATOM     14  C   UNL     1       3.931   3.701  16.934  0.00  0.00    +0.000 A 
ATOM     15  C   UNL     1       2.604   3.551  17.347  0.00  0.00    +0.000 A 
ENDBRANCH   9  13
ENDBRANCH   3   9
ENDBRANCH   2   6
ENDBRANCH   1   2
BRANCH   1  16
ATOM     16  C   UNL     1      10.257  11.108  18.704  0.00  0.00    +0.000 C 
BRANCH  16  17
ATOM     17  C   UNL     1      10.550  12.231  19.707  0.00  0.00    +0.000 C 
BRANCH  17  18
ATOM     18  N   UNL     1      10.471  13.602  19.190  0.00  0.00    +0.000 NA
ATOM     19  C   UNL     1       9.739  13.729  17.901  0.00  0.00    +0.000 C 
ATOM     20  C   UNL     1       8.190  13.614  17.954  0.00  0.00    +0.000 C 
ATOM     21  N   UNL     1       7.687  14.528  18.981  0.00  0.00    +0.000 N 
ATOM     22  C   UNL     1       6.472  15.151  18.801  0.00  0.00    +0.000 A 
ATOM     23  C   UNL     1       6.210  16.364  19.443  0.00  0.00    +0.000 A 
ATOM     24  C   UNL     1       5.034  17.062  19.180  0.00  0.00    +0.000 A 
ATOM     25  C   UNL     1       4.121  16.530  18.287  0.00  0.00    +0.000 A 
ATOM     26  C   UNL     1       4.433  15.319  17.697  0.00  0.00    +0.000 A 
ATOM     27  N   UNL     1       5.583  14.634  17.924  0.00  0.00    +0.000 NA
ATOM     28  C   UNL     1       8.281  14.357  20.307  0.00  0.00    +0.000 C 
ATOM     29  C   UNL     1       9.820  14.498  20.187  0.00  0.00    +0.000 C 
ENDBRANCH  17  18
ENDBRANCH  16  17
ENDBRANCH   1  16
TORSDOF 7
ENDMDL
MODEL 5
REMARK VINA RESULT:      -7.3      3.712      5.533
REMARK  Name = 
REMARK  7 active torsions:
REMARK  status: ('A' for Active; 'I' for Inactive)
REMARK    1  A    between atoms: C_4  and  C_5
REMARK    2  A    between atoms: C_5  and  C_6
REMARK    3  A    between atoms: C_9  and  S_10
REMARK    4  A    between atoms: S_10  and  C_11
REMARK    5  A    between atoms: C_11  and  C_12
REMARK    6  A    between atoms: C_12  and  C_13
REMARK    7  A    between atoms: C_13  and  N_14
REMARK                            x       y       z     vdW  Elec       q    Type
REMARK                         _______ _______ _______ _____ _____    ______ ____
ROOT
ATOM      1  C   UNL     1       7.034   4.944  16.692  0.00  0.00    +0.000 C 
ENDROOT
BRANCH   1   2
ATOM      2  S   UNL     1       7.516   5.481  18.374  0.00  0.00    +0.000 S 
BRANCH   2   6
ATOM      3  C   UNL     1       8.693   9.098  18.671  0.00  0.00    +0.000 A 
ATOM      4  N   UNL     1       8.105   9.192  17.493  0.00  0.00    +0.000 NA
ATOM      5  N   UNL     1       7.560   7.958  17.189  0.00  0.00    +0.000 NA
ATOM      6  C   UNL     1       7.836   7.152  18.179  0.00  0.00    +0.000 A 
ATOM      7  N   UNL     1       8.512   7.827  19.155  0.00  0.00    +0.000 N 
ATOM      8  H   UNL     1       8.847   7.437  20.019  0.00  0.00    +0.000 HD
BRANCH   3   9
ATOM      9  C   UNL     1       9.517  10.126  19.374  0.00  0.00    +0.000 C 
BRANCH   9  13
ATOM     10  C   UNL     1      10.611  13.669  17.142  0.00  0.00    +0.000 A 
ATOM     11  C   UNL     1       9.382  13.590  17.791  0.00  0.00    +0.000 A 
ATOM     12  C   UNL     1       9.037  12.435  18.495  0.00  0.00    +0.000 A 
ATOM     13  C   UNL     1       9.911  11.334  18.549  0.00  0.00    +0.000 A 
ATOM     14  C   UNL     1      11.156  11.441  17.914  0.00  0.00    +0.000 A 
ATOM     15  C   UNL     1      11.499  12.598  17.208  0.00  0.00    +0.000 A 
ENDBRANCH   9  13
ENDBRANCH   3   9
ENDBRANCH   2   6
ENDBRANCH   1   2
BRANCH   1  16
ATOM     16  C   UNL     1       5.546   5.291  16.562  0.00  0.00    +0.000 C 
BRANCH  16  17
ATOM     17  C   UNL     1       4.700   5.138  17.833  0.00  0.00    +0.000 C 
BRANCH  17  18
ATOM     18  N   UNL     1       3.253   5.320  17.675  0.00  0.00    +0.000 NA
ATOM     19  C   UNL     1       2.463   5.040  18.904  0.00  0.00    +0.000 C 
ATOM     20  C   UNL     1       2.517   6.103  20.037  0.00  0.00    +0.000 C 
ATOM     21  N   UNL     1       2.219   7.416  19.462  0.00  0.00    +0.000 N 
ATOM     22  C   UNL     1       1.534   8.347  20.212  0.00  0.00    +0.000 A 
ATOM     23  C   UNL     1       0.796   9.346  19.575  0.00  0.00    +0.000 A 
ATOM     24  C   UNL     1       0.006  10.222  20.315  0.00  0.00    +0.000 A 
ATOM     25  C   UNL     1      -0.023  10.099  21.693  0.00  0.00    +0.000 A 
ATOM     26  C   UNL     1       0.741   9.098  22.264  0.00  0.00    +0.000 A 
ATOM     27  N   UNL     1       1.501   8.222  21.557  0.00  0.00    +0.000 NA
ATOM     28  C   UNL     1       3.059   7.801  18.329  0.00  0.00    +0.000 C 
ATOM     29  C   UNL     1       2.948   6.711  17.232  0.00  0.00    +0.000 C 
ENDBRANCH  17  18
ENDBRANCH  16  17
ENDBRANCH   1  16
TORSDOF 7
ENDMDL
MODEL 6
REMARK VINA RESULT:      -7.2      6.576      9.264
REMARK  Name = 
REMARK  7 active torsions:
REMARK  status: ('A' for Active; 'I' for Inactive)
REMARK    1  A    between atoms: C_4  and  C_5
REMARK    2  A    between atoms: C_5  and  C_6
REMARK    3  A    between atoms: C_9  and  S_10
REMARK    4  A    between atoms: S_10  and  C_11
REMARK    5  A    between atoms: C_11  and  C_12
REMARK    6  A    between atoms: C_12  and  C_13
REMARK    7  A    between atoms: C_13  and  N_14
REMARK                            x       y       z     vdW  Elec       q    Type
REMARK                         _______ _______ _______ _____ _____    ______ ____
ROOT
ATOM      1  C   UNL     1       0.818   3.983  20.267  0.00  0.00    +0.000 C 
ENDROOT
BRANCH   1   2
ATOM      2  S   UNL     1       2.170   4.973  21.000  0.00  0.00    +0.000 S 
BRANCH   2   6
ATOM      3  C   UNL     1       1.469   8.624  20.139  0.00  0.00    +0.000 A 
ATOM      4  N   UNL     1       2.042   8.274  19.002  0.00  0.00    +0.000 NA
ATOM      5  N   UNL     1       2.363   6.931  19.083  0.00  0.00    +0.000 NA
ATOM      6  C   UNL     1       1.985   6.506  20.259  0.00  0.00    +0.000 A 
ATOM      7  N   UNL     1       1.381   7.519  20.948  0.00  0.00    +0.000 N 
ATOM      8  H   UNL     1       1.007   7.459  21.879  0.00  0.00    +0.000 HD
BRANCH   3   9
ATOM      9  C   UNL     1       1.051   9.989  20.577  0.00  0.00    +0.000 C 
BRANCH   9  13
ATOM     10  C   UNL     1      -1.660  12.104  17.949  0.00  0.00    +0.000 A 
ATOM     11  C   UNL     1      -1.929  10.796  18.345  0.00  0.00    +0.000 A 
ATOM     12  C   UNL     1      -1.038  10.122  19.181  0.00  0.00    +0.000 A 
ATOM     13  C   UNL     1       0.145  10.740  19.624  0.00  0.00    +0.000 A 
ATOM     14  C   UNL     1       0.387  12.067  19.240  0.00  0.00    +0.000 A 
ATOM     15  C   UNL     1      -0.505  12.740  18.401  0.00  0.00    +0.000 A 
ENDBRANCH   9  13
ENDBRANCH   3   9
ENDBRANCH   2   6
ENDBRANCH   1   2
BRANCH   1  16
ATOM     16  C   UNL     1       1.389   3.411  18.964  0.00  0.00    +0.000 C 
BRANCH  16  17
ATOM     17  C   UNL     1       1.932   1.978  19.032  0.00  0.00    +0.000 C 
BRANCH  17  18
ATOM     18  N   UNL     1       3.258   1.757  18.444  0.00  0.00    +0.000 NA
ATOM     19  C   UNL     1       3.513   2.531  17.200  0.00  0.00    +0.000 C 
ATOM     20  C   UNL     1       3.789   4.052  17.357  0.00  0.00    +0.000 C 
ATOM     21  N   UNL     1       4.839   4.237  18.361  0.00  0.00    +0.000 N 
ATOM     22  C   UNL     1       5.737   5.272  18.224  0.00  0.00    +0.000 A 
ATOM     23  C   UNL     1       7.000   5.180  18.812  0.00  0.00    +0.000 A 
ATOM     24  C   UNL     1       7.959   6.164  18.585  0.00  0.00    +0.000 A 
ATOM     25  C   UNL     1       7.636   7.244  17.784  0.00  0.00    +0.000 A 
ATOM     26  C   UNL     1       6.363   7.285  17.243  0.00  0.00    +0.000 A 
ATOM     27  N   UNL     1       5.423   6.323  17.436  0.00  0.00    +0.000 NA
ATOM     28  C   UNL     1       4.576   3.605  19.654  0.00  0.00    +0.000 C 
ATOM     29  C   UNL     1       4.326   2.092  19.429  0.00  0.00    +0.000 C 
ENDBRANCH  17  18
ENDBRANCH  16  17
ENDBRANCH   1  16
TORSDOF 7
ENDMDL
MODEL 7
REMARK VINA RESULT:      -7.2      7.814     11.789
REMARK  Name = 
REMARK  7 active torsions:
REMARK  status: ('A' for Active; 'I' for Inactive)
REMARK    1  A    between atoms: C_4  and  C_5
REMARK    2  A    between atoms: C_5  and  C_6
REMARK    3  A    between atoms: C_9  and  S_10
REMARK    4  A    between atoms: S_10  and  C_11
REMARK    5  A    between atoms: C_11  and  C_12
REMARK    6  A    between atoms: C_12  and  C_13
REMARK    7  A    between atoms: C_13  and  N_14
REMARK                            x       y       z     vdW  Elec       q    Type
REMARK                         _______ _______ _______ _____ _____    ______ ____
ROOT
ATOM      1  C   UNL     1       2.185   8.301  18.138  0.00  0.00    +0.000 C 
ENDROOT
BRANCH   1   2
ATOM      2  S   UNL     1       1.924   7.810  19.881  0.00  0.00    +0.000 S 
BRANCH   2   6
ATOM      3  C   UNL     1       3.165   4.278  19.142  0.00  0.00    +0.000 A 
ATOM      4  N   UNL     1       2.644   4.045  20.332  0.00  0.00    +0.000 NA
ATOM      5  N   UNL     1       2.089   5.225  20.794  0.00  0.00    +0.000 NA
ATOM      6  C   UNL     1       2.292   6.137  19.881  0.00  0.00    +0.000 A 
ATOM      7  N   UNL     1       2.928   5.587  18.805  0.00  0.00    +0.000 N 
ATOM      8  H   UNL     1       3.207   6.075  17.971  0.00  0.00    +0.000 HD
BRANCH   3   9
ATOM      9  C   UNL     1       3.971   3.353  18.291  0.00  0.00    +0.000 C 
BRANCH   9  13
ATOM     10  C   UNL     1       7.063   5.118  15.831  0.00  0.00    +0.000 A 
ATOM     11  C   UNL     1       7.253   4.953  17.200  0.00  0.00    +0.000 A 
ATOM     12  C   UNL     1       6.241   4.395  17.983  0.00  0.00    +0.000 A 
ATOM     13  C   UNL     1       5.016   4.006  17.411  0.00  0.00    +0.000 A 
ATOM     14  C   UNL     1       4.852   4.153  16.027  0.00  0.00    +0.000 A 
ATOM     15  C   UNL     1       5.866   4.714  15.244  0.00  0.00    +0.000 A 
ENDBRANCH   9  13
ENDBRANCH   3   9
ENDBRANCH   2   6
ENDBRANCH   1   2
BRANCH   1  16
ATOM     16  C   UNL     1       1.435   9.627  17.969  0.00  0.00    +0.000 C 
BRANCH  16  17
ATOM     17  C   UNL     1       0.457  10.001  19.091  0.00  0.00    +0.000 C 
BRANCH  17  18
ATOM     18  N   UNL     1       0.533  11.380  19.587  0.00  0.00    +0.000 NA
ATOM     19  C   UNL     1      -0.595  12.249  19.155  0.00  0.00    +0.000 C 
ATOM     20  C   UNL     1      -1.965  12.028  19.853  0.00  0.00    +0.000 C 
ATOM     21  N   UNL     1      -1.762  12.047  21.303  0.00  0.00    +0.000 N 
ATOM     22  C   UNL     1      -2.743  12.563  22.121  0.00  0.00    +0.000 A 
ATOM     23  C   UNL     1      -2.405  13.072  23.376  0.00  0.00    +0.000 A 
ATOM     24  C   UNL     1      -3.364  13.702  24.165  0.00  0.00    +0.000 A 
ATOM     25  C   UNL     1      -4.661  13.800  23.694  0.00  0.00    +0.000 A 
ATOM     26  C   UNL     1      -4.935  13.263  22.450  0.00  0.00    +0.000 A 
ATOM     27  N   UNL     1      -4.008  12.664  21.658  0.00  0.00    +0.000 NA
ATOM     28  C   UNL     1      -0.753  11.111  21.798  0.00  0.00    +0.000 C 
ATOM     29  C   UNL     1       0.589  11.395  21.076  0.00  0.00    +0.000 C 
ENDBRANCH  17  18
ENDBRANCH  16  17
ENDBRANCH   1  16
TORSDOF 7
ENDMDL
MODEL 8
REMARK VINA RESULT:      -7.2      1.716     12.301
REMARK  Name = 
REMARK  7 active torsions:
REMARK  status: ('A' for Active; 'I' for Inactive)
REMARK    1  A    between atoms: C_4  and  C_5
REMARK    2  A    between atoms: C_5  and  C_6
REMARK    3  A    between atoms: C_9  and  S_10
REMARK    4  A    between atoms: S_10  and  C_11
REMARK    5  A    between atoms: C_11  and  C_12
REMARK    6  A    between atoms: C_12  and  C_13
REMARK    7  A    between atoms: C_13  and  N_14
REMARK                            x       y       z     vdW  Elec       q    Type
REMARK                         _______ _______ _______ _____ _____    ______ ____
ROOT
ATOM      1  C   UNL     1       7.769   8.901  17.842  0.00  0.00    +0.000 C 
ENDROOT
BRANCH   1   2
ATOM      2  S   UNL     1       7.940   7.109  18.169  0.00  0.00    +0.000 S 
BRANCH   2   6
ATOM      3  C   UNL     1       5.175   4.930  16.697  0.00  0.00    +0.000 A 
ATOM      4  N   UNL     1       5.033   5.971  15.898  0.00  0.00    +0.000 NA
ATOM      5  N   UNL     1       5.991   6.908  16.245  0.00  0.00    +0.000 NA
ATOM      6  C   UNL     1       6.678   6.416  17.241  0.00  0.00    +0.000 A 
ATOM      7  N   UNL     1       6.233   5.160  17.539  0.00  0.00    +0.000 N 
ATOM      8  H   UNL     1       6.588   4.565  18.268  0.00  0.00    +0.000 HD
BRANCH   3   9
ATOM      9  C   UNL     1       4.309   3.717  16.791  0.00  0.00    +0.000 C 
BRANCH   9  13
ATOM     10  C   UNL     1       1.868   3.540  20.361  0.00  0.00    +0.000 A 
ATOM     11  C   UNL     1       3.084   2.864  20.297  0.00  0.00    +0.000 A 
ATOM     12  C   UNL     1       3.853   2.919  19.133  0.00  0.00    +0.000 A 
ATOM     13  C   UNL     1       3.412   3.639  18.009  0.00  0.00    +0.000 A 
ATOM     14  C   UNL     1       2.200   4.338  18.100  0.00  0.00    +0.000 A 
ATOM     15  C   UNL     1       1.429   4.280  19.265  0.00  0.00    +0.000 A 
ENDBRANCH   9  13
ENDBRANCH   3   9
ENDBRANCH   2   6
ENDBRANCH   1   2
BRANCH   1  16
ATOM     16  C   UNL     1       9.137   9.510  18.177  0.00  0.00    +0.000 C 
BRANCH  16  17
ATOM     17  C   UNL     1       9.137  10.661  19.191  0.00  0.00    +0.000 C 
BRANCH  17  18
ATOM     18  N   UNL     1      10.450  11.203  19.559  0.00  0.00    +0.000 NA
ATOM     19  C   UNL     1      11.242  11.720  18.411  0.00  0.00    +0.000 C 
ATOM     20  C   UNL     1      10.802  13.082  17.804  0.00  0.00    +0.000 C 
ATOM     21  N   UNL     1      10.675  14.059  18.887  0.00  0.00    +0.000 N 
ATOM     22  C   UNL     1      10.990  15.379  18.653  0.00  0.00    +0.000 A 
ATOM     23  C   UNL     1      11.384  16.199  19.712  0.00  0.00    +0.000 A 
ATOM     24  C   UNL     1      11.816  17.501  19.474  0.00  0.00    +0.000 A 
ATOM     25  C   UNL     1      11.834  17.977  18.176  0.00  0.00    +0.000 A 
ATOM     26  C   UNL     1      11.419  17.120  17.173  0.00  0.00    +0.000 A 
ATOM     27  N   UNL     1      11.014  15.841  17.383  0.00  0.00    +0.000 NA
ATOM     28  C   UNL     1       9.797  13.655  19.985  0.00  0.00    +0.000 C 
ATOM     29  C   UNL     1      10.299  12.303  20.554  0.00  0.00    +0.000 C 
ENDBRANCH  17  18
ENDBRANCH  16  17
ENDBRANCH   1  16
TORSDOF 7
ENDMDL
MODEL 9
REMARK VINA RESULT:      -7.2      7.595      9.348
REMARK  Name = 
REMARK  7 active torsions:
REMARK  status: ('A' for Active; 'I' for Inactive)
REMARK    1  A    between atoms: C_4  and  C_5
REMARK    2  A    between atoms: C_5  and  C_6
REMARK    3  A    between atoms: C_9  and  S_10
REMARK    4  A    between atoms: S_10  and  C_11
REMARK    5  A    between atoms: C_11  and  C_12
REMARK    6  A    between atoms: C_12  and  C_13
REMARK    7  A    between atoms: C_13  and  N_14
REMARK                            x       y       z     vdW  Elec       q    Type
REMARK                         _______ _______ _______ _____ _____    ______ ____
ROOT
ATOM      1  C   UNL     1       0.718   4.781  20.437  0.00  0.00    +0.000 C 
ENDROOT
BRANCH   1   2
ATOM      2  S   UNL     1       2.306   5.649  20.702  0.00  0.00    +0.000 S 
BRANCH   2   6
ATOM      3  C   UNL     1       1.944   8.813  18.599  0.00  0.00    +0.000 A 
ATOM      4  N   UNL     1       2.633   8.094  17.733  0.00  0.00    +0.000 NA
ATOM      5  N   UNL     1       2.858   6.850  18.294  0.00  0.00    +0.000 NA
ATOM      6  C   UNL     1       2.309   6.849  19.480  0.00  0.00    +0.000 A 
ATOM      7  N   UNL     1       1.688   8.044  19.706  0.00  0.00    +0.000 N 
ATOM      8  H   UNL     1       1.196   8.304  20.544  0.00  0.00    +0.000 HD
BRANCH   3   9
ATOM      9  C   UNL     1       1.559  10.252  18.502  0.00  0.00    +0.000 C 
BRANCH   9  13
ATOM     10  C   UNL     1      -2.716  10.906  18.337  0.00  0.00    +0.000 A 
ATOM     11  C   UNL     1      -2.113   9.942  17.533  0.00  0.00    +0.000 A 
ATOM     12  C   UNL     1      -0.731   9.753  17.587  0.00  0.00    +0.000 A 
ATOM     13  C   UNL     1       0.073  10.535  18.436  0.00  0.00    +0.000 A 
ATOM     14  C   UNL     1      -0.554  11.481  19.259  0.00  0.00    +0.000 A 
ATOM     15  C   UNL     1      -1.937  11.671  19.203  0.00  0.00    +0.000 A 
ENDBRANCH   9  13
ENDBRANCH   3   9
ENDBRANCH   2   6
ENDBRANCH   1   2
BRANCH   1  16
ATOM     16  C   UNL     1       1.077   3.487  19.696  0.00  0.00    +0.000 C 
BRANCH  16  17
ATOM     17  C   UNL     1       2.041   2.537  20.418  0.00  0.00    +0.000 C 
BRANCH  17  18
ATOM     18  N   UNL     1       2.996   1.812  19.572  0.00  0.00    +0.000 NA
ATOM     19  C   UNL     1       2.746   1.949  18.112  0.00  0.00    +0.000 C 
ATOM     20  C   UNL     1       3.126   3.305  17.454  0.00  0.00    +0.000 C 
ATOM     21  N   UNL     1       4.502   3.637  17.824  0.00  0.00    +0.000 N 
ATOM     22  C   UNL     1       5.306   4.305  16.927  0.00  0.00    +0.000 A 
ATOM     23  C   UNL     1       6.694   4.177  17.007  0.00  0.00    +0.000 A 
ATOM     24  C   UNL     1       7.514   4.751  16.038  0.00  0.00    +0.000 A 
ATOM     25  C   UNL     1       6.934   5.465  15.005  0.00  0.00    +0.000 A 
ATOM     26  C   UNL     1       5.555   5.568  14.991  0.00  0.00    +0.000 A 
ATOM     27  N   UNL     1       4.739   4.997  15.914  0.00  0.00    +0.000 NA
ATOM     28  C   UNL     1       4.771   3.647  19.262  0.00  0.00    +0.000 C 
ATOM     29  C   UNL     1       4.388   2.266  19.851  0.00  0.00    +0.000 C 
ENDBRANCH  17  18
ENDBRANCH  16  17
ENDBRANCH   1  16
TORSDOF 7
ENDMDL
