MODEL 1
REMARK VINA RESULT:      -7.9      0.000      0.000
REMARK  Name = 
REMARK  2 active torsions:
REMARK  status: ('A' for Active; 'I' for Inactive)
REMARK    1  A    between atoms: C_1  and  N_2
REMARK    2  A    between atoms: C_3  and  C_5
REMARK                            x       y       z     vdW  Elec       q    Type
REMARK                         _______ _______ _______ _____ _____    ______ ____
ROOT
ATOM      1  C   UNL     1       3.564   3.799  19.028  0.00  0.00    +0.000 A 
ATOM      2  C   UNL     1       2.761   4.421  19.901  0.00  0.00    +0.000 A 
ATOM      3  C   UNL     1       2.365   5.842  19.775  0.00  0.00    +0.000 A 
ATOM      4  N   UNL     1       1.552   6.289  20.687  0.00  0.00    +0.000 NA
ATOM      5  C   UNL     1       1.167   7.632  20.641  0.00  0.00    +0.000 A 
ATOM      6  C   UNL     1       0.309   8.143  21.621  0.00  0.00    +0.000 A 
ATOM      7  C   UNL     1      -0.084   9.487  21.599  0.00  0.00    +0.000 A 
ATOM      8  C   UNL     1       0.381  10.335  20.596  0.00  0.00    +0.000 A 
ATOM      9  C   UNL     1       1.233   9.834  19.618  0.00  0.00    +0.000 A 
ATOM     10  C   UNL     1       1.619   8.486  19.648  0.00  0.00    +0.000 A 
ATOM     11  C   UNL     1       2.511   7.939  18.613  0.00  0.00    +0.000 A 
ATOM     12  O   UNL     1       2.828   8.733  17.734  0.00  0.00    +0.000 OA
ATOM     13  N   UNL     1       2.884   6.589  18.729  0.00  0.00    +0.000 N 
ATOM     14  C   UNL     1       3.777   5.964  17.772  0.00  0.00    +0.000 A 
ATOM     15  C   UNL     1       4.352   6.677  16.697  0.00  0.00    +0.000 A 
ATOM     16  C   UNL     1       5.204   6.078  15.770  0.00  0.00    +0.000 A 
ATOM     17  C   UNL     1       5.502   4.736  15.885  0.00  0.00    +0.000 A 
ATOM     18  C   UNL     1       4.948   4.003  16.932  0.00  0.00    +0.000 A 
ATOM     19  C   UNL     1       4.102   4.592  17.897  0.00  0.00    +0.000 A 
ENDROOT
BRANCH   1  22
ATOM     20  C   UNL     1       5.315   0.844  20.674  0.00  0.00    +0.000 C 
ATOM     21  N   UNL     1       4.918   2.183  20.311  0.00  0.00    +0.000 N 
ATOM     22  C   UNL     1       3.979   2.374  19.322  0.00  0.00    +0.000 C 
ATOM     23  O   UNL     1       3.496   1.418  18.720  0.00  0.00    +0.000 OA
ATOM     24  H   UNL     1       5.229   2.944  20.895  0.00  0.00    +0.000 HD
ENDBRANCH   1  22
TORSDOF 1
ENDMDL
MODEL 2
REMARK VINA RESULT:      -7.9      2.011      3.724
REMARK  Name = 
REMARK  2 active torsions:
REMARK  status: ('A' for Active; 'I' for Inactive)
REMARK    1  A    between atoms: C_1  and  N_2
REMARK    2  A    between atoms: C_3  and  C_5
REMARK                            x       y       z     vdW  Elec       q    Type
REMARK                         _______ _______ _______ _____ _____    ______ ____
ROOT
ATOM      1  C   UNL     1       4.792   5.246  17.417  0.00  0.00    +0.000 A 
ATOM      2  C   UNL     1       4.359   6.493  17.187  0.00  0.00    +0.000 A 
ATOM      3  C   UNL     1       3.370   7.184  18.045  0.00  0.00    +0.000 A 
ATOM      4  N   UNL     1       3.077   8.405  17.707  0.00  0.00    +0.000 NA
ATOM      5  C   UNL     1       2.126   9.099  18.460  0.00  0.00    +0.000 A 
ATOM      6  C   UNL     1       1.778  10.407  18.105  0.00  0.00    +0.000 A 
ATOM      7  C   UNL     1       0.822  11.120  18.840  0.00  0.00    +0.000 A 
ATOM      8  C   UNL     1       0.201  10.527  19.938  0.00  0.00    +0.000 A 
ATOM      9  C   UNL     1       0.542   9.228  20.297  0.00  0.00    +0.000 A 
ATOM     10  C   UNL     1       1.503   8.524  19.555  0.00  0.00    +0.000 A 
ATOM     11  C   UNL     1       1.881   7.152  19.930  0.00  0.00    +0.000 A 
ATOM     12  O   UNL     1       1.334   6.725  20.941  0.00  0.00    +0.000 OA
ATOM     13  N   UNL     1       2.823   6.497  19.119  0.00  0.00    +0.000 N 
ATOM     14  C   UNL     1       3.245   5.137  19.393  0.00  0.00    +0.000 A 
ATOM     15  C   UNL     1       2.711   4.380  20.458  0.00  0.00    +0.000 A 
ATOM     16  C   UNL     1       3.119   3.074  20.730  0.00  0.00    +0.000 A 
ATOM     17  C   UNL     1       4.088   2.485  19.944  0.00  0.00    +0.000 A 
ATOM     18  C   UNL     1       4.638   3.206  18.887  0.00  0.00    +0.000 A 
ATOM     19  C   UNL     1       4.223   4.519  18.577  0.00  0.00    +0.000 A 
ENDROOT
BRANCH   1  22
ATOM     20  C   UNL     1       6.095   3.860  14.117  0.00  0.00    +0.000 C 
ATOM     21  N   UNL     1       5.236   4.412  15.137  0.00  0.00    +0.000 N 
ATOM     22  C   UNL     1       5.725   4.613  16.409  0.00  0.00    +0.000 C 
ATOM     23  O   UNL     1       6.878   4.299  16.696  0.00  0.00    +0.000 OA
ATOM     24  H   UNL     1       4.339   4.777  14.855  0.00  0.00    +0.000 HD
ENDBRANCH   1  22
TORSDOF 1
ENDMDL
MODEL 3
REMARK VINA RESULT:      -7.8      3.552      5.235
REMARK  Name = 
REMARK  2 active torsions:
REMARK  status: ('A' for Active; 'I' for Inactive)
REMARK    1  A    between atoms: C_1  and  N_2
REMARK    2  A    between atoms: C_3  and  C_5
REMARK                            x       y       z     vdW  Elec       q    Type
REMARK                         _______ _______ _______ _____ _____    ______ ____
ROOT
ATOM      1  C   UNL     1       6.612   6.168  17.926  0.00  0.00    +0.000 A 
ATOM      2  C   UNL     1       5.730   5.949  18.910  0.00  0.00    +0.000 A 
ATOM      3  C   UNL     1       4.596   5.004  18.792  0.00  0.00    +0.000 A 
ATOM      4  N   UNL     1       3.848   4.878  19.848  0.00  0.00    +0.000 NA
ATOM      5  C   UNL     1       2.742   4.025  19.788  0.00  0.00    +0.000 A 
ATOM      6  C   UNL     1       1.910   3.887  20.904  0.00  0.00    +0.000 A 
ATOM      7  C   UNL     1       0.792   3.043  20.865  0.00  0.00    +0.000 A 
ATOM      8  C   UNL     1       0.493   2.332  19.705  0.00  0.00    +0.000 A 
ATOM      9  C   UNL     1       1.317   2.464  18.592  0.00  0.00    +0.000 A 
ATOM     10  C   UNL     1       2.435   3.309  18.643  0.00  0.00    +0.000 A 
ATOM     11  C   UNL     1       3.321   3.450  17.476  0.00  0.00    +0.000 A 
ATOM     12  O   UNL     1       3.025   2.747  16.516  0.00  0.00    +0.000 OA
ATOM     13  N   UNL     1       4.401   4.342  17.589  0.00  0.00    +0.000 N 
ATOM     14  C   UNL     1       5.317   4.567  16.488  0.00  0.00    +0.000 A 
ATOM     15  C   UNL     1       5.161   3.938  15.233  0.00  0.00    +0.000 A 
ATOM     16  C   UNL     1       6.044   4.145  14.174  0.00  0.00    +0.000 A 
ATOM     17  C   UNL     1       7.125   4.986  14.341  0.00  0.00    +0.000 A 
ATOM     18  C   UNL     1       7.311   5.619  15.568  0.00  0.00    +0.000 A 
ATOM     19  C   UNL     1       6.416   5.445  16.647  0.00  0.00    +0.000 A 
ENDROOT
BRANCH   1  22
ATOM     20  C   UNL     1       8.435   9.503  17.664  0.00  0.00    +0.000 C 
ATOM     21  N   UNL     1       7.491   8.428  17.468  0.00  0.00    +0.000 N 
ATOM     22  C   UNL     1       7.666   7.234  18.131  0.00  0.00    +0.000 C 
ATOM     23  O   UNL     1       8.635   7.059  18.866  0.00  0.00    +0.000 OA
ATOM     24  H   UNL     1       6.642   8.630  16.963  0.00  0.00    +0.000 HD
ENDBRANCH   1  22
TORSDOF 1
ENDMDL
MODEL 4
REMARK VINA RESULT:      -7.7      1.969      3.721
REMARK  Name = 
REMARK  2 active torsions:
REMARK  status: ('A' for Active; 'I' for Inactive)
REMARK    1  A    between atoms: C_1  and  N_2
REMARK    2  A    between atoms: C_3  and  C_5
REMARK                            x       y       z     vdW  Elec       q    Type
REMARK                         _______ _______ _______ _____ _____    ______ ____
ROOT
ATOM      1  C   UNL     1       4.016   5.688  17.732  0.00  0.00    +0.000 A 
ATOM      2  C   UNL     1       3.656   6.953  17.476  0.00  0.00    +0.000 A 
ATOM      3  C   UNL     1       2.756   7.737  18.351  0.00  0.00    +0.000 A 
ATOM      4  N   UNL     1       2.530   8.964  17.982  0.00  0.00    +0.000 NA
ATOM      5  C   UNL     1       1.662   9.745  18.750  0.00  0.00    +0.000 A 
ATOM      6  C   UNL     1       1.386  11.061  18.364  0.00  0.00    +0.000 A 
ATOM      7  C   UNL     1       0.514  11.861  19.114  0.00  0.00    +0.000 A 
ATOM      8  C   UNL     1      -0.095  11.349  20.258  0.00  0.00    +0.000 A 
ATOM      9  C   UNL     1       0.176  10.042  20.648  0.00  0.00    +0.000 A 
ATOM     10  C   UNL     1       1.052   9.250  19.891  0.00  0.00    +0.000 A 
ATOM     11  C   UNL     1       1.356   7.869  20.298  0.00  0.00    +0.000 A 
ATOM     12  O   UNL     1       0.828   7.513  21.346  0.00  0.00    +0.000 OA
ATOM     13  N   UNL     1       2.214   7.125  19.471  0.00  0.00    +0.000 N 
ATOM     14  C   UNL     1       2.556   5.749  19.775  0.00  0.00    +0.000 A 
ATOM     15  C   UNL     1       2.023   5.066  20.889  0.00  0.00    +0.000 A 
ATOM     16  C   UNL     1       2.355   3.745  21.190  0.00  0.00    +0.000 A 
ATOM     17  C   UNL     1       3.245   3.065  20.385  0.00  0.00    +0.000 A 
ATOM     18  C   UNL     1       3.794   3.712  19.280  0.00  0.00    +0.000 A 
ATOM     19  C   UNL     1       3.454   5.040  18.941  0.00  0.00    +0.000 A 
ENDROOT
BRANCH   1  22
ATOM     20  C   UNL     1       7.022   4.708  15.607  0.00  0.00    +0.000 C 
ATOM     21  N   UNL     1       6.152   5.396  16.531  0.00  0.00    +0.000 N 
ATOM     22  C   UNL     1       4.858   4.959  16.708  0.00  0.00    +0.000 C 
ATOM     23  O   UNL     1       4.423   4.007  16.064  0.00  0.00    +0.000 OA
ATOM     24  H   UNL     1       6.560   6.091  17.137  0.00  0.00    +0.000 HD
ENDBRANCH   1  22
TORSDOF 1
ENDMDL
MODEL 5
REMARK VINA RESULT:      -7.4      2.733      7.959
REMARK  Name = 
REMARK  2 active torsions:
REMARK  status: ('A' for Active; 'I' for Inactive)
REMARK    1  A    between atoms: C_1  and  N_2
REMARK    2  A    between atoms: C_3  and  C_5
REMARK                            x       y       z     vdW  Elec       q    Type
REMARK                         _______ _______ _______ _____ _____    ______ ____
ROOT
ATOM      1  C   UNL     1       0.690  11.351  19.168  0.00  0.00    +0.000 A 
ATOM      2  C   UNL     1       1.471  10.624  18.357  0.00  0.00    +0.000 A 
ATOM      3  C   UNL     1       1.888   9.236  18.656  0.00  0.00    +0.000 A 
ATOM      4  N   UNL     1       2.620   8.653  17.752  0.00  0.00    +0.000 NA
ATOM      5  C   UNL     1       3.073   7.353  17.992  0.00  0.00    +0.000 A 
ATOM      6  C   UNL     1       3.877   6.712  17.044  0.00  0.00    +0.000 A 
ATOM      7  C   UNL     1       4.349   5.411  17.265  0.00  0.00    +0.000 A 
ATOM      8  C   UNL     1       4.022   4.741  18.442  0.00  0.00    +0.000 A 
ATOM      9  C   UNL     1       3.222   5.372  19.388  0.00  0.00    +0.000 A 
ATOM     10  C   UNL     1       2.753   6.673  19.156  0.00  0.00    +0.000 A 
ATOM     11  C   UNL     1       1.897   7.349  20.143  0.00  0.00    +0.000 A 
ATOM     12  O   UNL     1       1.607   6.671  21.124  0.00  0.00    +0.000 OA
ATOM     13  N   UNL     1       1.495   8.665  19.858  0.00  0.00    +0.000 N 
ATOM     14  C   UNL     1       0.670   9.423  20.778  0.00  0.00    +0.000 A 
ATOM     15  C   UNL     1       0.254   8.904  22.024  0.00  0.00    +0.000 A 
ATOM     16  C   UNL     1      -0.547   9.626  22.908  0.00  0.00    +0.000 A 
ATOM     17  C   UNL     1      -0.967  10.895  22.568  0.00  0.00    +0.000 A 
ATOM     18  C   UNL     1      -0.578  11.435  21.344  0.00  0.00    +0.000 A 
ATOM     19  C   UNL     1       0.252  10.733  20.443  0.00  0.00    +0.000 A 
ENDROOT
BRANCH   1  22
ATOM     20  C   UNL     1       1.142  15.122  18.880  0.00  0.00    +0.000 C 
ATOM     21  N   UNL     1       1.319  13.736  19.243  0.00  0.00    +0.000 N 
ATOM     22  C   UNL     1       0.418  12.793  18.801  0.00  0.00    +0.000 C 
ATOM     23  O   UNL     1      -0.554  13.120  18.125  0.00  0.00    +0.000 OA
ATOM     24  H   UNL     1       2.183  13.470  19.689  0.00  0.00    +0.000 HD
ENDBRANCH   1  22
TORSDOF 1
ENDMDL
MODEL 6
REMARK VINA RESULT:      -7.3      1.772      6.635
REMARK  Name = 
REMARK  2 active torsions:
REMARK  status: ('A' for Active; 'I' for Inactive)
REMARK    1  A    between atoms: C_1  and  N_2
REMARK    2  A    between atoms: C_3  and  C_5
REMARK                            x       y       z     vdW  Elec       q    Type
REMARK                         _______ _______ _______ _____ _____    ______ ____
ROOT
ATOM      1  C   UNL     1       2.276   6.892  19.309  0.00  0.00    +0.000 A 
ATOM      2  C   UNL     1       3.122   7.193  18.315  0.00  0.00    +0.000 A 
ATOM      3  C   UNL     1       3.845   6.173  17.523  0.00  0.00    +0.000 A 
ATOM      4  N   UNL     1       4.605   6.626  16.570  0.00  0.00    +0.000 NA
ATOM      5  C   UNL     1       5.339   5.713  15.807  0.00  0.00    +0.000 A 
ATOM      6  C   UNL     1       6.180   6.175  14.789  0.00  0.00    +0.000 A 
ATOM      7  C   UNL     1       6.930   5.280  14.016  0.00  0.00    +0.000 A 
ATOM      8  C   UNL     1       6.850   3.910  14.259  0.00  0.00    +0.000 A 
ATOM      9  C   UNL     1       6.016   3.443  15.268  0.00  0.00    +0.000 A 
ATOM     10  C   UNL     1       5.266   4.349  16.035  0.00  0.00    +0.000 A 
ATOM     11  C   UNL     1       4.372   3.868  17.100  0.00  0.00    +0.000 A 
ATOM     12  O   UNL     1       4.312   2.648  17.211  0.00  0.00    +0.000 OA
ATOM     13  N   UNL     1       3.681   4.835  17.849  0.00  0.00    +0.000 N 
ATOM     14  C   UNL     1       2.793   4.463  18.934  0.00  0.00    +0.000 A 
ATOM     15  C   UNL     1       2.599   3.120  19.325  0.00  0.00    +0.000 A 
ATOM     16  C   UNL     1       1.740   2.757  20.362  0.00  0.00    +0.000 A 
ATOM     17  C   UNL     1       1.036   3.732  21.038  0.00  0.00    +0.000 A 
ATOM     18  C   UNL     1       1.201   5.066  20.673  0.00  0.00    +0.000 A 
ATOM     19  C   UNL     1       2.084   5.461  19.644  0.00  0.00    +0.000 A 
ENDROOT
BRANCH   1  22
ATOM     20  C   UNL     1       1.328   9.057  22.297  0.00  0.00    +0.000 C 
ATOM     21  N   UNL     1       1.830   7.978  21.480  0.00  0.00    +0.000 N 
ATOM     22  C   UNL     1       1.678   8.026  20.112  0.00  0.00    +0.000 C 
ATOM     23  O   UNL     1       1.091   8.964  19.578  0.00  0.00    +0.000 OA
ATOM     24  H   UNL     1       2.414   7.284  21.921  0.00  0.00    +0.000 HD
ENDBRANCH   1  22
TORSDOF 1
ENDMDL
MODEL 7
REMARK VINA RESULT:      -7.1      2.296      6.795
REMARK  Name = 
REMARK  2 active torsions:
REMARK  status: ('A' for Active; 'I' for Inactive)
REMARK    1  A    between atoms: C_1  and  N_2
REMARK    2  A    between atoms: C_3  and  C_5
REMARK                            x       y       z     vdW  Elec       q    Type
REMARK                         _______ _______ _______ _____ _____    ______ ____
ROOT
ATOM      1  C   UNL     1       0.619   9.517  21.487  0.00  0.00    +0.000 A 
ATOM      2  C   UNL     1       0.810   8.193  21.559  0.00  0.00    +0.000 A 
ATOM      3  C   UNL     1       1.501   7.410  20.509  0.00  0.00    +0.000 A 
ATOM      4  N   UNL     1       1.636   6.138  20.743  0.00  0.00    +0.000 NA
ATOM      5  C   UNL     1       2.251   5.340  19.774  0.00  0.00    +0.000 A 
ATOM      6  C   UNL     1       2.391   3.966  19.992  0.00  0.00    +0.000 A 
ATOM      7  C   UNL     1       2.997   3.145  19.032  0.00  0.00    +0.000 A 
ATOM      8  C   UNL     1       3.467   3.693  17.841  0.00  0.00    +0.000 A 
ATOM      9  C   UNL     1       3.332   5.059  17.617  0.00  0.00    +0.000 A 
ATOM     10  C   UNL     1       2.725   5.872  18.586  0.00  0.00    +0.000 A 
ATOM     11  C   UNL     1       2.585   7.321  18.368  0.00  0.00    +0.000 A 
ATOM     12  O   UNL     1       3.076   7.734  17.322  0.00  0.00    +0.000 OA
ATOM     13  N   UNL     1       1.935   8.065  19.366  0.00  0.00    +0.000 N 
ATOM     14  C   UNL     1       1.729   9.495  19.233  0.00  0.00    +0.000 A 
ATOM     15  C   UNL     1       2.131  10.213  18.087  0.00  0.00    +0.000 A 
ATOM     16  C   UNL     1       1.942  11.589  17.959  0.00  0.00    +0.000 A 
ATOM     17  C   UNL     1       1.349  12.295  18.985  0.00  0.00    +0.000 A 
ATOM     18  C   UNL     1       0.944  11.616  20.132  0.00  0.00    +0.000 A 
ATOM     19  C   UNL     1       1.102  10.221  20.275  0.00  0.00    +0.000 A 
ENDROOT
BRANCH   1  22
ATOM     20  C   UNL     1      -2.033  11.674  23.166  0.00  0.00    +0.000 C 
ATOM     21  N   UNL     1      -1.191  11.046  22.177  0.00  0.00    +0.000 N 
ATOM     22  C   UNL     1      -0.192  10.186  22.575  0.00  0.00    +0.000 C 
ATOM     23  O   UNL     1       0.013   9.969  23.767  0.00  0.00    +0.000 OA
ATOM     24  H   UNL     1      -1.451  11.137  21.207  0.00  0.00    +0.000 HD
ENDBRANCH   1  22
TORSDOF 1
ENDMDL
MODEL 8
REMARK VINA RESULT:      -6.8      3.480      8.222
REMARK  Name = 
REMARK  2 active torsions:
REMARK  status: ('A' for Active; 'I' for Inactive)
REMARK    1  A    between atoms: C_1  and  N_2
REMARK    2  A    between atoms: C_3  and  C_5
REMARK                            x       y       z     vdW  Elec       q    Type
REMARK                         _______ _______ _______ _____ _____    ______ ____
ROOT
ATOM      1  C   UNL     1      -0.748  11.765  21.982  0.00  0.00    +0.000 A 
ATOM      2  C   UNL     1      -0.371  10.487  22.119  0.00  0.00    +0.000 A 
ATOM      3  C   UNL     1       0.412   9.754  21.099  0.00  0.00    +0.000 A 
ATOM      4  N   UNL     1       0.729   8.528  21.396  0.00  0.00    +0.000 NA
ATOM      5  C   UNL     1       1.439   7.773  20.459  0.00  0.00    +0.000 A 
ATOM      6  C   UNL     1       1.775   6.446  20.746  0.00  0.00    +0.000 A 
ATOM      7  C   UNL     1       2.481   5.668  19.819  0.00  0.00    +0.000 A 
ATOM      8  C   UNL     1       2.855   6.211  18.592  0.00  0.00    +0.000 A 
ATOM      9  C   UNL     1       2.526   7.530  18.300  0.00  0.00    +0.000 A 
ATOM     10  C   UNL     1       1.821   8.301  19.237  0.00  0.00    +0.000 A 
ATOM     11  C   UNL     1       1.475   9.702  18.945  0.00  0.00    +0.000 A 
ATOM     12  O   UNL     1       1.890  10.123  17.871  0.00  0.00    +0.000 OA
ATOM     13  N   UNL     1       0.736  10.400  19.916  0.00  0.00    +0.000 N 
ATOM     14  C   UNL     1       0.328  11.777  19.712  0.00  0.00    +0.000 A 
ATOM     15  C   UNL     1       0.612  12.482  18.523  0.00  0.00    +0.000 A 
ATOM     16  C   UNL     1       0.229  13.808  18.327  0.00  0.00    +0.000 A 
ATOM     17  C   UNL     1      -0.447  14.478  19.325  0.00  0.00    +0.000 A 
ATOM     18  C   UNL     1      -0.739  13.813  20.514  0.00  0.00    +0.000 A 
ATOM     19  C   UNL     1      -0.383  12.463  20.726  0.00  0.00    +0.000 A 
ENDROOT
BRANCH   1  22
ATOM     20  C   UNL     1      -3.804  12.406  24.164  0.00  0.00    +0.000 C 
ATOM     21  N   UNL     1      -2.926  11.905  23.134  0.00  0.00    +0.000 N 
ATOM     22  C   UNL     1      -1.634  12.371  23.048  0.00  0.00    +0.000 C 
ATOM     23  O   UNL     1      -1.225  13.234  23.822  0.00  0.00    +0.000 OA
ATOM     24  H   UNL     1      -3.237  11.113  22.591  0.00  0.00    +0.000 HD
ENDBRANCH   1  22
TORSDOF 1
ENDMDL
MODEL 9
REMARK VINA RESULT:      -6.7      4.645      7.803
REMARK  Name = 
REMARK  2 active torsions:
REMARK  status: ('A' for Active; 'I' for Inactive)
REMARK    1  A    between atoms: C_1  and  N_2
REMARK    2  A    between atoms: C_3  and  C_5
REMARK                            x       y       z     vdW  Elec       q    Type
REMARK                         _______ _______ _______ _____ _____    ______ ____
ROOT
ATOM      1  C   UNL     1       0.075  10.415  18.985  0.00  0.00    +0.000 A 
ATOM      2  C   UNL     1       0.232  11.111  20.119  0.00  0.00    +0.000 A 
ATOM      3  C   UNL     1      -0.835  11.943  20.719  0.00  0.00    +0.000 A 
ATOM      4  N   UNL     1      -0.537  12.530  21.841  0.00  0.00    +0.000 NA
ATOM      5  C   UNL     1      -1.491  13.356  22.440  0.00  0.00    +0.000 A 
ATOM      6  C   UNL     1      -1.188  14.014  23.637  0.00  0.00    +0.000 A 
ATOM      7  C   UNL     1      -2.127  14.853  24.252  0.00  0.00    +0.000 A 
ATOM      8  C   UNL     1      -3.379  15.044  23.671  0.00  0.00    +0.000 A 
ATOM      9  C   UNL     1      -3.687  14.393  22.482  0.00  0.00    +0.000 A 
ATOM     10  C   UNL     1      -2.741  13.553  21.876  0.00  0.00    +0.000 A 
ATOM     11  C   UNL     1      -3.058  12.849  20.623  0.00  0.00    +0.000 A 
ATOM     12  O   UNL     1      -4.199  13.023  20.209  0.00  0.00    +0.000 OA
ATOM     13  N   UNL     1      -2.048  12.054  20.056  0.00  0.00    +0.000 N 
ATOM     14  C   UNL     1      -2.255  11.338  18.812  0.00  0.00    +0.000 A 
ATOM     15  C   UNL     1      -3.460  11.425  18.081  0.00  0.00    +0.000 A 
ATOM     16  C   UNL     1      -3.667  10.732  16.888  0.00  0.00    +0.000 A 
ATOM     17  C   UNL     1      -2.671   9.917  16.392  0.00  0.00    +0.000 A 
ATOM     18  C   UNL     1      -1.471   9.805  17.091  0.00  0.00    +0.000 A 
ATOM     19  C   UNL     1      -1.229  10.516  18.286  0.00  0.00    +0.000 A 
ENDROOT
BRANCH   1  22
ATOM     20  C   UNL     1       2.652   7.672  18.403  0.00  0.00    +0.000 C 
ATOM     21  N   UNL     1       1.555   8.441  18.939  0.00  0.00    +0.000 N 
ATOM     22  C   UNL     1       1.272   9.684  18.418  0.00  0.00    +0.000 C 
ATOM     23  O   UNL     1       1.963  10.162  17.522  0.00  0.00    +0.000 OA
ATOM     24  H   UNL     1       0.927   7.985  19.583  0.00  0.00    +0.000 HD
ENDBRANCH   1  22
TORSDOF 1
ENDMDL
