MODEL 1
REMARK VINA RESULT:      -7.9      0.000      0.000
REMARK  Name = 
REMARK  5 active torsions:
REMARK  status: ('A' for Active; 'I' for Inactive)
REMARK    1  A    between atoms: C_1  and  C_2
REMARK    2  A    between atoms: C_6  and  C_8
REMARK    3  A    between atoms: C_8  and  O_9
REMARK    4  A    between atoms: O_9  and  C_10
REMARK    5  A    between atoms: C_15  and  N_16
REMARK                            x       y       z     vdW  Elec       q    Type
REMARK                         _______ _______ _______ _____ _____    ______ ____
ROOT
ATOM      1  C   UNL     1       5.458   4.398  19.309  0.00  0.00    +0.000 C 
ENDROOT
BRANCH   1   7
ATOM      2  C   UNL     1       7.133   4.268  12.086  0.00  0.00    +0.000 C 
ATOM      3  C   UNL     1       6.929   4.431  13.534  0.00  0.00    +0.000 A 
ATOM      4  C   UNL     1       6.127   3.838  14.480  0.00  0.00    +0.000 A 
ATOM      5  C   UNL     1       6.454   4.498  15.691  0.00  0.00    +0.000 A 
ATOM      6  N   UNL     1       5.872   4.224  16.917  0.00  0.00    +0.000 N 
ATOM      7  C   UNL     1       6.233   4.868  18.086  0.00  0.00    +0.000 C 
ATOM      8  O   UNL     1       7.093   5.735  18.215  0.00  0.00    +0.000 OA
ATOM      9  N   UNL     1       7.403   5.415  15.477  0.00  0.00    +0.000 NA
ATOM     10  O   UNL     1       7.692   5.379  14.134  0.00  0.00    +0.000 OA
ATOM     11  H   UNL     1       5.127   3.541  16.925  0.00  0.00    +0.000 HD
ENDBRANCH   1   7
BRANCH   1  12
ATOM     12  O   UNL     1       4.543   3.387  18.902  0.00  0.00    +0.000 OA
BRANCH  12  13
ATOM     13  C   UNL     1       3.412   3.207  19.651  0.00  0.00    +0.000 A 
ATOM     14  C   UNL     1       3.400   2.652  20.934  0.00  0.00    +0.000 A 
ATOM     15  C   UNL     1       2.203   2.550  21.643  0.00  0.00    +0.000 A 
ATOM     16  C   UNL     1       1.040   3.008  21.055  0.00  0.00    +0.000 A 
ATOM     17  N   UNL     1       0.997   3.556  19.825  0.00  0.00    +0.000 NA
ATOM     18  C   UNL     1       2.181   3.654  19.141  0.00  0.00    +0.000 A 
BRANCH  18  19
ATOM     19  N   UNL     1       2.204   4.229  17.787  0.00  0.00    +0.000 N 
ATOM     20  O   UNL     1       2.056   3.449  16.831  0.00  0.00    +0.000 OA
ATOM     21  O   UNL     1       2.336   5.459  17.693  0.00  0.00    +0.000 OA
ENDBRANCH  18  19
ENDBRANCH  12  13
ENDBRANCH   1  12
TORSDOF 4
ENDMDL
MODEL 2
REMARK VINA RESULT:      -7.8      1.073      1.280
REMARK  Name = 
REMARK  5 active torsions:
REMARK  status: ('A' for Active; 'I' for Inactive)
REMARK    1  A    between atoms: C_1  and  C_2
REMARK    2  A    between atoms: C_6  and  C_8
REMARK    3  A    between atoms: C_8  and  O_9
REMARK    4  A    between atoms: O_9  and  C_10
REMARK    5  A    between atoms: C_15  and  N_16
REMARK                            x       y       z     vdW  Elec       q    Type
REMARK                         _______ _______ _______ _____ _____    ______ ____
ROOT
ATOM      1  C   UNL     1       5.047   5.478  19.283  0.00  0.00    +0.000 C 
ENDROOT
BRANCH   1   7
ATOM      2  C   UNL     1       6.969   4.013  12.272  0.00  0.00    +0.000 C 
ATOM      3  C   UNL     1       6.739   4.416  13.668  0.00  0.00    +0.000 A 
ATOM      4  C   UNL     1       5.803   4.117  14.629  0.00  0.00    +0.000 A 
ATOM      5  C   UNL     1       6.194   4.877  15.759  0.00  0.00    +0.000 A 
ATOM      6  N   UNL     1       5.522   4.890  16.970  0.00  0.00    +0.000 N 
ATOM      7  C   UNL     1       5.945   5.624  18.062  0.00  0.00    +0.000 C 
ATOM      8  O   UNL     1       6.943   6.336  18.130  0.00  0.00    +0.000 OA
ATOM      9  N   UNL     1       7.303   5.573  15.487  0.00  0.00    +0.000 NA
ATOM     10  O   UNL     1       7.635   5.293  14.184  0.00  0.00    +0.000 OA
ATOM     11  H   UNL     1       4.665   4.356  17.020  0.00  0.00    +0.000 HD
ENDBRANCH   1   7
BRANCH   1  12
ATOM     12  O   UNL     1       3.737   5.142  18.842  0.00  0.00    +0.000 OA
BRANCH  12  13
ATOM     13  C   UNL     1       3.001   4.286  19.614  0.00  0.00    +0.000 A 
ATOM     14  C   UNL     1       2.643   4.536  20.942  0.00  0.00    +0.000 A 
ATOM     15  C   UNL     1       1.850   3.624  21.639  0.00  0.00    +0.000 A 
ATOM     16  C   UNL     1       1.426   2.479  20.991  0.00  0.00    +0.000 A 
ATOM     17  N   UNL     1       1.737   2.193  19.712  0.00  0.00    +0.000 NA
ATOM     18  C   UNL     1       2.514   3.100  19.038  0.00  0.00    +0.000 A 
BRANCH  18  19
ATOM     19  N   UNL     1       2.903   2.843  17.643  0.00  0.00    +0.000 N 
ATOM     20  O   UNL     1       2.136   3.245  16.751  0.00  0.00    +0.000 OA
ATOM     21  O   UNL     1       3.987   2.270  17.450  0.00  0.00    +0.000 OA
ENDBRANCH  18  19
ENDBRANCH  12  13
ENDBRANCH   1  12
TORSDOF 4
ENDMDL
MODEL 3
REMARK VINA RESULT:      -7.8      1.633      2.144
REMARK  Name = 
REMARK  5 active torsions:
REMARK  status: ('A' for Active; 'I' for Inactive)
REMARK    1  A    between atoms: C_1  and  C_2
REMARK    2  A    between atoms: C_6  and  C_8
REMARK    3  A    between atoms: C_8  and  O_9
REMARK    4  A    between atoms: O_9  and  C_10
REMARK    5  A    between atoms: C_15  and  N_16
REMARK                            x       y       z     vdW  Elec       q    Type
REMARK                         _______ _______ _______ _____ _____    ______ ____
ROOT
ATOM      1  C   UNL     1       6.253   5.457  19.223  0.00  0.00    +0.000 C 
ENDROOT
BRANCH   1   7
ATOM      2  C   UNL     1       6.691   3.731  12.024  0.00  0.00    +0.000 C 
ATOM      3  C   UNL     1       6.731   4.207  13.416  0.00  0.00    +0.000 A 
ATOM      4  C   UNL     1       6.107   3.853  14.587  0.00  0.00    +0.000 A 
ATOM      5  C   UNL     1       6.624   4.750  15.555  0.00  0.00    +0.000 A 
ATOM      6  N   UNL     1       6.261   4.761  16.891  0.00  0.00    +0.000 N 
ATOM      7  C   UNL     1       6.805   5.634  17.815  0.00  0.00    +0.000 C 
ATOM      8  O   UNL     1       7.665   6.486  17.608  0.00  0.00    +0.000 OA
ATOM      9  N   UNL     1       7.513   5.575  14.992  0.00  0.00    +0.000 NA
ATOM     10  O   UNL     1       7.572   5.243  13.660  0.00  0.00    +0.000 OA
ATOM     11  H   UNL     1       5.536   4.115  17.171  0.00  0.00    +0.000 HD
ENDBRANCH   1   7
BRANCH   1  12
ATOM     12  O   UNL     1       5.489   4.257  19.261  0.00  0.00    +0.000 OA
BRANCH  12  13
ATOM     13  C   UNL     1       4.176   4.345  19.635  0.00  0.00    +0.000 A 
ATOM     14  C   UNL     1       3.479   5.549  19.779  0.00  0.00    +0.000 A 
ATOM     15  C   UNL     1       2.127   5.540  20.121  0.00  0.00    +0.000 A 
ATOM     16  C   UNL     1       1.496   4.325  20.309  0.00  0.00    +0.000 A 
ATOM     17  N   UNL     1       2.118   3.138  20.177  0.00  0.00    +0.000 NA
ATOM     18  C   UNL     1       3.446   3.161  19.838  0.00  0.00    +0.000 A 
BRANCH  18  19
ATOM     19  N   UNL     1       4.191   1.901  19.691  0.00  0.00    +0.000 N 
ATOM     20  O   UNL     1       3.944   1.202  18.694  0.00  0.00    +0.000 OA
ATOM     21  O   UNL     1       5.039   1.637  20.558  0.00  0.00    +0.000 OA
ENDBRANCH  18  19
ENDBRANCH  12  13
ENDBRANCH   1  12
TORSDOF 4
ENDMDL
MODEL 4
REMARK VINA RESULT:      -7.7      1.549      2.092
REMARK  Name = 
REMARK  5 active torsions:
REMARK  status: ('A' for Active; 'I' for Inactive)
REMARK    1  A    between atoms: C_1  and  C_2
REMARK    2  A    between atoms: C_6  and  C_8
REMARK    3  A    between atoms: C_8  and  O_9
REMARK    4  A    between atoms: O_9  and  C_10
REMARK    5  A    between atoms: C_15  and  N_16
REMARK                            x       y       z     vdW  Elec       q    Type
REMARK                         _______ _______ _______ _____ _____    ______ ____
ROOT
ATOM      1  C   UNL     1       4.930   5.833  18.903  0.00  0.00    +0.000 C 
ENDROOT
BRANCH   1   7
ATOM      2  C   UNL     1       7.075   3.935  12.063  0.00  0.00    +0.000 C 
ATOM      3  C   UNL     1       6.804   4.419  13.425  0.00  0.00    +0.000 A 
ATOM      4  C   UNL     1       5.820   4.204  14.360  0.00  0.00    +0.000 A 
ATOM      5  C   UNL     1       6.194   5.008  15.465  0.00  0.00    +0.000 A 
ATOM      6  N   UNL     1       5.475   5.108  16.645  0.00  0.00    +0.000 N 
ATOM      7  C   UNL     1       5.881   5.883  17.715  0.00  0.00    +0.000 C 
ATOM      8  O   UNL     1       6.902   6.562  17.789  0.00  0.00    +0.000 OA
ATOM      9  N   UNL     1       7.338   5.649  15.206  0.00  0.00    +0.000 NA
ATOM     10  O   UNL     1       7.712   5.290  13.933  0.00  0.00    +0.000 OA
ATOM     11  H   UNL     1       4.597   4.609  16.686  0.00  0.00    +0.000 HD
ENDBRANCH   1   7
BRANCH   1  12
ATOM     12  O   UNL     1       4.656   4.470  19.205  0.00  0.00    +0.000 OA
BRANCH  12  13
ATOM     13  C   UNL     1       3.434   4.165  19.738  0.00  0.00    +0.000 A 
ATOM     14  C   UNL     1       2.460   5.114  20.063  0.00  0.00    +0.000 A 
ATOM     15  C   UNL     1       1.222   4.707  20.561  0.00  0.00    +0.000 A 
ATOM     16  C   UNL     1       0.981   3.356  20.721  0.00  0.00    +0.000 A 
ATOM     17  N   UNL     1       1.881   2.401  20.419  0.00  0.00    +0.000 NA
ATOM     18  C   UNL     1       3.092   2.815  19.927  0.00  0.00    +0.000 A 
BRANCH  18  19
ATOM     19  N   UNL     1       4.127   1.825  19.590  0.00  0.00    +0.000 N 
ATOM     20  O   UNL     1       5.060   1.674  20.397  0.00  0.00    +0.000 OA
ATOM     21  O   UNL     1       3.981   1.185  18.537  0.00  0.00    +0.000 OA
ENDBRANCH  18  19
ENDBRANCH  12  13
ENDBRANCH   1  12
TORSDOF 4
ENDMDL
MODEL 5
REMARK VINA RESULT:      -7.4      2.301      3.514
REMARK  Name = 
REMARK  5 active torsions:
REMARK  status: ('A' for Active; 'I' for Inactive)
REMARK    1  A    between atoms: C_1  and  C_2
REMARK    2  A    between atoms: C_6  and  C_8
REMARK    3  A    between atoms: C_8  and  O_9
REMARK    4  A    between atoms: O_9  and  C_10
REMARK    5  A    between atoms: C_15  and  N_16
REMARK                            x       y       z     vdW  Elec       q    Type
REMARK                         _______ _______ _______ _____ _____    ______ ____
ROOT
ATOM      1  C   UNL     1       3.515   3.233  16.547  0.00  0.00    +0.000 C 
ENDROOT
BRANCH   1   7
ATOM      2  C   UNL     1       8.084   8.943  17.782  0.00  0.00    +0.000 C 
ATOM      3  C   UNL     1       7.316   7.737  17.433  0.00  0.00    +0.000 A 
ATOM      4  C   UNL     1       6.060   7.263  17.721  0.00  0.00    +0.000 A 
ATOM      5  C   UNL     1       5.982   6.019  17.045  0.00  0.00    +0.000 A 
ATOM      6  N   UNL     1       4.881   5.179  17.067  0.00  0.00    +0.000 N 
ATOM      7  C   UNL     1       4.829   3.984  16.374  0.00  0.00    +0.000 C 
ATOM      8  O   UNL     1       5.704   3.509  15.655  0.00  0.00    +0.000 OA
ATOM      9  N   UNL     1       7.120   5.780  16.384  0.00  0.00    +0.000 NA
ATOM     10  O   UNL     1       7.952   6.845  16.633  0.00  0.00    +0.000 OA
ATOM     11  H   UNL     1       4.107   5.459  17.652  0.00  0.00    +0.000 HD
ENDBRANCH   1   7
BRANCH   1  12
ATOM     12  O   UNL     1       3.622   2.394  17.691  0.00  0.00    +0.000 OA
BRANCH  12  13
ATOM     13  C   UNL     1       2.800   2.653  18.754  0.00  0.00    +0.000 A 
ATOM     14  C   UNL     1       1.411   2.780  18.660  0.00  0.00    +0.000 A 
ATOM     15  C   UNL     1       0.648   2.999  19.806  0.00  0.00    +0.000 A 
ATOM     16  C   UNL     1       1.289   3.083  21.027  0.00  0.00    +0.000 A 
ATOM     17  N   UNL     1       2.622   2.961  21.174  0.00  0.00    +0.000 NA
ATOM     18  C   UNL     1       3.360   2.743  20.040  0.00  0.00    +0.000 A 
BRANCH  18  19
ATOM     19  N   UNL     1       4.823   2.615  20.127  0.00  0.00    +0.000 N 
ATOM     20  O   UNL     1       5.506   3.585  19.757  0.00  0.00    +0.000 OA
ATOM     21  O   UNL     1       5.275   1.558  20.595  0.00  0.00    +0.000 OA
ENDBRANCH  18  19
ENDBRANCH  12  13
ENDBRANCH   1  12
TORSDOF 4
ENDMDL
MODEL 6
REMARK VINA RESULT:      -7.3      0.727      1.065
REMARK  Name = 
REMARK  5 active torsions:
REMARK  status: ('A' for Active; 'I' for Inactive)
REMARK    1  A    between atoms: C_1  and  C_2
REMARK    2  A    between atoms: C_6  and  C_8
REMARK    3  A    between atoms: C_8  and  O_9
REMARK    4  A    between atoms: O_9  and  C_10
REMARK    5  A    between atoms: C_15  and  N_16
REMARK                            x       y       z     vdW  Elec       q    Type
REMARK                         _______ _______ _______ _____ _____    ______ ____
ROOT
ATOM      1  C   UNL     1       5.645   4.372  19.215  0.00  0.00    +0.000 C 
ENDROOT
BRANCH   1   7
ATOM      2  C   UNL     1       7.233   4.333  11.971  0.00  0.00    +0.000 C 
ATOM      3  C   UNL     1       7.046   4.478  13.423  0.00  0.00    +0.000 A 
ATOM      4  C   UNL     1       6.258   3.872  14.371  0.00  0.00    +0.000 A 
ATOM      5  C   UNL     1       6.596   4.518  15.586  0.00  0.00    +0.000 A 
ATOM      6  N   UNL     1       6.031   4.228  16.816  0.00  0.00    +0.000 N 
ATOM      7  C   UNL     1       6.403   4.860  17.988  0.00  0.00    +0.000 C 
ATOM      8  O   UNL     1       7.261   5.730  18.116  0.00  0.00    +0.000 OA
ATOM      9  N   UNL     1       7.539   5.442  15.371  0.00  0.00    +0.000 NA
ATOM     10  O   UNL     1       7.811   5.423  14.024  0.00  0.00    +0.000 OA
ATOM     11  H   UNL     1       5.289   3.542  16.825  0.00  0.00    +0.000 HD
ENDBRANCH   1   7
BRANCH   1  12
ATOM     12  O   UNL     1       4.439   3.752  18.783  0.00  0.00    +0.000 OA
BRANCH  12  13
ATOM     13  C   UNL     1       3.466   3.523  19.717  0.00  0.00    +0.000 A 
ATOM     14  C   UNL     1       3.503   2.485  20.653  0.00  0.00    +0.000 A 
ATOM     15  C   UNL     1       2.487   2.357  21.599  0.00  0.00    +0.000 A 
ATOM     16  C   UNL     1       1.453   3.273  21.593  0.00  0.00    +0.000 A 
ATOM     17  N   UNL     1       1.372   4.294  20.719  0.00  0.00    +0.000 NA
ATOM     18  C   UNL     1       2.379   4.411  19.796  0.00  0.00    +0.000 A 
BRANCH  18  19
ATOM     19  N   UNL     1       2.346   5.495  18.802  0.00  0.00    +0.000 N 
ATOM     20  O   UNL     1       2.750   6.614  19.161  0.00  0.00    +0.000 OA
ATOM     21  O   UNL     1       1.946   5.210  17.662  0.00  0.00    +0.000 OA
ENDBRANCH  18  19
ENDBRANCH  12  13
ENDBRANCH   1  12
TORSDOF 4
ENDMDL
MODEL 7
REMARK VINA RESULT:      -7.2      1.543      1.849
REMARK  Name = 
REMARK  5 active torsions:
REMARK  status: ('A' for Active; 'I' for Inactive)
REMARK    1  A    between atoms: C_1  and  C_2
REMARK    2  A    between atoms: C_6  and  C_8
REMARK    3  A    between atoms: C_8  and  O_9
REMARK    4  A    between atoms: O_9  and  C_10
REMARK    5  A    between atoms: C_15  and  N_16
REMARK                            x       y       z     vdW  Elec       q    Type
REMARK                         _______ _______ _______ _____ _____    ______ ____
ROOT
ATOM      1  C   UNL     1       5.872   5.183  19.373  0.00  0.00    +0.000 C 
ENDROOT
BRANCH   1   7
ATOM      2  C   UNL     1       6.852   3.957  12.125  0.00  0.00    +0.000 C 
ATOM      3  C   UNL     1       6.800   4.322  13.549  0.00  0.00    +0.000 A 
ATOM      4  C   UNL     1       6.033   3.948  14.625  0.00  0.00    +0.000 A 
ATOM      5  C   UNL     1       6.535   4.714  15.707  0.00  0.00    +0.000 A 
ATOM      6  N   UNL     1       6.044   4.664  17.001  0.00  0.00    +0.000 N 
ATOM      7  C   UNL     1       6.574   5.405  18.040  0.00  0.00    +0.000 C 
ATOM      8  O   UNL     1       7.527   6.179  17.983  0.00  0.00    +0.000 OA
ATOM      9  N   UNL     1       7.549   5.483  15.298  0.00  0.00    +0.000 NA
ATOM     10  O   UNL     1       7.707   5.246  13.953  0.00  0.00    +0.000 OA
ATOM     11  H   UNL     1       5.237   4.076  17.159  0.00  0.00    +0.000 HD
ENDBRANCH   1   7
BRANCH   1  12
ATOM     12  O   UNL     1       4.546   5.689  19.273  0.00  0.00    +0.000 OA
BRANCH  12  13
ATOM     13  C   UNL     1       3.524   4.904  19.734  0.00  0.00    +0.000 A 
ATOM     14  C   UNL     1       3.645   3.539  20.007  0.00  0.00    +0.000 A 
ATOM     15  C   UNL     1       2.560   2.827  20.518  0.00  0.00    +0.000 A 
ATOM     16  C   UNL     1       1.374   3.497  20.750  0.00  0.00    +0.000 A 
ATOM     17  N   UNL     1       1.207   4.812  20.511  0.00  0.00    +0.000 NA
ATOM     18  C   UNL     1       2.282   5.500  20.012  0.00  0.00    +0.000 A 
BRANCH  18  19
ATOM     19  N   UNL     1       2.164   6.936  19.714  0.00  0.00    +0.000 N 
ATOM     20  O   UNL     1       1.918   7.700  20.663  0.00  0.00    +0.000 OA
ATOM     21  O   UNL     1       2.349   7.290  18.539  0.00  0.00    +0.000 OA
ENDBRANCH  18  19
ENDBRANCH  12  13
ENDBRANCH   1  12
TORSDOF 4
ENDMDL
MODEL 8
REMARK VINA RESULT:      -7.1      1.786      2.364
REMARK  Name = 
REMARK  5 active torsions:
REMARK  status: ('A' for Active; 'I' for Inactive)
REMARK    1  A    between atoms: C_1  and  C_2
REMARK    2  A    between atoms: C_6  and  C_8
REMARK    3  A    between atoms: C_8  and  O_9
REMARK    4  A    between atoms: O_9  and  C_10
REMARK    5  A    between atoms: C_15  and  N_16
REMARK                            x       y       z     vdW  Elec       q    Type
REMARK                         _______ _______ _______ _____ _____    ______ ____
ROOT
ATOM      1  C   UNL     1       5.422   3.952  19.075  0.00  0.00    +0.000 C 
ENDROOT
BRANCH   1   7
ATOM      2  C   UNL     1       7.299   4.577  11.928  0.00  0.00    +0.000 C 
ATOM      3  C   UNL     1       7.057   4.584  13.379  0.00  0.00    +0.000 A 
ATOM      4  C   UNL     1       6.217   3.911  14.232  0.00  0.00    +0.000 A 
ATOM      5  C   UNL     1       6.522   4.425  15.517  0.00  0.00    +0.000 A 
ATOM      6  N   UNL     1       5.900   4.032  16.690  0.00  0.00    +0.000 N 
ATOM      7  C   UNL     1       6.241   4.536  17.932  0.00  0.00    +0.000 C 
ATOM      8  O   UNL     1       7.115   5.363  18.178  0.00  0.00    +0.000 OA
ATOM      9  N   UNL     1       7.496   5.338  15.430  0.00  0.00    +0.000 NA
ATOM     10  O   UNL     1       7.821   5.443  14.099  0.00  0.00    +0.000 OA
ATOM     11  H   UNL     1       5.142   3.370  16.603  0.00  0.00    +0.000 HD
ENDBRANCH   1   7
BRANCH   1  12
ATOM     12  O   UNL     1       4.049   3.967  18.701  0.00  0.00    +0.000 OA
BRANCH  12  13
ATOM     13  C   UNL     1       3.230   4.877  19.310  0.00  0.00    +0.000 A 
ATOM     14  C   UNL     1       3.242   6.249  19.041  0.00  0.00    +0.000 A 
ATOM     15  C   UNL     1       2.337   7.097  19.679  0.00  0.00    +0.000 A 
ATOM     16  C   UNL     1       1.433   6.555  20.572  0.00  0.00    +0.000 A 
ATOM     17  N   UNL     1       1.374   5.241  20.862  0.00  0.00    +0.000 NA
ATOM     18  C   UNL     1       2.267   4.419  20.226  0.00  0.00    +0.000 A 
BRANCH  18  19
ATOM     19  N   UNL     1       2.268   2.975  20.507  0.00  0.00    +0.000 N 
ATOM     20  O   UNL     1       2.919   2.583  21.491  0.00  0.00    +0.000 OA
ATOM     21  O   UNL     1       1.591   2.249  19.762  0.00  0.00    +0.000 OA
ENDBRANCH  18  19
ENDBRANCH  12  13
ENDBRANCH   1  12
TORSDOF 4
ENDMDL
MODEL 9
REMARK VINA RESULT:      -7.1      1.623      1.845
REMARK  Name = 
REMARK  5 active torsions:
REMARK  status: ('A' for Active; 'I' for Inactive)
REMARK    1  A    between atoms: C_1  and  C_2
REMARK    2  A    between atoms: C_6  and  C_8
REMARK    3  A    between atoms: C_8  and  O_9
REMARK    4  A    between atoms: O_9  and  C_10
REMARK    5  A    between atoms: C_15  and  N_16
REMARK                            x       y       z     vdW  Elec       q    Type
REMARK                         _______ _______ _______ _____ _____    ______ ____
ROOT
ATOM      1  C   UNL     1       6.489   5.098  19.385  0.00  0.00    +0.000 C 
ENDROOT
BRANCH   1   7
ATOM      2  C   UNL     1       6.547   3.699  12.102  0.00  0.00    +0.000 C 
ATOM      3  C   UNL     1       6.643   4.126  13.506  0.00  0.00    +0.000 A 
ATOM      4  C   UNL     1       6.161   3.656  14.704  0.00  0.00    +0.000 A 
ATOM      5  C   UNL     1       6.645   4.574  15.670  0.00  0.00    +0.000 A 
ATOM      6  N   UNL     1       6.391   4.492  17.029  0.00  0.00    +0.000 N 
ATOM      7  C   UNL     1       6.901   5.391  17.949  0.00  0.00    +0.000 C 
ATOM      8  O   UNL     1       7.634   6.349  17.716  0.00  0.00    +0.000 OA
ATOM      9  N   UNL     1       7.382   5.521  15.080  0.00  0.00    +0.000 NA
ATOM     10  O   UNL     1       7.372   5.247  13.733  0.00  0.00    +0.000 OA
ATOM     11  H   UNL     1       5.773   3.754  17.333  0.00  0.00    +0.000 HD
ENDBRANCH   1   7
BRANCH   1  12
ATOM     12  O   UNL     1       5.177   5.609  19.591  0.00  0.00    +0.000 OA
BRANCH  12  13
ATOM     13  C   UNL     1       4.119   4.790  19.309  0.00  0.00    +0.000 A 
ATOM     14  C   UNL     1       4.109   3.411  19.539  0.00  0.00    +0.000 A 
ATOM     15  C   UNL     1       2.966   2.662  19.263  0.00  0.00    +0.000 A 
ATOM     16  C   UNL     1       1.851   3.308  18.764  0.00  0.00    +0.000 A 
ATOM     17  N   UNL     1       1.805   4.633  18.530  0.00  0.00    +0.000 NA
ATOM     18  C   UNL     1       2.934   5.358  18.809  0.00  0.00    +0.000 A 
BRANCH  18  19
ATOM     19  N   UNL     1       2.957   6.809  18.564  0.00  0.00    +0.000 N 
ATOM     20  O   UNL     1       3.545   7.208  17.544  0.00  0.00    +0.000 OA
ATOM     21  O   UNL     1       2.359   7.533  19.375  0.00  0.00    +0.000 OA
ENDBRANCH  18  19
ENDBRANCH  12  13
ENDBRANCH   1  12
TORSDOF 4
ENDMDL
