MODEL 1
REMARK VINA RESULT:      -8.7      0.000      0.000
REMARK  Name = 
REMARK  6 active torsions:
REMARK  status: ('A' for Active; 'I' for Inactive)
REMARK    1  A    between atoms: C_1  and  C_2
REMARK    2  A    between atoms: C_2  and  C_3
REMARK    3  A    between atoms: C_8  and  C_10
REMARK    4  A    between atoms: C_10  and  C_11
REMARK    5  A    between atoms: C_21  and  C_22
REMARK    6  A    between atoms: C_22  and  N_23
REMARK                            x       y       z     vdW  Elec       q    Type
REMARK                         _______ _______ _______ _____ _____    ______ ____
ROOT
ATOM      1  C   UNL     1       0.095  12.549  21.067  0.00  0.00    +0.000 C 
ATOM      2  C   UNL     1      -1.198  11.724  21.267  0.00  0.00    +0.000 C 
ATOM      3  C   UNL     1      -2.404  12.655  21.005  0.00  0.00    +0.000 C 
ATOM      4  C   UNL     1      -1.306  11.298  22.761  0.00  0.00    +0.000 C 
ATOM      5  C   UNL     1      -0.366  10.162  23.144  0.00  0.00    +0.000 C 
ATOM      6  C   UNL     1      -0.591   8.987  22.206  0.00  0.00    +0.000 C 
ATOM      7  N   UNL     1      -0.306   9.401  20.831  0.00  0.00    +0.000 N 
ATOM      8  C   UNL     1       0.941   9.156  20.237  0.00  0.00    +0.000 C 
ATOM      9  O   UNL     1       1.330   9.746  19.230  0.00  0.00    +0.000 OA
ATOM     10  C   UNL     1      -1.240  10.454  20.315  0.00  0.00    +0.000 C 
ENDROOT
BRANCH   8  11
ATOM     11  C   UNL     1       1.858   8.141  20.932  0.00  0.00    +0.000 C 
BRANCH  11  12
ATOM     12  C   UNL     1       2.112   6.915  20.085  0.00  0.00    +0.000 A 
ATOM     13  C   UNL     1       2.719   7.032  18.832  0.00  0.00    +0.000 A 
ATOM     14  C   UNL     1       2.810   5.923  17.993  0.00  0.00    +0.000 A 
ATOM     15  C   UNL     1       2.300   4.680  18.390  0.00  0.00    +0.000 A 
ATOM     16  C   UNL     1       1.683   4.557  19.647  0.00  0.00    +0.000 A 
ATOM     17  C   UNL     1       1.619   5.670  20.495  0.00  0.00    +0.000 A 
ATOM     18  C   UNL     1       1.092   3.252  20.118  0.00  0.00    +0.000 C 
ATOM     19  C   UNL     1       0.838   2.265  18.981  0.00  0.00    +0.000 C 
ATOM     20  C   UNL     1       2.055   2.180  18.070  0.00  0.00    +0.000 C 
ATOM     21  C   UNL     1       2.325   3.531  17.412  0.00  0.00    +0.000 C 
ENDBRANCH  11  12
ENDBRANCH   8  11
BRANCH  10  22
ATOM     22  C   UNL     1      -1.139  10.833  18.789  0.00  0.00    +0.000 C 
BRANCH  22  23
ATOM     23  N   UNL     1      -2.416  10.976  18.056  0.00  0.00    +0.000 NA
ATOM     24  C   UNL     1      -2.283  11.684  16.773  0.00  0.00    +0.000 C 
ATOM     25  C   UNL     1      -2.677  10.703  15.720  0.00  0.00    +0.000 C 
ATOM     26  C   UNL     1      -3.078   9.558  16.270  0.00  0.00    +0.000 C 
ATOM     27  C   UNL     1      -2.992   9.641  17.755  0.00  0.00    +0.000 C 
ENDBRANCH  22  23
ENDBRANCH  10  22
TORSDOF 4
ENDMDL
MODEL 2
REMARK VINA RESULT:      -8.4      0.923      1.084
REMARK  Name = 
REMARK  6 active torsions:
REMARK  status: ('A' for Active; 'I' for Inactive)
REMARK    1  A    between atoms: C_1  and  C_2
REMARK    2  A    between atoms: C_2  and  C_3
REMARK    3  A    between atoms: C_8  and  C_10
REMARK    4  A    between atoms: C_10  and  C_11
REMARK    5  A    between atoms: C_21  and  C_22
REMARK    6  A    between atoms: C_22  and  N_23
REMARK                            x       y       z     vdW  Elec       q    Type
REMARK                         _______ _______ _______ _____ _____    ______ ____
ROOT
ATOM      1  C   UNL     1       0.065  12.685  19.536  0.00  0.00    +0.000 C 
ATOM      2  C   UNL     1      -1.146  11.907  20.100  0.00  0.00    +0.000 C 
ATOM      3  C   UNL     1      -2.422  12.726  19.799  0.00  0.00    +0.000 C 
ATOM      4  C   UNL     1      -1.036  11.846  21.652  0.00  0.00    +0.000 C 
ATOM      5  C   UNL     1       0.003  10.853  22.155  0.00  0.00    +0.000 C 
ATOM      6  C   UNL     1      -0.280   9.484  21.557  0.00  0.00    +0.000 C 
ATOM      7  N   UNL     1      -0.199   9.565  20.097  0.00  0.00    +0.000 N 
ATOM      8  C   UNL     1       0.970   9.210  19.409  0.00  0.00    +0.000 C 
ATOM      9  O   UNL     1       1.194   9.551  18.249  0.00  0.00    +0.000 OA
ATOM     10  C   UNL     1      -1.246  10.447  19.485  0.00  0.00    +0.000 C 
ENDROOT
BRANCH   8  11
ATOM     11  C   UNL     1       2.022   8.407  20.187  0.00  0.00    +0.000 C 
BRANCH  11  12
ATOM     12  C   UNL     1       2.325   7.074  19.543  0.00  0.00    +0.000 A 
ATOM     13  C   UNL     1       3.114   7.005  18.392  0.00  0.00    +0.000 A 
ATOM     14  C   UNL     1       3.262   5.796  17.717  0.00  0.00    +0.000 A 
ATOM     15  C   UNL     1       2.629   4.634  18.180  0.00  0.00    +0.000 A 
ATOM     16  C   UNL     1       1.830   4.698  19.334  0.00  0.00    +0.000 A 
ATOM     17  C   UNL     1       1.707   5.912  20.022  0.00  0.00    +0.000 A 
ATOM     18  C   UNL     1       1.102   3.488  19.864  0.00  0.00    +0.000 C 
ATOM     19  C   UNL     1       0.961   2.374  18.830  0.00  0.00    +0.000 C 
ATOM     20  C   UNL     1       2.290   2.125  18.132  0.00  0.00    +0.000 C 
ATOM     21  C   UNL     1       2.730   3.369  17.364  0.00  0.00    +0.000 C 
ENDBRANCH  11  12
ENDBRANCH   8  11
BRANCH  10  22
ATOM     22  C   UNL     1      -1.365  10.454  17.914  0.00  0.00    +0.000 C 
BRANCH  22  23
ATOM     23  N   UNL     1      -2.612   9.901  17.342  0.00  0.00    +0.000 NA
ATOM     24  C   UNL     1      -3.816  10.669  17.699  0.00  0.00    +0.000 C 
ATOM     25  C   UNL     1      -4.367  11.189  16.414  0.00  0.00    +0.000 C 
ATOM     26  C   UNL     1      -3.653  10.744  15.381  0.00  0.00    +0.000 C 
ATOM     27  C   UNL     1      -2.537   9.881  15.860  0.00  0.00    +0.000 C 
ENDBRANCH  22  23
ENDBRANCH  10  22
TORSDOF 4
ENDMDL
MODEL 3
REMARK VINA RESULT:      -8.3      2.696      8.053
REMARK  Name = 
REMARK  6 active torsions:
REMARK  status: ('A' for Active; 'I' for Inactive)
REMARK    1  A    between atoms: C_1  and  C_2
REMARK    2  A    between atoms: C_2  and  C_3
REMARK    3  A    between atoms: C_8  and  C_10
REMARK    4  A    between atoms: C_10  and  C_11
REMARK    5  A    between atoms: C_21  and  C_22
REMARK    6  A    between atoms: C_22  and  N_23
REMARK                            x       y       z     vdW  Elec       q    Type
REMARK                         _______ _______ _______ _____ _____    ______ ____
ROOT
ATOM      1  C   UNL     1       1.365   4.387  17.469  0.00  0.00    +0.000 C 
ATOM      2  C   UNL     1       2.416   3.703  18.374  0.00  0.00    +0.000 C 
ATOM      3  C   UNL     1       3.168   2.654  17.524  0.00  0.00    +0.000 C 
ATOM      4  C   UNL     1       1.683   2.899  19.489  0.00  0.00    +0.000 C 
ATOM      5  C   UNL     1       1.107   3.772  20.596  0.00  0.00    +0.000 C 
ATOM      6  C   UNL     1       2.208   4.652  21.167  0.00  0.00    +0.000 C 
ATOM      7  N   UNL     1       2.742   5.511  20.108  0.00  0.00    +0.000 N 
ATOM      8  C   UNL     1       2.293   6.828  19.939  0.00  0.00    +0.000 C 
ATOM      9  O   UNL     1       2.468   7.467  18.902  0.00  0.00    +0.000 OA
ATOM     10  C   UNL     1       3.423   4.754  19.007  0.00  0.00    +0.000 C 
ENDROOT
BRANCH   8  11
ATOM     11  C   UNL     1       1.500   7.450  21.097  0.00  0.00    +0.000 C 
BRANCH  11  12
ATOM     12  C   UNL     1       0.965   8.823  20.760  0.00  0.00    +0.000 A 
ATOM     13  C   UNL     1       0.998   9.849  21.707  0.00  0.00    +0.000 A 
ATOM     14  C   UNL     1       0.366  11.063  21.445  0.00  0.00    +0.000 A 
ATOM     15  C   UNL     1      -0.306  11.273  20.233  0.00  0.00    +0.000 A 
ATOM     16  C   UNL     1      -0.347  10.243  19.278  0.00  0.00    +0.000 A 
ATOM     17  C   UNL     1       0.313   9.035  19.539  0.00  0.00    +0.000 A 
ATOM     18  C   UNL     1      -1.077  10.402  17.968  0.00  0.00    +0.000 C 
ATOM     19  C   UNL     1      -2.086  11.548  17.981  0.00  0.00    +0.000 C 
ATOM     20  C   UNL     1      -1.459  12.801  18.575  0.00  0.00    +0.000 C 
ATOM     21  C   UNL     1      -1.065  12.562  20.030  0.00  0.00    +0.000 C 
ENDBRANCH  11  12
ENDBRANCH   8  11
BRANCH  10  22
ATOM     22  C   UNL     1       4.194   5.590  17.918  0.00  0.00    +0.000 C 
BRANCH  22  23
ATOM     23  N   UNL     1       5.593   5.193  17.646  0.00  0.00    +0.000 NA
ATOM     24  C   UNL     1       6.349   6.190  16.870  0.00  0.00    +0.000 C 
ATOM     25  C   UNL     1       7.461   6.642  17.756  0.00  0.00    +0.000 C 
ATOM     26  C   UNL     1       7.454   5.966  18.903  0.00  0.00    +0.000 C 
ATOM     27  C   UNL     1       6.330   4.987  18.918  0.00  0.00    +0.000 C 
ENDBRANCH  22  23
ENDBRANCH  10  22
TORSDOF 4
ENDMDL
MODEL 4
REMARK VINA RESULT:      -8.3      0.833      1.650
REMARK  Name = 
REMARK  6 active torsions:
REMARK  status: ('A' for Active; 'I' for Inactive)
REMARK    1  A    between atoms: C_1  and  C_2
REMARK    2  A    between atoms: C_2  and  C_3
REMARK    3  A    between atoms: C_8  and  C_10
REMARK    4  A    between atoms: C_10  and  C_11
REMARK    5  A    between atoms: C_21  and  C_22
REMARK    6  A    between atoms: C_22  and  N_23
REMARK                            x       y       z     vdW  Elec       q    Type
REMARK                         _______ _______ _______ _____ _____    ______ ____
ROOT
ATOM      1  C   UNL     1       0.005  12.597  20.378  0.00  0.00    +0.000 C 
ATOM      2  C   UNL     1      -1.217  11.739  20.782  0.00  0.00    +0.000 C 
ATOM      3  C   UNL     1      -2.491  12.584  20.552  0.00  0.00    +0.000 C 
ATOM      4  C   UNL     1      -1.161  11.462  22.314  0.00  0.00    +0.000 C 
ATOM      5  C   UNL     1      -0.129  10.415  22.711  0.00  0.00    +0.000 C 
ATOM      6  C   UNL     1      -0.376   9.141  21.917  0.00  0.00    +0.000 C 
ATOM      7  N   UNL     1      -0.243   9.427  20.487  0.00  0.00    +0.000 N 
ATOM      8  C   UNL     1       0.954   9.179  19.799  0.00  0.00    +0.000 C 
ATOM      9  O   UNL     1       1.214   9.681  18.707  0.00  0.00    +0.000 OA
ATOM     10  C   UNL     1      -1.278  10.379  19.966  0.00  0.00    +0.000 C 
ENDROOT
BRANCH   8  11
ATOM     11  C   UNL     1       1.986   8.282  20.495  0.00  0.00    +0.000 C 
BRANCH  11  12
ATOM     12  C   UNL     1       1.890   6.839  20.053  0.00  0.00    +0.000 A 
ATOM     13  C   UNL     1       1.229   5.897  20.844  0.00  0.00    +0.000 A 
ATOM     14  C   UNL     1       1.276   4.546  20.509  0.00  0.00    +0.000 A 
ATOM     15  C   UNL     1       1.982   4.113  19.378  0.00  0.00    +0.000 A 
ATOM     16  C   UNL     1       2.653   5.055  18.581  0.00  0.00    +0.000 A 
ATOM     17  C   UNL     1       2.578   6.415  18.910  0.00  0.00    +0.000 A 
ATOM     18  C   UNL     1       3.450   4.646  17.367  0.00  0.00    +0.000 C 
ATOM     19  C   UNL     1       3.809   3.162  17.360  0.00  0.00    +0.000 C 
ATOM     20  C   UNL     1       2.588   2.318  17.697  0.00  0.00    +0.000 C 
ATOM     21  C   UNL     1       2.095   2.632  19.107  0.00  0.00    +0.000 C 
ENDBRANCH  11  12
ENDBRANCH   8  11
BRANCH  10  22
ATOM     22  C   UNL     1      -1.341  10.606  18.409  0.00  0.00    +0.000 C 
BRANCH  22  23
ATOM     23  N   UNL     1      -2.481   9.990  17.695  0.00  0.00    +0.000 NA
ATOM     24  C   UNL     1      -3.747  10.723  17.862  0.00  0.00    +0.000 C 
ATOM     25  C   UNL     1      -4.137  11.183  16.497  0.00  0.00    +0.000 C 
ATOM     26  C   UNL     1      -3.277  10.734  15.585  0.00  0.00    +0.000 C 
ATOM     27  C   UNL     1      -2.207   9.927  16.238  0.00  0.00    +0.000 C 
ENDBRANCH  22  23
ENDBRANCH  10  22
TORSDOF 4
ENDMDL
MODEL 5
REMARK VINA RESULT:      -8.2      2.789      8.173
REMARK  Name = 
REMARK  6 active torsions:
REMARK  status: ('A' for Active; 'I' for Inactive)
REMARK    1  A    between atoms: C_1  and  C_2
REMARK    2  A    between atoms: C_2  and  C_3
REMARK    3  A    between atoms: C_8  and  C_10
REMARK    4  A    between atoms: C_10  and  C_11
REMARK    5  A    between atoms: C_21  and  C_22
REMARK    6  A    between atoms: C_22  and  N_23
REMARK                            x       y       z     vdW  Elec       q    Type
REMARK                         _______ _______ _______ _____ _____    ______ ____
ROOT
ATOM      1  C   UNL     1       1.429   4.379  17.504  0.00  0.00    +0.000 C 
ATOM      2  C   UNL     1       2.514   3.716  18.384  0.00  0.00    +0.000 C 
ATOM      3  C   UNL     1       3.348   2.774  17.487  0.00  0.00    +0.000 C 
ATOM      4  C   UNL     1       1.826   2.799  19.439  0.00  0.00    +0.000 C 
ATOM      5  C   UNL     1       1.176   3.563  20.585  0.00  0.00    +0.000 C 
ATOM      6  C   UNL     1       2.206   4.481  21.224  0.00  0.00    +0.000 C 
ATOM      7  N   UNL     1       2.692   5.437  20.225  0.00  0.00    +0.000 N 
ATOM      8  C   UNL     1       2.153   6.727  20.126  0.00  0.00    +0.000 C 
ATOM      9  O   UNL     1       2.296   7.437  19.131  0.00  0.00    +0.000 OA
ATOM     10  C   UNL     1       3.437   4.795  19.094  0.00  0.00    +0.000 C 
ENDROOT
BRANCH   8  11
ATOM     11  C   UNL     1       1.305   7.223  21.305  0.00  0.00    +0.000 C 
BRANCH  11  12
ATOM     12  C   UNL     1       0.711   8.591  21.056  0.00  0.00    +0.000 A 
ATOM     13  C   UNL     1       1.042   9.309  19.904  0.00  0.00    +0.000 A 
ATOM     14  C   UNL     1       0.614  10.626  19.755  0.00  0.00    +0.000 A 
ATOM     15  C   UNL     1      -0.153  11.248  20.749  0.00  0.00    +0.000 A 
ATOM     16  C   UNL     1      -0.485  10.532  21.912  0.00  0.00    +0.000 A 
ATOM     17  C   UNL     1      -0.074   9.200  22.043  0.00  0.00    +0.000 A 
ATOM     18  C   UNL     1      -1.285  11.156  23.028  0.00  0.00    +0.000 C 
ATOM     19  C   UNL     1      -1.301  12.682  22.972  0.00  0.00    +0.000 C 
ATOM     20  C   UNL     1      -1.604  13.159  21.559  0.00  0.00    +0.000 C 
ATOM     21  C   UNL     1      -0.508  12.707  20.596  0.00  0.00    +0.000 C 
ENDBRANCH  11  12
ENDBRANCH   8  11
BRANCH  10  22
ATOM     22  C   UNL     1       4.161   5.746  18.067  0.00  0.00    +0.000 C 
BRANCH  22  23
ATOM     23  N   UNL     1       5.528   5.357  17.655  0.00  0.00    +0.000 NA
ATOM     24  C   UNL     1       6.166   6.322  16.745  0.00  0.00    +0.000 C 
ATOM     25  C   UNL     1       7.363   6.841  17.471  0.00  0.00    +0.000 C 
ATOM     26  C   UNL     1       7.503   6.228  18.645  0.00  0.00    +0.000 C 
ATOM     27  C   UNL     1       6.411   5.234  18.842  0.00  0.00    +0.000 C 
ENDBRANCH  22  23
ENDBRANCH  10  22
TORSDOF 4
ENDMDL
MODEL 6
REMARK VINA RESULT:      -8.1      2.809      8.195
REMARK  Name = 
REMARK  6 active torsions:
REMARK  status: ('A' for Active; 'I' for Inactive)
REMARK    1  A    between atoms: C_1  and  C_2
REMARK    2  A    between atoms: C_2  and  C_3
REMARK    3  A    between atoms: C_8  and  C_10
REMARK    4  A    between atoms: C_10  and  C_11
REMARK    5  A    between atoms: C_21  and  C_22
REMARK    6  A    between atoms: C_22  and  N_23
REMARK                            x       y       z     vdW  Elec       q    Type
REMARK                         _______ _______ _______ _____ _____    ______ ____
ROOT
ATOM      1  C   UNL     1       1.362   3.974  17.475  0.00  0.00    +0.000 C 
ATOM      2  C   UNL     1       2.299   3.257  18.475  0.00  0.00    +0.000 C 
ATOM      3  C   UNL     1       2.918   2.035  17.757  0.00  0.00    +0.000 C 
ATOM      4  C   UNL     1       1.451   2.678  19.645  0.00  0.00    +0.000 C 
ATOM      5  C   UNL     1       0.979   3.731  20.640  0.00  0.00    +0.000 C 
ATOM      6  C   UNL     1       2.180   4.513  21.149  0.00  0.00    +0.000 C 
ATOM      7  N   UNL     1       2.839   5.179  20.023  0.00  0.00    +0.000 N 
ATOM      8  C   UNL     1       2.571   6.518  19.707  0.00  0.00    +0.000 C 
ATOM      9  O   UNL     1       2.845   7.016  18.616  0.00  0.00    +0.000 OA
ATOM     10  C   UNL     1       3.429   4.227  19.025  0.00  0.00    +0.000 C 
ENDROOT
BRANCH   8  11
ATOM     11  C   UNL     1       1.853   7.357  20.773  0.00  0.00    +0.000 C 
BRANCH  11  12
ATOM     12  C   UNL     1       1.191   8.586  20.192  0.00  0.00    +0.000 A 
ATOM     13  C   UNL     1       1.502   9.016  18.900  0.00  0.00    +0.000 A 
ATOM     14  C   UNL     1       1.007  10.230  18.429  0.00  0.00    +0.000 A 
ATOM     15  C   UNL     1       0.192  11.034  19.238  0.00  0.00    +0.000 A 
ATOM     16  C   UNL     1      -0.121  10.609  20.540  0.00  0.00    +0.000 A 
ATOM     17  C   UNL     1       0.359   9.374  20.996  0.00  0.00    +0.000 A 
ATOM     18  C   UNL     1      -0.972  11.443  21.465  0.00  0.00    +0.000 C 
ATOM     19  C   UNL     1      -1.067  12.905  21.035  0.00  0.00    +0.000 C 
ATOM     20  C   UNL     1      -1.372  13.002  19.547  0.00  0.00    +0.000 C 
ATOM     21  C   UNL     1      -0.238  12.388  18.729  0.00  0.00    +0.000 C 
ENDBRANCH  11  12
ENDBRANCH   8  11
BRANCH  10  22
ATOM     22  C   UNL     1       4.320   4.836  17.877  0.00  0.00    +0.000 C 
BRANCH  22  23
ATOM     23  N   UNL     1       5.776   4.590  17.969  0.00  0.00    +0.000 NA
ATOM     24  C   UNL     1       6.514   4.956  16.748  0.00  0.00    +0.000 C 
ATOM     25  C   UNL     1       7.452   6.045  17.149  0.00  0.00    +0.000 C 
ATOM     26  C   UNL     1       7.373   6.278  18.457  0.00  0.00    +0.000 C 
ATOM     27  C   UNL     1       6.365   5.375  19.082  0.00  0.00    +0.000 C 
ENDBRANCH  22  23
ENDBRANCH  10  22
TORSDOF 4
ENDMDL
MODEL 7
REMARK VINA RESULT:      -8.1      1.348      2.349
REMARK  Name = 
REMARK  6 active torsions:
REMARK  status: ('A' for Active; 'I' for Inactive)
REMARK    1  A    between atoms: C_1  and  C_2
REMARK    2  A    between atoms: C_2  and  C_3
REMARK    3  A    between atoms: C_8  and  C_10
REMARK    4  A    between atoms: C_10  and  C_11
REMARK    5  A    between atoms: C_21  and  C_22
REMARK    6  A    between atoms: C_22  and  N_23
REMARK                            x       y       z     vdW  Elec       q    Type
REMARK                         _______ _______ _______ _____ _____    ______ ____
ROOT
ATOM      1  C   UNL     1       0.436  12.184  20.981  0.00  0.00    +0.000 C 
ATOM      2  C   UNL     1      -0.863  11.414  21.314  0.00  0.00    +0.000 C 
ATOM      3  C   UNL     1      -2.044  12.408  21.223  0.00  0.00    +0.000 C 
ATOM      4  C   UNL     1      -0.814  10.948  22.800  0.00  0.00    +0.000 C 
ATOM      5  C   UNL     1       0.108   9.760  23.039  0.00  0.00    +0.000 C 
ATOM      6  C   UNL     1      -0.285   8.624  22.106  0.00  0.00    +0.000 C 
ATOM      7  N   UNL     1      -0.146   9.067  20.717  0.00  0.00    +0.000 N 
ATOM      8  C   UNL     1       1.007   8.782  19.971  0.00  0.00    +0.000 C 
ATOM      9  O   UNL     1       1.303   9.384  18.940  0.00  0.00    +0.000 OA
ATOM     10  C   UNL     1      -1.082  10.177  20.344  0.00  0.00    +0.000 C 
ENDROOT
BRANCH   8  11
ATOM     11  C   UNL     1       1.950   7.705  20.526  0.00  0.00    +0.000 C 
BRANCH  11  12
ATOM     12  C   UNL     1       2.411   6.736  19.461  0.00  0.00    +0.000 A 
ATOM     13  C   UNL     1       1.996   5.402  19.489  0.00  0.00    +0.000 A 
ATOM     14  C   UNL     1       2.545   4.482  18.598  0.00  0.00    +0.000 A 
ATOM     15  C   UNL     1       3.512   4.877  17.664  0.00  0.00    +0.000 A 
ATOM     16  C   UNL     1       3.936   6.216  17.634  0.00  0.00    +0.000 A 
ATOM     17  C   UNL     1       3.361   7.141  18.516  0.00  0.00    +0.000 A 
ATOM     18  C   UNL     1       4.992   6.695  16.670  0.00  0.00    +0.000 C 
ATOM     19  C   UNL     1       5.827   5.558  16.085  0.00  0.00    +0.000 C 
ATOM     20  C   UNL     1       4.925   4.426  15.612  0.00  0.00    +0.000 C 
ATOM     21  C   UNL     1       4.155   3.830  16.787  0.00  0.00    +0.000 C 
ENDBRANCH  11  12
ENDBRANCH   8  11
BRANCH  10  22
ATOM     22  C   UNL     1      -1.144  10.598  18.827  0.00  0.00    +0.000 C 
BRANCH  22  23
ATOM     23  N   UNL     1      -2.283  10.073  18.041  0.00  0.00    +0.000 NA
ATOM     24  C   UNL     1      -3.434  10.990  17.987  0.00  0.00    +0.000 C 
ATOM     25  C   UNL     1      -3.604  11.350  16.549  0.00  0.00    +0.000 C 
ATOM     26  C   UNL     1      -2.730  10.690  15.792  0.00  0.00    +0.000 C 
ATOM     27  C   UNL     1      -1.869   9.817  16.639  0.00  0.00    +0.000 C 
ENDBRANCH  22  23
ENDBRANCH  10  22
TORSDOF 4
ENDMDL
MODEL 8
REMARK VINA RESULT:      -8.1      2.754      8.164
REMARK  Name = 
REMARK  6 active torsions:
REMARK  status: ('A' for Active; 'I' for Inactive)
REMARK    1  A    between atoms: C_1  and  C_2
REMARK    2  A    between atoms: C_2  and  C_3
REMARK    3  A    between atoms: C_8  and  C_10
REMARK    4  A    between atoms: C_10  and  C_11
REMARK    5  A    between atoms: C_21  and  C_22
REMARK    6  A    between atoms: C_22  and  N_23
REMARK                            x       y       z     vdW  Elec       q    Type
REMARK                         _______ _______ _______ _____ _____    ______ ____
ROOT
ATOM      1  C   UNL     1       1.333   4.573  17.434  0.00  0.00    +0.000 C 
ATOM      2  C   UNL     1       2.414   4.017  18.389  0.00  0.00    +0.000 C 
ATOM      3  C   UNL     1       3.187   2.906  17.642  0.00  0.00    +0.000 C 
ATOM      4  C   UNL     1       1.720   3.314  19.593  0.00  0.00    +0.000 C 
ATOM      5  C   UNL     1       1.130   4.281  20.611  0.00  0.00    +0.000 C 
ATOM      6  C   UNL     1       2.212   5.246  21.071  0.00  0.00    +0.000 C 
ATOM      7  N   UNL     1       2.708   6.005  19.920  0.00  0.00    +0.000 N 
ATOM      8  C   UNL     1       2.217   7.284  19.621  0.00  0.00    +0.000 C 
ATOM      9  O   UNL     1       2.360   7.815  18.521  0.00  0.00    +0.000 OA
ATOM     10  C   UNL     1       3.397   5.156  18.894  0.00  0.00    +0.000 C 
ENDROOT
BRANCH   8  11
ATOM     11  C   UNL     1       1.420   8.001  20.720  0.00  0.00    +0.000 C 
BRANCH  11  12
ATOM     12  C   UNL     1       0.784   9.282  20.231  0.00  0.00    +0.000 A 
ATOM     13  C   UNL     1      -0.460   9.258  19.596  0.00  0.00    +0.000 A 
ATOM     14  C   UNL     1      -0.969  10.417  19.012  0.00  0.00    +0.000 A 
ATOM     15  C   UNL     1      -0.247  11.617  19.055  0.00  0.00    +0.000 A 
ATOM     16  C   UNL     1       1.007  11.646  19.689  0.00  0.00    +0.000 A 
ATOM     17  C   UNL     1       1.500  10.483  20.296  0.00  0.00    +0.000 A 
ATOM     18  C   UNL     1       1.841  12.901  19.744  0.00  0.00    +0.000 C 
ATOM     19  C   UNL     1       1.420  13.945  18.711  0.00  0.00    +0.000 C 
ATOM     20  C   UNL     1      -0.091  14.123  18.722  0.00  0.00    +0.000 C 
ATOM     21  C   UNL     1      -0.784  12.822  18.323  0.00  0.00    +0.000 C 
ENDBRANCH  11  12
ENDBRANCH   8  11
BRANCH  10  22
ATOM     22  C   UNL     1       4.130   5.895  17.712  0.00  0.00    +0.000 C 
BRANCH  22  23
ATOM     23  N   UNL     1       5.523   5.481  17.433  0.00  0.00    +0.000 NA
ATOM     24  C   UNL     1       6.376   6.574  16.938  0.00  0.00    +0.000 C 
ATOM     25  C   UNL     1       7.448   6.752  17.961  0.00  0.00    +0.000 C 
ATOM     26  C   UNL     1       7.332   5.844  18.927  0.00  0.00    +0.000 C 
ATOM     27  C   UNL     1       6.163   4.958  18.666  0.00  0.00    +0.000 C 
ENDBRANCH  22  23
ENDBRANCH  10  22
TORSDOF 4
ENDMDL
MODEL 9
REMARK VINA RESULT:      -8.1      1.888      2.841
REMARK  Name = 
REMARK  6 active torsions:
REMARK  status: ('A' for Active; 'I' for Inactive)
REMARK    1  A    between atoms: C_1  and  C_2
REMARK    2  A    between atoms: C_2  and  C_3
REMARK    3  A    between atoms: C_8  and  C_10
REMARK    4  A    between atoms: C_10  and  C_11
REMARK    5  A    between atoms: C_21  and  C_22
REMARK    6  A    between atoms: C_22  and  N_23
REMARK                            x       y       z     vdW  Elec       q    Type
REMARK                         _______ _______ _______ _____ _____    ______ ____
ROOT
ATOM      1  C   UNL     1       0.898  12.371  19.083  0.00  0.00    +0.000 C 
ATOM      2  C   UNL     1      -0.361  11.845  19.812  0.00  0.00    +0.000 C 
ATOM      3  C   UNL     1      -1.487  12.889  19.635  0.00  0.00    +0.000 C 
ATOM      4  C   UNL     1      -0.076  11.783  21.342  0.00  0.00    +0.000 C 
ATOM      5  C   UNL     1       0.812  10.616  21.754  0.00  0.00    +0.000 C 
ATOM      6  C   UNL     1       0.204   9.319  21.242  0.00  0.00    +0.000 C 
ATOM      7  N   UNL     1       0.121   9.365  19.781  0.00  0.00    +0.000 N 
ATOM      8  C   UNL     1       1.110   8.785  18.973  0.00  0.00    +0.000 C 
ATOM      9  O   UNL     1       1.250   9.063  17.783  0.00  0.00    +0.000 OA
ATOM     10  C   UNL     1      -0.808  10.424  19.265  0.00  0.00    +0.000 C 
ENDROOT
BRANCH   8  11
ATOM     11  C   UNL     1       2.078   7.805  19.650  0.00  0.00    +0.000 C 
BRANCH  11  12
ATOM     12  C   UNL     1       2.674   6.815  18.676  0.00  0.00    +0.000 A 
ATOM     13  C   UNL     1       2.177   5.511  18.597  0.00  0.00    +0.000 A 
ATOM     14  C   UNL     1       2.827   4.562  17.811  0.00  0.00    +0.000 A 
ATOM     15  C   UNL     1       3.981   4.898  17.090  0.00  0.00    +0.000 A 
ATOM     16  C   UNL     1       4.489   6.206  17.170  0.00  0.00    +0.000 A 
ATOM     17  C   UNL     1       3.814   7.161  17.941  0.00  0.00    +0.000 A 
ATOM     18  C   UNL     1       5.742   6.618  16.438  0.00  0.00    +0.000 C 
ATOM     19  C   UNL     1       6.599   5.431  16.003  0.00  0.00    +0.000 C 
ATOM     20  C   UNL     1       5.735   4.366  15.342  0.00  0.00    +0.000 C 
ATOM     21  C   UNL     1       4.714   3.816  16.334  0.00  0.00    +0.000 C 
ENDBRANCH  11  12
ENDBRANCH   8  11
BRANCH  10  22
ATOM     22  C   UNL     1      -1.114  10.434  17.720  0.00  0.00    +0.000 C 
BRANCH  22  23
ATOM     23  N   UNL     1      -2.425   9.893  17.301  0.00  0.00    +0.000 NA
ATOM     24  C   UNL     1      -3.572  10.654  17.825  0.00  0.00    +0.000 C 
ATOM     25  C   UNL     1      -4.281  11.201  16.632  0.00  0.00    +0.000 C 
ATOM     26  C   UNL     1      -3.706  10.778  15.508  0.00  0.00    +0.000 C 
ATOM     27  C   UNL     1      -2.540   9.905  15.821  0.00  0.00    +0.000 C 
ENDBRANCH  22  23
ENDBRANCH  10  22
TORSDOF 4
ENDMDL
