MODEL 1
REMARK VINA RESULT:      -6.5      0.000      0.000
REMARK  Name = 
REMARK  7 active torsions:
REMARK  status: ('A' for Active; 'I' for Inactive)
REMARK    1  A    between atoms: C_1  and  C_2
REMARK    2  A    between atoms: C_5  and  C_6
REMARK    3  A    between atoms: C_8  and  C_9
REMARK    4  A    between atoms: C_11  and  C_12
REMARK    5  A    between atoms: C_15  and  O_16
REMARK    6  A    between atoms: N_22  and  C_23
REMARK    7  A    between atoms: C_23  and  C_24
REMARK                            x       y       z     vdW  Elec       q    Type
REMARK                         _______ _______ _______ _____ _____    ______ ____
ROOT
ATOM      1  C   UNL     1      -1.383  12.332  20.434  0.00  0.00    +0.000 C 
ATOM      2  C   UNL     1      -2.469  12.375  21.446  0.00  0.00    +0.000 A 
ATOM      3  C   UNL     1      -3.794  12.788  21.679  0.00  0.00    +0.000 A 
ATOM      4  N   UNL     1      -4.173  12.400  22.925  0.00  0.00    +0.000 NA
ATOM      5  N   UNL     1      -3.083  11.796  23.459  0.00  0.00    +0.000 N 
ATOM      6  C   UNL     1      -2.065  11.756  22.590  0.00  0.00    +0.000 A 
ATOM      7  C   UNL     1      -0.756  11.229  22.498  0.00  0.00    +0.000 C 
ATOM      8  O   UNL     1      -0.138  10.616  23.349  0.00  0.00    +0.000 OA
ATOM      9  N   UNL     1      -0.364  11.547  21.198  0.00  0.00    +0.000 N 
ATOM     10  H   UNL     1      -3.137  11.425  24.403  0.00  0.00    +0.000 HD
ENDROOT
BRANCH   1  15
ATOM     11  C   UNL     1      -2.833   9.676  15.444  0.00  0.00    +0.000 C 
ATOM     12  C   UNL     1      -2.534  10.375  16.735  0.00  0.00    +0.000 A 
ATOM     13  C   UNL     1      -2.069  11.691  16.747  0.00  0.00    +0.000 A 
ATOM     14  C   UNL     1      -1.749  12.312  17.955  0.00  0.00    +0.000 A 
ATOM     15  C   UNL     1      -1.868  11.633  19.182  0.00  0.00    +0.000 A 
ATOM     16  C   UNL     1      -2.366  10.321  19.156  0.00  0.00    +0.000 A 
ATOM     17  C   UNL     1      -2.712   9.707  17.949  0.00  0.00    +0.000 A 
ENDBRANCH   1  15
BRANCH   3  18
ATOM     18  C   UNL     1      -4.728  13.469  20.777  0.00  0.00    +0.000 A 
ATOM     19  C   UNL     1      -5.185  12.810  19.619  0.00  0.00    +0.000 A 
ATOM     20  C   UNL     1      -6.066  13.432  18.719  0.00  0.00    +0.000 A 
ATOM     21  C   UNL     1      -6.540  12.729  17.481  0.00  0.00    +0.000 C 
ATOM     22  C   UNL     1      -6.508  14.729  18.989  0.00  0.00    +0.000 A 
ATOM     23  C   UNL     1      -6.069  15.399  20.131  0.00  0.00    +0.000 A 
ATOM     24  C   UNL     1      -5.192  14.772  21.018  0.00  0.00    +0.000 A 
BRANCH  24  25
ATOM     25  O   UNL     1      -4.820  15.451  22.148  0.00  0.00    +0.000 OA
ATOM     26  H   UNL     1      -4.401  16.287  21.886  0.00  0.00    +0.000 HD
ENDBRANCH  24  25
ENDBRANCH   3  18
BRANCH   9  27
ATOM     27  C   UNL     1       0.883  11.092  20.618  0.00  0.00    +0.000 C 
BRANCH  27  28
ATOM     28  C   UNL     1       1.684  12.230  20.097  0.00  0.00    +0.000 A 
ATOM     29  C   UNL     1       1.990  12.673  18.826  0.00  0.00    +0.000 A 
ATOM     30  C   UNL     1       2.794  13.829  18.986  0.00  0.00    +0.000 A 
ATOM     31  C   UNL     1       2.904  14.034  20.341  0.00  0.00    +0.000 A 
ATOM     32  O   UNL     1       2.230  13.073  21.021  0.00  0.00    +0.000 OA
ENDBRANCH  27  28
ENDBRANCH   9  27
TORSDOF 5
ENDMDL
MODEL 2
REMARK VINA RESULT:      -6.4      2.065      6.354
REMARK  Name = 
REMARK  7 active torsions:
REMARK  status: ('A' for Active; 'I' for Inactive)
REMARK    1  A    between atoms: C_1  and  C_2
REMARK    2  A    between atoms: C_5  and  C_6
REMARK    3  A    between atoms: C_8  and  C_9
REMARK    4  A    between atoms: C_11  and  C_12
REMARK    5  A    between atoms: C_15  and  O_16
REMARK    6  A    between atoms: N_22  and  C_23
REMARK    7  A    between atoms: C_23  and  C_24
REMARK                            x       y       z     vdW  Elec       q    Type
REMARK                         _______ _______ _______ _____ _____    ______ ____
ROOT
ATOM      1  C   UNL     1      -2.991  12.026  20.371  0.00  0.00    +0.000 C 
ATOM      2  C   UNL     1      -1.682  12.462  20.917  0.00  0.00    +0.000 A 
ATOM      3  C   UNL     1      -0.362  12.050  21.181  0.00  0.00    +0.000 A 
ATOM      4  N   UNL     1       0.347  13.101  21.671  0.00  0.00    +0.000 NA
ATOM      5  N   UNL     1      -0.536  14.127  21.743  0.00  0.00    +0.000 N 
ATOM      6  C   UNL     1      -1.743  13.772  21.284  0.00  0.00    +0.000 A 
ATOM      7  C   UNL     1      -3.005  14.358  21.027  0.00  0.00    +0.000 C 
ATOM      8  O   UNL     1      -3.349  15.506  21.234  0.00  0.00    +0.000 OA
ATOM      9  N   UNL     1      -3.737  13.319  20.452  0.00  0.00    +0.000 N 
ATOM     10  H   UNL     1      -0.220  15.027  22.091  0.00  0.00    +0.000 HD
ENDROOT
BRANCH   1  15
ATOM     11  C   UNL     1      -2.765  10.153  14.847  0.00  0.00    +0.000 C 
ATOM     12  C   UNL     1      -2.762  10.593  16.280  0.00  0.00    +0.000 A 
ATOM     13  C   UNL     1      -3.586   9.974  17.221  0.00  0.00    +0.000 A 
ATOM     14  C   UNL     1      -3.606  10.426  18.542  0.00  0.00    +0.000 A 
ATOM     15  C   UNL     1      -2.818  11.517  18.955  0.00  0.00    +0.000 A 
ATOM     16  C   UNL     1      -1.973  12.109  18.004  0.00  0.00    +0.000 A 
ATOM     17  C   UNL     1      -1.931  11.639  16.688  0.00  0.00    +0.000 A 
ENDBRANCH   1  15
BRANCH   3  18
ATOM     18  C   UNL     1       0.271  10.749  20.945  0.00  0.00    +0.000 A 
ATOM     19  C   UNL     1       0.670  10.395  19.641  0.00  0.00    +0.000 A 
ATOM     20  C   UNL     1       1.264   9.153  19.366  0.00  0.00    +0.000 A 
ATOM     21  C   UNL     1       1.677   8.776  17.974  0.00  0.00    +0.000 C 
ATOM     22  C   UNL     1       1.475   8.255  20.416  0.00  0.00    +0.000 A 
ATOM     23  C   UNL     1       1.089   8.586  21.714  0.00  0.00    +0.000 A 
ATOM     24  C   UNL     1       0.498   9.824  21.975  0.00  0.00    +0.000 A 
BRANCH  24  25
ATOM     25  O   UNL     1       0.173  10.124  23.272  0.00  0.00    +0.000 OA
ATOM     26  H   UNL     1      -0.332   9.384  23.647  0.00  0.00    +0.000 HD
ENDBRANCH  24  25
ENDBRANCH   3  18
BRANCH   9  27
ATOM     27  C   UNL     1      -5.071  13.500  19.915  0.00  0.00    +0.000 C 
BRANCH  27  28
ATOM     28  C   UNL     1      -6.079  12.751  20.708  0.00  0.00    +0.000 A 
ATOM     29  C   UNL     1      -6.613  12.921  21.969  0.00  0.00    +0.000 A 
ATOM     30  C   UNL     1      -7.550  11.874  22.154  0.00  0.00    +0.000 A 
ATOM     31  C   UNL     1      -7.549  11.149  20.986  0.00  0.00    +0.000 A 
ATOM     32  O   UNL     1      -6.665  11.677  20.102  0.00  0.00    +0.000 OA
ENDBRANCH  27  28
ENDBRANCH   9  27
TORSDOF 5
ENDMDL
MODEL 3
REMARK VINA RESULT:      -6.4      2.955      5.130
REMARK  Name = 
REMARK  7 active torsions:
REMARK  status: ('A' for Active; 'I' for Inactive)
REMARK    1  A    between atoms: C_1  and  C_2
REMARK    2  A    between atoms: C_5  and  C_6
REMARK    3  A    between atoms: C_8  and  C_9
REMARK    4  A    between atoms: C_11  and  C_12
REMARK    5  A    between atoms: C_15  and  O_16
REMARK    6  A    between atoms: N_22  and  C_23
REMARK    7  A    between atoms: C_23  and  C_24
REMARK                            x       y       z     vdW  Elec       q    Type
REMARK                         _______ _______ _______ _____ _____    ______ ____
ROOT
ATOM      1  C   UNL     1      -2.267  12.403  21.312  0.00  0.00    +0.000 C 
ATOM      2  C   UNL     1      -3.526  12.527  20.535  0.00  0.00    +0.000 A 
ATOM      3  C   UNL     1      -4.889  12.866  20.621  0.00  0.00    +0.000 A 
ATOM      4  N   UNL     1      -5.447  12.800  19.384  0.00  0.00    +0.000 NA
ATOM      5  N   UNL     1      -4.450  12.388  18.562  0.00  0.00    +0.000 N 
ATOM      6  C   UNL     1      -3.296  12.237  19.225  0.00  0.00    +0.000 A 
ATOM      7  C   UNL     1      -1.942  11.926  18.958  0.00  0.00    +0.000 C 
ATOM      8  O   UNL     1      -1.439  11.643  17.888  0.00  0.00    +0.000 OA
ATOM      9  N   UNL     1      -1.325  12.058  20.203  0.00  0.00    +0.000 N 
ATOM     10  H   UNL     1      -4.644  12.265  17.573  0.00  0.00    +0.000 HD
ENDROOT
BRANCH   1  15
ATOM     11  C   UNL     1      -0.630  17.287  24.057  0.00  0.00    +0.000 C 
ATOM     12  C   UNL     1      -1.122  16.056  23.358  0.00  0.00    +0.000 A 
ATOM     13  C   UNL     1      -1.294  14.857  24.052  0.00  0.00    +0.000 A 
ATOM     14  C   UNL     1      -1.707  13.707  23.377  0.00  0.00    +0.000 A 
ATOM     15  C   UNL     1      -1.944  13.717  21.990  0.00  0.00    +0.000 A 
ATOM     16  C   UNL     1      -1.796  14.937  21.312  0.00  0.00    +0.000 A 
ATOM     17  C   UNL     1      -1.409  16.095  21.991  0.00  0.00    +0.000 A 
ENDBRANCH   1  15
BRANCH   3  18
ATOM     18  C   UNL     1      -5.669  13.298  21.785  0.00  0.00    +0.000 A 
ATOM     19  C   UNL     1      -5.355  14.514  22.422  0.00  0.00    +0.000 A 
ATOM     20  C   UNL     1      -6.064  14.958  23.550  0.00  0.00    +0.000 A 
ATOM     21  C   UNL     1      -5.717  16.249  24.230  0.00  0.00    +0.000 C 
ATOM     22  C   UNL     1      -7.114  14.178  24.041  0.00  0.00    +0.000 A 
ATOM     23  C   UNL     1      -7.442  12.971  23.424  0.00  0.00    +0.000 A 
ATOM     24  C   UNL     1      -6.730  12.539  22.304  0.00  0.00    +0.000 A 
BRANCH  24  25
ATOM     25  O   UNL     1      -7.114  11.368  21.706  0.00  0.00    +0.000 OA
ATOM     26  H   UNL     1      -8.082  11.353  21.643  0.00  0.00    +0.000 HD
ENDBRANCH  24  25
ENDBRANCH   3  18
BRANCH   9  27
ATOM     27  C   UNL     1       0.108  11.945  20.386  0.00  0.00    +0.000 C 
BRANCH  27  28
ATOM     28  C   UNL     1       0.483  10.604  20.903  0.00  0.00    +0.000 A 
ATOM     29  C   UNL     1       0.772   9.398  20.296  0.00  0.00    +0.000 A 
ATOM     30  C   UNL     1       1.070   8.484  21.338  0.00  0.00    +0.000 A 
ATOM     31  C   UNL     1       0.971   9.196  22.510  0.00  0.00    +0.000 A 
ATOM     32  O   UNL     1       0.622  10.482  22.255  0.00  0.00    +0.000 OA
ENDBRANCH  27  28
ENDBRANCH   9  27
TORSDOF 5
ENDMDL
MODEL 4
REMARK VINA RESULT:      -6.4      1.499      1.787
REMARK  Name = 
REMARK  7 active torsions:
REMARK  status: ('A' for Active; 'I' for Inactive)
REMARK    1  A    between atoms: C_1  and  C_2
REMARK    2  A    between atoms: C_5  and  C_6
REMARK    3  A    between atoms: C_8  and  C_9
REMARK    4  A    between atoms: C_11  and  C_12
REMARK    5  A    between atoms: C_15  and  O_16
REMARK    6  A    between atoms: N_22  and  C_23
REMARK    7  A    between atoms: C_23  and  C_24
REMARK                            x       y       z     vdW  Elec       q    Type
REMARK                         _______ _______ _______ _____ _____    ______ ____
ROOT
ATOM      1  C   UNL     1      -2.086  12.740  20.307  0.00  0.00    +0.000 C 
ATOM      2  C   UNL     1      -3.171  12.611  21.311  0.00  0.00    +0.000 A 
ATOM      3  C   UNL     1      -4.562  12.712  21.506  0.00  0.00    +0.000 A 
ATOM      4  N   UNL     1      -4.863  12.358  22.783  0.00  0.00    +0.000 NA
ATOM      5  N   UNL     1      -3.672  12.084  23.370  0.00  0.00    +0.000 N 
ATOM      6  C   UNL     1      -2.655  12.212  22.506  0.00  0.00    +0.000 A 
ATOM      7  C   UNL     1      -1.257  12.009  22.463  0.00  0.00    +0.000 C 
ATOM      8  O   UNL     1      -0.529  11.641  23.365  0.00  0.00    +0.000 OA
ATOM      9  N   UNL     1      -0.925  12.295  21.138  0.00  0.00    +0.000 N 
ATOM     10  H   UNL     1      -3.655  11.796  24.343  0.00  0.00    +0.000 HD
ENDROOT
BRANCH   1  15
ATOM     11  C   UNL     1      -3.108   9.619  15.482  0.00  0.00    +0.000 C 
ATOM     12  C   UNL     1      -2.881  10.367  16.760  0.00  0.00    +0.000 A 
ATOM     13  C   UNL     1      -3.719  11.419  17.134  0.00  0.00    +0.000 A 
ATOM     14  C   UNL     1      -3.466  12.137  18.304  0.00  0.00    +0.000 A 
ATOM     15  C   UNL     1      -2.363  11.836  19.125  0.00  0.00    +0.000 A 
ATOM     16  C   UNL     1      -1.548  10.756  18.751  0.00  0.00    +0.000 A 
ATOM     17  C   UNL     1      -1.815  10.020  17.594  0.00  0.00    +0.000 A 
ENDBRANCH   1  15
BRANCH   3  18
ATOM     18  C   UNL     1      -5.612  13.066  20.547  0.00  0.00    +0.000 A 
ATOM     19  C   UNL     1      -5.615  14.345  19.957  0.00  0.00    +0.000 A 
ATOM     20  C   UNL     1      -6.611  14.732  19.046  0.00  0.00    +0.000 A 
ATOM     21  C   UNL     1      -6.616  16.100  18.430  0.00  0.00    +0.000 C 
ATOM     22  C   UNL     1      -7.614  13.819  18.709  0.00  0.00    +0.000 A 
ATOM     23  C   UNL     1      -7.629  12.547  19.281  0.00  0.00    +0.000 A 
ATOM     24  C   UNL     1      -6.634  12.174  20.186  0.00  0.00    +0.000 A 
BRANCH  24  25
ATOM     25  O   UNL     1      -6.664  10.901  20.691  0.00  0.00    +0.000 OA
ATOM     26  H   UNL     1      -6.962  10.295  19.993  0.00  0.00    +0.000 HD
ENDBRANCH  24  25
ENDBRANCH   3  18
BRANCH   9  27
ATOM     27  C   UNL     1       0.407  12.103  20.602  0.00  0.00    +0.000 C 
BRANCH  27  28
ATOM     28  C   UNL     1       0.933  13.356  20.002  0.00  0.00    +0.000 A 
ATOM     29  C   UNL     1       1.077  13.801  18.703  0.00  0.00    +0.000 A 
ATOM     30  C   UNL     1       1.639  15.100  18.782  0.00  0.00    +0.000 A 
ATOM     31  C   UNL     1       1.777  15.376  20.122  0.00  0.00    +0.000 A 
ATOM     32  O   UNL     1       1.347  14.327  20.868  0.00  0.00    +0.000 OA
ENDBRANCH  27  28
ENDBRANCH   9  27
TORSDOF 5
ENDMDL
MODEL 5
REMARK VINA RESULT:      -6.3      3.052      5.852
REMARK  Name = 
REMARK  7 active torsions:
REMARK  status: ('A' for Active; 'I' for Inactive)
REMARK    1  A    between atoms: C_1  and  C_2
REMARK    2  A    between atoms: C_5  and  C_6
REMARK    3  A    between atoms: C_8  and  C_9
REMARK    4  A    between atoms: C_11  and  C_12
REMARK    5  A    between atoms: C_15  and  O_16
REMARK    6  A    between atoms: N_22  and  C_23
REMARK    7  A    between atoms: C_23  and  C_24
REMARK                            x       y       z     vdW  Elec       q    Type
REMARK                         _______ _______ _______ _____ _____    ______ ____
ROOT
ATOM      1  C   UNL     1      -1.182  12.574  19.394  0.00  0.00    +0.000 C 
ATOM      2  C   UNL     1       0.104  13.253  19.689  0.00  0.00    +0.000 A 
ATOM      3  C   UNL     1       0.681  14.425  20.213  0.00  0.00    +0.000 A 
ATOM      4  N   UNL     1       2.033  14.296  20.223  0.00  0.00    +0.000 NA
ATOM      5  N   UNL     1       2.281  13.080  19.676  0.00  0.00    +0.000 N 
ATOM      6  C   UNL     1       1.146  12.437  19.368  0.00  0.00    +0.000 A 
ATOM      7  C   UNL     1       0.730  11.180  18.873  0.00  0.00    +0.000 C 
ATOM      8  O   UNL     1       1.429  10.249  18.521  0.00  0.00    +0.000 OA
ATOM      9  N   UNL     1      -0.663  11.254  18.920  0.00  0.00    +0.000 N 
ATOM     10  H   UNL     1       3.242  12.769  19.579  0.00  0.00    +0.000 HD
ENDROOT
BRANCH   1  15
ATOM     11  C   UNL     1      -4.094  12.458  24.451  0.00  0.00    +0.000 C 
ATOM     12  C   UNL     1      -3.382  12.424  23.133  0.00  0.00    +0.000 A 
ATOM     13  C   UNL     1      -2.092  11.902  23.027  0.00  0.00    +0.000 A 
ATOM     14  C   UNL     1      -1.424  11.922  21.801  0.00  0.00    +0.000 A 
ATOM     15  C   UNL     1      -2.018  12.476  20.652  0.00  0.00    +0.000 A 
ATOM     16  C   UNL     1      -3.327  12.970  20.768  0.00  0.00    +0.000 A 
ATOM     17  C   UNL     1      -4.006  12.926  21.988  0.00  0.00    +0.000 A 
ENDBRANCH   1  15
BRANCH   3  18
ATOM     18  C   UNL     1       0.027  15.623  20.751  0.00  0.00    +0.000 A 
ATOM     19  C   UNL     1      -0.839  15.507  21.856  0.00  0.00    +0.000 A 
ATOM     20  C   UNL     1      -1.499  16.625  22.392  0.00  0.00    +0.000 A 
ATOM     21  C   UNL     1      -2.429  16.494  23.562  0.00  0.00    +0.000 C 
ATOM     22  C   UNL     1      -1.278  17.881  21.822  0.00  0.00    +0.000 A 
ATOM     23  C   UNL     1      -0.423  18.017  20.729  0.00  0.00    +0.000 A 
ATOM     24  C   UNL     1       0.227  16.899  20.203  0.00  0.00    +0.000 A 
BRANCH  24  25
ATOM     25  O   UNL     1       1.090  17.086  19.156  0.00  0.00    +0.000 OA
ATOM     26  H   UNL     1       1.126  16.270  18.631  0.00  0.00    +0.000 HD
ENDBRANCH  24  25
ENDBRANCH   3  18
BRANCH   9  27
ATOM     27  C   UNL     1      -1.521  10.129  18.610  0.00  0.00    +0.000 C 
BRANCH  27  28
ATOM     28  C   UNL     1      -2.524  10.483  17.574  0.00  0.00    +0.000 A 
ATOM     29  C   UNL     1      -3.846  10.878  17.626  0.00  0.00    +0.000 A 
ATOM     30  C   UNL     1      -4.258  11.082  16.285  0.00  0.00    +0.000 A 
ATOM     31  C   UNL     1      -3.157  10.826  15.503  0.00  0.00    +0.000 A 
ATOM     32  O   UNL     1      -2.101  10.468  16.276  0.00  0.00    +0.000 OA
ENDBRANCH  27  28
ENDBRANCH   9  27
TORSDOF 5
ENDMDL
MODEL 6
REMARK VINA RESULT:      -6.3      2.502      4.757
REMARK  Name = 
REMARK  7 active torsions:
REMARK  status: ('A' for Active; 'I' for Inactive)
REMARK    1  A    between atoms: C_1  and  C_2
REMARK    2  A    between atoms: C_5  and  C_6
REMARK    3  A    between atoms: C_8  and  C_9
REMARK    4  A    between atoms: C_11  and  C_12
REMARK    5  A    between atoms: C_15  and  O_16
REMARK    6  A    between atoms: N_22  and  C_23
REMARK    7  A    between atoms: C_23  and  C_24
REMARK                            x       y       z     vdW  Elec       q    Type
REMARK                         _______ _______ _______ _____ _____    ______ ____
ROOT
ATOM      1  C   UNL     1      -2.051  13.705  21.386  0.00  0.00    +0.000 C 
ATOM      2  C   UNL     1      -3.373  13.214  20.924  0.00  0.00    +0.000 A 
ATOM      3  C   UNL     1      -4.026  12.459  19.931  0.00  0.00    +0.000 A 
ATOM      4  N   UNL     1      -5.351  12.383  20.222  0.00  0.00    +0.000 NA
ATOM      5  N   UNL     1      -5.511  13.113  21.353  0.00  0.00    +0.000 N 
ATOM      6  C   UNL     1      -4.345  13.601  21.796  0.00  0.00    +0.000 A 
ATOM      7  C   UNL     1      -3.839  14.331  22.896  0.00  0.00    +0.000 C 
ATOM      8  O   UNL     1      -4.461  14.791  23.835  0.00  0.00    +0.000 OA
ATOM      9  N   UNL     1      -2.463  14.363  22.663  0.00  0.00    +0.000 N 
ATOM     10  H   UNL     1      -6.438  13.199  21.758  0.00  0.00    +0.000 HD
ENDROOT
BRANCH   1  15
ATOM     11  C   UNL     1       1.261   8.939  22.013  0.00  0.00    +0.000 C 
ATOM     12  C   UNL     1       0.455  10.198  21.901  0.00  0.00    +0.000 A 
ATOM     13  C   UNL     1      -0.724  10.362  22.630  0.00  0.00    +0.000 A 
ATOM     14  C   UNL     1      -1.488  11.521  22.479  0.00  0.00    +0.000 A 
ATOM     15  C   UNL     1      -1.106  12.539  21.586  0.00  0.00    +0.000 A 
ATOM     16  C   UNL     1       0.098  12.373  20.883  0.00  0.00    +0.000 A 
ATOM     17  C   UNL     1       0.877  11.225  21.054  0.00  0.00    +0.000 A 
ENDBRANCH   1  15
BRANCH   3  18
ATOM     18  C   UNL     1      -3.462  11.768  18.767  0.00  0.00    +0.000 A 
ATOM     19  C   UNL     1      -2.234  11.088  18.888  0.00  0.00    +0.000 A 
ATOM     20  C   UNL     1      -1.649  10.427  17.796  0.00  0.00    +0.000 A 
ATOM     21  C   UNL     1      -0.335   9.715  17.928  0.00  0.00    +0.000 C 
ATOM     22  C   UNL     1      -2.310  10.436  16.565  0.00  0.00    +0.000 A 
ATOM     23  C   UNL     1      -3.527  11.101  16.424  0.00  0.00    +0.000 A 
ATOM     24  C   UNL     1      -4.099  11.756  17.517  0.00  0.00    +0.000 A 
BRANCH  24  25
ATOM     25  O   UNL     1      -5.315  12.361  17.343  0.00  0.00    +0.000 OA
ATOM     26  H   UNL     1      -5.636  12.670  18.206  0.00  0.00    +0.000 HD
ENDBRANCH  24  25
ENDBRANCH   3  18
BRANCH   9  27
ATOM     27  C   UNL     1      -1.518  14.917  23.611  0.00  0.00    +0.000 C 
BRANCH  27  28
ATOM     28  C   UNL     1      -0.492  15.746  22.930  0.00  0.00    +0.000 A 
ATOM     29  C   UNL     1      -0.522  16.983  22.317  0.00  0.00    +0.000 A 
ATOM     30  C   UNL     1       0.795  17.239  21.861  0.00  0.00    +0.000 A 
ATOM     31  C   UNL     1       1.551  16.157  22.247  0.00  0.00    +0.000 A 
ATOM     32  O   UNL     1       0.780  15.251  22.901  0.00  0.00    +0.000 OA
ENDBRANCH  27  28
ENDBRANCH   9  27
TORSDOF 5
ENDMDL
MODEL 7
REMARK VINA RESULT:      -6.3      2.202      5.777
REMARK  Name = 
REMARK  7 active torsions:
REMARK  status: ('A' for Active; 'I' for Inactive)
REMARK    1  A    between atoms: C_1  and  C_2
REMARK    2  A    between atoms: C_5  and  C_6
REMARK    3  A    between atoms: C_8  and  C_9
REMARK    4  A    between atoms: C_11  and  C_12
REMARK    5  A    between atoms: C_15  and  O_16
REMARK    6  A    between atoms: N_22  and  C_23
REMARK    7  A    between atoms: C_23  and  C_24
REMARK                            x       y       z     vdW  Elec       q    Type
REMARK                         _______ _______ _______ _____ _____    ______ ____
ROOT
ATOM      1  C   UNL     1      -3.172  12.485  22.290  0.00  0.00    +0.000 C 
ATOM      2  C   UNL     1      -1.929  12.620  21.490  0.00  0.00    +0.000 A 
ATOM      3  C   UNL     1      -1.329  12.309  20.255  0.00  0.00    +0.000 A 
ATOM      4  N   UNL     1      -0.089  12.863  20.206  0.00  0.00    +0.000 NA
ATOM      5  N   UNL     1       0.080  13.469  21.407  0.00  0.00    +0.000 N 
ATOM      6  C   UNL     1      -1.009  13.351  22.177  0.00  0.00    +0.000 A 
ATOM      7  C   UNL     1      -1.485  13.796  23.433  0.00  0.00    +0.000 C 
ATOM      8  O   UNL     1      -0.898  14.474  24.254  0.00  0.00    +0.000 OA
ATOM      9  N   UNL     1      -2.789  13.303  23.482  0.00  0.00    +0.000 N 
ATOM     10  H   UNL     1       0.952  13.954  21.596  0.00  0.00    +0.000 HD
ENDROOT
BRANCH   1  15
ATOM     11  C   UNL     1      -7.436  14.687  18.968  0.00  0.00    +0.000 C 
ATOM     12  C   UNL     1      -6.378  14.147  19.881  0.00  0.00    +0.000 A 
ATOM     13  C   UNL     1      -5.201  14.860  20.117  0.00  0.00    +0.000 A 
ATOM     14  C   UNL     1      -4.205  14.321  20.933  0.00  0.00    +0.000 A 
ATOM     15  C   UNL     1      -4.348  13.052  21.523  0.00  0.00    +0.000 A 
ATOM     16  C   UNL     1      -5.549  12.360  21.301  0.00  0.00    +0.000 A 
ATOM     17  C   UNL     1      -6.558  12.910  20.506  0.00  0.00    +0.000 A 
ENDBRANCH   1  15
BRANCH   3  18
ATOM     18  C   UNL     1      -1.879  11.572  19.113  0.00  0.00    +0.000 A 
ATOM     19  C   UNL     1      -3.156  11.904  18.620  0.00  0.00    +0.000 A 
ATOM     20  C   UNL     1      -3.729  11.214  17.539  0.00  0.00    +0.000 A 
ATOM     21  C   UNL     1      -5.094  11.564  17.026  0.00  0.00    +0.000 C 
ATOM     22  C   UNL     1      -3.006  10.183  16.933  0.00  0.00    +0.000 A 
ATOM     23  C   UNL     1      -1.739   9.840  17.405  0.00  0.00    +0.000 A 
ATOM     24  C   UNL     1      -1.181  10.532  18.481  0.00  0.00    +0.000 A 
BRANCH  24  25
ATOM     25  O   UNL     1       0.083  10.189  18.884  0.00  0.00    +0.000 OA
ATOM     26  H   UNL     1       0.017   9.594  19.648  0.00  0.00    +0.000 HD
ENDBRANCH  24  25
ENDBRANCH   3  18
BRANCH   9  27
ATOM     27  C   UNL     1      -3.709  13.619  24.556  0.00  0.00    +0.000 C 
BRANCH  27  28
ATOM     28  C   UNL     1      -4.454  14.873  24.277  0.00  0.00    +0.000 A 
ATOM     29  C   UNL     1      -4.086  16.202  24.206  0.00  0.00    +0.000 A 
ATOM     30  C   UNL     1      -5.261  16.929  23.889  0.00  0.00    +0.000 A 
ATOM     31  C   UNL     1      -6.264  15.997  23.760  0.00  0.00    +0.000 A 
ATOM     32  O   UNL     1      -5.782  14.749  23.987  0.00  0.00    +0.000 OA
ENDBRANCH  27  28
ENDBRANCH   9  27
TORSDOF 5
ENDMDL
MODEL 8
REMARK VINA RESULT:      -6.3      0.555      1.141
REMARK  Name = 
REMARK  7 active torsions:
REMARK  status: ('A' for Active; 'I' for Inactive)
REMARK    1  A    between atoms: C_1  and  C_2
REMARK    2  A    between atoms: C_5  and  C_6
REMARK    3  A    between atoms: C_8  and  C_9
REMARK    4  A    between atoms: C_11  and  C_12
REMARK    5  A    between atoms: C_15  and  O_16
REMARK    6  A    between atoms: N_22  and  C_23
REMARK    7  A    between atoms: C_23  and  C_24
REMARK                            x       y       z     vdW  Elec       q    Type
REMARK                         _______ _______ _______ _____ _____    ______ ____
ROOT
ATOM      1  C   UNL     1      -1.282  12.454  20.479  0.00  0.00    +0.000 C 
ATOM      2  C   UNL     1      -2.430  12.426  21.420  0.00  0.00    +0.000 A 
ATOM      3  C   UNL     1      -3.787  12.769  21.573  0.00  0.00    +0.000 A 
ATOM      4  N   UNL     1      -4.223  12.341  22.786  0.00  0.00    +0.000 NA
ATOM      5  N   UNL     1      -3.141  11.781  23.381  0.00  0.00    +0.000 N 
ATOM      6  C   UNL     1      -2.069  11.807  22.577  0.00  0.00    +0.000 A 
ATOM      7  C   UNL     1      -0.732  11.345  22.562  0.00  0.00    +0.000 C 
ATOM      8  O   UNL     1      -0.140  10.749  23.441  0.00  0.00    +0.000 OA
ATOM      9  N   UNL     1      -0.275  11.706  21.294  0.00  0.00    +0.000 N 
ATOM     10  H   UNL     1      -3.236  11.391  24.313  0.00  0.00    +0.000 HD
ENDROOT
BRANCH   1  15
ATOM     11  C   UNL     1      -3.127   9.715  15.666  0.00  0.00    +0.000 C 
ATOM     12  C   UNL     1      -2.583  10.398  16.884  0.00  0.00    +0.000 A 
ATOM     13  C   UNL     1      -2.606   9.769  18.130  0.00  0.00    +0.000 A 
ATOM     14  C   UNL     1      -2.139  10.437  19.263  0.00  0.00    +0.000 A 
ATOM     15  C   UNL     1      -1.652  11.755  19.188  0.00  0.00    +0.000 A 
ATOM     16  C   UNL     1      -1.607  12.363  17.924  0.00  0.00    +0.000 A 
ATOM     17  C   UNL     1      -2.049  11.686  16.784  0.00  0.00    +0.000 A 
ENDBRANCH   1  15
BRANCH   3  18
ATOM     18  C   UNL     1      -4.694  13.420  20.624  0.00  0.00    +0.000 A 
ATOM     19  C   UNL     1      -5.129  12.719  19.482  0.00  0.00    +0.000 A 
ATOM     20  C   UNL     1      -5.985  13.310  18.538  0.00  0.00    +0.000 A 
ATOM     21  C   UNL     1      -6.435  12.562  17.318  0.00  0.00    +0.000 C 
ATOM     22  C   UNL     1      -6.423  14.620  18.747  0.00  0.00    +0.000 A 
ATOM     23  C   UNL     1      -6.006  15.331  19.872  0.00  0.00    +0.000 A 
ATOM     24  C   UNL     1      -5.155  14.734  20.803  0.00  0.00    +0.000 A 
BRANCH  24  25
ATOM     25  O   UNL     1      -4.804  15.455  21.913  0.00  0.00    +0.000 OA
ATOM     26  H   UNL     1      -3.932  15.854  21.764  0.00  0.00    +0.000 HD
ENDBRANCH  24  25
ENDBRANCH   3  18
BRANCH   9  27
ATOM     27  C   UNL     1       1.027  11.324  20.789  0.00  0.00    +0.000 C 
BRANCH  27  28
ATOM     28  C   UNL     1       1.678  12.446  20.067  0.00  0.00    +0.000 A 
ATOM     29  C   UNL     1       2.158  13.680  20.461  0.00  0.00    +0.000 A 
ATOM     30  C   UNL     1       2.681  14.299  19.298  0.00  0.00    +0.000 A 
ATOM     31  C   UNL     1       2.514  13.395  18.276  0.00  0.00    +0.000 A 
ATOM     32  O   UNL     1       1.913  12.268  18.734  0.00  0.00    +0.000 OA
ENDBRANCH  27  28
ENDBRANCH   9  27
TORSDOF 5
ENDMDL
MODEL 9
REMARK VINA RESULT:      -6.3      2.414      6.548
REMARK  Name = 
REMARK  7 active torsions:
REMARK  status: ('A' for Active; 'I' for Inactive)
REMARK    1  A    between atoms: C_1  and  C_2
REMARK    2  A    between atoms: C_5  and  C_6
REMARK    3  A    between atoms: C_8  and  C_9
REMARK    4  A    between atoms: C_11  and  C_12
REMARK    5  A    between atoms: C_15  and  O_16
REMARK    6  A    between atoms: N_22  and  C_23
REMARK    7  A    between atoms: C_23  and  C_24
REMARK                            x       y       z     vdW  Elec       q    Type
REMARK                         _______ _______ _______ _____ _____    ______ ____
ROOT
ATOM      1  C   UNL     1      -1.747  11.506  20.171  0.00  0.00    +0.000 C 
ATOM      2  C   UNL     1      -0.309  11.859  20.274  0.00  0.00    +0.000 A 
ATOM      3  C   UNL     1       0.999  11.391  20.044  0.00  0.00    +0.000 A 
ATOM      4  N   UNL     1       1.887  12.375  20.343  0.00  0.00    +0.000 NA
ATOM      5  N   UNL     1       1.136  13.414  20.786  0.00  0.00    +0.000 N 
ATOM      6  C   UNL     1      -0.173  13.132  20.737  0.00  0.00    +0.000 A 
ATOM      7  C   UNL     1      -1.414  13.770  20.967  0.00  0.00    +0.000 C 
ATOM      8  O   UNL     1      -1.607  14.903  21.364  0.00  0.00    +0.000 OA
ATOM      9  N   UNL     1      -2.352  12.805  20.598  0.00  0.00    +0.000 N 
ATOM     10  H   UNL     1       1.598  14.270  21.073  0.00  0.00    +0.000 HD
ENDROOT
BRANCH   1  15
ATOM     11  C   UNL     1      -3.491  10.012  14.805  0.00  0.00    +0.000 C 
ATOM     12  C   UNL     1      -2.975  10.368  16.167  0.00  0.00    +0.000 A 
ATOM     13  C   UNL     1      -3.200   9.532  17.261  0.00  0.00    +0.000 A 
ATOM     14  C   UNL     1      -2.754   9.902  18.531  0.00  0.00    +0.000 A 
ATOM     15  C   UNL     1      -2.086  11.121  18.747  0.00  0.00    +0.000 A 
ATOM     16  C   UNL     1      -1.841  11.937  17.632  0.00  0.00    +0.000 A 
ATOM     17  C   UNL     1      -2.263  11.556  16.355  0.00  0.00    +0.000 A 
ENDBRANCH   1  15
BRANCH   3  18
ATOM     18  C   UNL     1       1.445  10.100  19.510  0.00  0.00    +0.000 A 
ATOM     19  C   UNL     1       1.309   8.938  20.294  0.00  0.00    +0.000 A 
ATOM     20  C   UNL     1       1.738   7.684  19.829  0.00  0.00    +0.000 A 
ATOM     21  C   UNL     1       1.601   6.451  20.673  0.00  0.00    +0.000 C 
ATOM     22  C   UNL     1       2.300   7.590  18.553  0.00  0.00    +0.000 A 
ATOM     23  C   UNL     1       2.442   8.728  17.761  0.00  0.00    +0.000 A 
ATOM     24  C   UNL     1       2.013   9.970  18.234  0.00  0.00    +0.000 A 
BRANCH  24  25
ATOM     25  O   UNL     1       2.134  11.054  17.405  0.00  0.00    +0.000 OA
ATOM     26  H   UNL     1       2.881  10.905  16.802  0.00  0.00    +0.000 HD
ENDBRANCH  24  25
ENDBRANCH   3  18
BRANCH   9  27
ATOM     27  C   UNL     1      -3.776  13.068  20.559  0.00  0.00    +0.000 C 
BRANCH  27  28
ATOM     28  C   UNL     1      -4.384  12.954  21.909  0.00  0.00    +0.000 A 
ATOM     29  C   UNL     1      -3.869  12.703  23.165  0.00  0.00    +0.000 A 
ATOM     30  C   UNL     1      -4.966  12.732  24.063  0.00  0.00    +0.000 A 
ATOM     31  C   UNL     1      -6.074  13.024  23.304  0.00  0.00    +0.000 A 
ATOM     32  O   UNL     1      -5.729  13.166  21.999  0.00  0.00    +0.000 OA
ENDBRANCH  27  28
ENDBRANCH   9  27
TORSDOF 5
ENDMDL
