MODEL 1
REMARK VINA RESULT:      -8.0      0.000      0.000
REMARK  Name = 
REMARK  7 active torsions:
REMARK  status: ('A' for Active; 'I' for Inactive)
REMARK    1  A    between atoms: C_1  and  O_2
REMARK    2  A    between atoms: O_2  and  C_3
REMARK    3  A    between atoms: C_7  and  O_8
REMARK    4  A    between atoms: O_8  and  C_9
REMARK    5  A    between atoms: C_11  and  C_12
REMARK    6  A    between atoms: C_12  and  C_13
REMARK    7  A    between atoms: C_16  and  C_17
REMARK                            x       y       z     vdW  Elec       q    Type
REMARK                         _______ _______ _______ _____ _____    ______ ____
ROOT
ATOM      1  C   UNL     1      -4.580  11.913  18.766  0.00  0.00    +0.000 A 
ATOM      2  C   UNL     1      -3.951  12.460  19.873  0.00  0.00    +0.000 A 
ATOM      3  C   UNL     1      -2.557  12.439  19.969  0.00  0.00    +0.000 A 
ATOM      4  C   UNL     1      -1.748  11.831  18.965  0.00  0.00    +0.000 A 
ATOM      5  C   UNL     1      -2.391  11.268  17.853  0.00  0.00    +0.000 A 
ATOM      6  C   UNL     1      -3.799  11.331  17.770  0.00  0.00    +0.000 A 
ATOM      7  C   UNL     1      -0.259  11.793  19.283  0.00  0.00    +0.000 C 
ATOM      8  N   UNL     1       0.252  13.085  19.798  0.00  0.00    +0.000 NA
ATOM      9  C   UNL     1      -0.630  13.798  20.725  0.00  0.00    +0.000 C 
ATOM     10  C   UNL     1      -1.883  13.052  21.172  0.00  0.00    +0.000 C 
ATOM     11  H   UNL     1       0.425  13.695  18.998  0.00  0.00    +0.000 HD
ENDROOT
BRANCH   1  13
ATOM     12  C   UNL     1      -6.565  12.337  17.538  0.00  0.00    +0.000 C 
ATOM     13  O   UNL     1      -5.945  12.003  18.773  0.00  0.00    +0.000 OA
ENDBRANCH   1  13
BRANCH   5  14
ATOM     14  O   UNL     1      -1.903  10.608  16.760  0.00  0.00    +0.000 OA
ATOM     15  C   UNL     1      -2.700  10.259  15.649  0.00  0.00    +0.000 C 
ENDBRANCH   5  14
BRANCH   7  16
ATOM     16  C   UNL     1       0.056  10.577  20.197  0.00  0.00    +0.000 C 
BRANCH  16  17
ATOM     17  C   UNL     1       0.927   9.526  19.558  0.00  0.00    +0.000 A 
ATOM     18  C   UNL     1       1.344   8.413  20.295  0.00  0.00    +0.000 A 
ATOM     19  C   UNL     1       2.155   7.434  19.716  0.00  0.00    +0.000 A 
ATOM     20  C   UNL     1       2.563   7.522  18.373  0.00  0.00    +0.000 A 
ATOM     21  C   UNL     1       2.134   8.649  17.646  0.00  0.00    +0.000 A 
ATOM     22  C   UNL     1       1.339   9.642  18.229  0.00  0.00    +0.000 A 
BRANCH  20  23
ATOM     23  C   UNL     1       3.410   6.476  17.754  0.00  0.00    +0.000 A 
ATOM     24  C   UNL     1       3.126   5.107  17.918  0.00  0.00    +0.000 A 
ATOM     25  C   UNL     1       3.932   4.117  17.345  0.00  0.00    +0.000 A 
ATOM     26  C   UNL     1       5.034   4.474  16.579  0.00  0.00    +0.000 A 
ATOM     27  C   UNL     1       5.336   5.819  16.389  0.00  0.00    +0.000 A 
ATOM     28  C   UNL     1       4.536   6.805  16.977  0.00  0.00    +0.000 A 
ENDBRANCH  20  23
ENDBRANCH  16  17
ENDBRANCH   7  16
TORSDOF 5
ENDMDL
MODEL 2
REMARK VINA RESULT:      -7.9      0.537      1.091
REMARK  Name = 
REMARK  7 active torsions:
REMARK  status: ('A' for Active; 'I' for Inactive)
REMARK    1  A    between atoms: C_1  and  O_2
REMARK    2  A    between atoms: O_2  and  C_3
REMARK    3  A    between atoms: C_7  and  O_8
REMARK    4  A    between atoms: O_8  and  C_9
REMARK    5  A    between atoms: C_11  and  C_12
REMARK    6  A    between atoms: C_12  and  C_13
REMARK    7  A    between atoms: C_16  and  C_17
REMARK                            x       y       z     vdW  Elec       q    Type
REMARK                         _______ _______ _______ _____ _____    ______ ____
ROOT
ATOM      1  C   UNL     1      -4.563  11.915  18.913  0.00  0.00    +0.000 A 
ATOM      2  C   UNL     1      -3.911  12.547  19.961  0.00  0.00    +0.000 A 
ATOM      3  C   UNL     1      -2.514  12.549  20.018  0.00  0.00    +0.000 A 
ATOM      4  C   UNL     1      -1.725  11.881  19.037  0.00  0.00    +0.000 A 
ATOM      5  C   UNL     1      -2.391  11.232  17.986  0.00  0.00    +0.000 A 
ATOM      6  C   UNL     1      -3.801  11.274  17.939  0.00  0.00    +0.000 A 
ATOM      7  C   UNL     1      -0.228  11.883  19.315  0.00  0.00    +0.000 C 
ATOM      8  N   UNL     1       0.279  13.214  19.722  0.00  0.00    +0.000 NA
ATOM      9  C   UNL     1      -0.587  13.981  20.621  0.00  0.00    +0.000 C 
ATOM     10  C   UNL     1      -1.817  13.254  21.155  0.00  0.00    +0.000 C 
ATOM     11  H   UNL     1       0.422  13.768  18.876  0.00  0.00    +0.000 HD
ENDROOT
BRANCH   1  13
ATOM     12  C   UNL     1      -6.523  12.039  20.243  0.00  0.00    +0.000 C 
ATOM     13  O   UNL     1      -5.928  11.989  18.953  0.00  0.00    +0.000 OA
ENDBRANCH   1  13
BRANCH   5  14
ATOM     14  O   UNL     1      -1.924  10.503  16.930  0.00  0.00    +0.000 OA
ATOM     15  C   UNL     1      -2.752  10.040  15.884  0.00  0.00    +0.000 C 
ENDBRANCH   5  14
BRANCH   7  16
ATOM     16  C   UNL     1       0.129  10.739  20.303  0.00  0.00    +0.000 C 
BRANCH  16  17
ATOM     17  C   UNL     1       0.912   9.606  19.689  0.00  0.00    +0.000 A 
ATOM     18  C   UNL     1       1.224   9.623  18.327  0.00  0.00    +0.000 A 
ATOM     19  C   UNL     1       1.945   8.577  17.745  0.00  0.00    +0.000 A 
ATOM     20  C   UNL     1       2.398   7.487  18.509  0.00  0.00    +0.000 A 
ATOM     21  C   UNL     1       2.074   7.487  19.880  0.00  0.00    +0.000 A 
ATOM     22  C   UNL     1       1.334   8.522  20.461  0.00  0.00    +0.000 A 
BRANCH  20  23
ATOM     23  C   UNL     1       3.177   6.386  17.896  0.00  0.00    +0.000 A 
ATOM     24  C   UNL     1       2.706   5.059  17.901  0.00  0.00    +0.000 A 
ATOM     25  C   UNL     1       3.446   4.016  17.334  0.00  0.00    +0.000 A 
ATOM     26  C   UNL     1       4.671   4.278  16.733  0.00  0.00    +0.000 A 
ATOM     27  C   UNL     1       5.159   5.580  16.702  0.00  0.00    +0.000 A 
ATOM     28  C   UNL     1       4.423   6.618  17.284  0.00  0.00    +0.000 A 
ENDBRANCH  20  23
ENDBRANCH  16  17
ENDBRANCH   7  16
TORSDOF 5
ENDMDL
MODEL 3
REMARK VINA RESULT:      -7.8      0.963      1.387
REMARK  Name = 
REMARK  7 active torsions:
REMARK  status: ('A' for Active; 'I' for Inactive)
REMARK    1  A    between atoms: C_1  and  O_2
REMARK    2  A    between atoms: O_2  and  C_3
REMARK    3  A    between atoms: C_7  and  O_8
REMARK    4  A    between atoms: O_8  and  C_9
REMARK    5  A    between atoms: C_11  and  C_12
REMARK    6  A    between atoms: C_12  and  C_13
REMARK    7  A    between atoms: C_16  and  C_17
REMARK                            x       y       z     vdW  Elec       q    Type
REMARK                         _______ _______ _______ _____ _____    ______ ____
ROOT
ATOM      1  C   UNL     1      -4.106  12.512  19.818  0.00  0.00    +0.000 A 
ATOM      2  C   UNL     1      -3.324  12.786  20.929  0.00  0.00    +0.000 A 
ATOM      3  C   UNL     1      -1.952  12.516  20.905  0.00  0.00    +0.000 A 
ATOM      4  C   UNL     1      -1.327  11.924  19.770  0.00  0.00    +0.000 A 
ATOM      5  C   UNL     1      -2.126  11.636  18.653  0.00  0.00    +0.000 A 
ATOM      6  C   UNL     1      -3.502  11.949  18.696  0.00  0.00    +0.000 A 
ATOM      7  C   UNL     1       0.147  11.590  19.956  0.00  0.00    +0.000 C 
ATOM      8  N   UNL     1       0.911  12.693  20.584  0.00  0.00    +0.000 NA
ATOM      9  C   UNL     1       0.228  13.410  21.663  0.00  0.00    +0.000 C 
ATOM     10  C   UNL     1      -1.110  12.834  22.116  0.00  0.00    +0.000 C 
ATOM     11  H   UNL     1       1.143  13.369  19.855  0.00  0.00    +0.000 HD
ENDROOT
BRANCH   1  13
ATOM     12  C   UNL     1      -6.240  11.894  20.647  0.00  0.00    +0.000 C 
ATOM     13  O   UNL     1      -5.429  12.830  19.950  0.00  0.00    +0.000 OA
ENDBRANCH   1  13
BRANCH   5  14
ATOM     14  O   UNL     1      -1.830  11.060  17.450  0.00  0.00    +0.000 OA
ATOM     15  C   UNL     1      -2.748  10.993  16.379  0.00  0.00    +0.000 C 
ENDBRANCH   5  14
BRANCH   7  16
ATOM     16  C   UNL     1       0.293  10.224  20.681  0.00  0.00    +0.000 C 
BRANCH  16  17
ATOM     17  C   UNL     1       1.092   9.196  19.921  0.00  0.00    +0.000 A 
ATOM     18  C   UNL     1       1.537   8.036  20.561  0.00  0.00    +0.000 A 
ATOM     19  C   UNL     1       2.282   7.077  19.869  0.00  0.00    +0.000 A 
ATOM     20  C   UNL     1       2.592   7.236  18.507  0.00  0.00    +0.000 A 
ATOM     21  C   UNL     1       2.136   8.410  17.879  0.00  0.00    +0.000 A 
ATOM     22  C   UNL     1       1.408   9.382  18.574  0.00  0.00    +0.000 A 
BRANCH  20  23
ATOM     23  C   UNL     1       3.369   6.212  17.769  0.00  0.00    +0.000 A 
ATOM     24  C   UNL     1       4.473   6.562  16.968  0.00  0.00    +0.000 A 
ATOM     25  C   UNL     1       5.199   5.598  16.260  0.00  0.00    +0.000 A 
ATOM     26  C   UNL     1       4.847   4.257  16.348  0.00  0.00    +0.000 A 
ATOM     27  C   UNL     1       3.768   3.878  17.139  0.00  0.00    +0.000 A 
ATOM     28  C   UNL     1       3.034   4.846  17.834  0.00  0.00    +0.000 A 
ENDBRANCH  20  23
ENDBRANCH  16  17
ENDBRANCH   7  16
TORSDOF 5
ENDMDL
MODEL 4
REMARK VINA RESULT:      -7.5      2.790      4.040
REMARK  Name = 
REMARK  7 active torsions:
REMARK  status: ('A' for Active; 'I' for Inactive)
REMARK    1  A    between atoms: C_1  and  O_2
REMARK    2  A    between atoms: O_2  and  C_3
REMARK    3  A    between atoms: C_7  and  O_8
REMARK    4  A    between atoms: O_8  and  C_9
REMARK    5  A    between atoms: C_11  and  C_12
REMARK    6  A    between atoms: C_12  and  C_13
REMARK    7  A    between atoms: C_16  and  C_17
REMARK                            x       y       z     vdW  Elec       q    Type
REMARK                         _______ _______ _______ _____ _____    ______ ____
ROOT
ATOM      1  C   UNL     1      -0.987  13.695  22.470  0.00  0.00    +0.000 A 
ATOM      2  C   UNL     1      -0.783  13.917  21.117  0.00  0.00    +0.000 A 
ATOM      3  C   UNL     1      -0.658  12.835  20.240  0.00  0.00    +0.000 A 
ATOM      4  C   UNL     1      -0.698  11.489  20.704  0.00  0.00    +0.000 A 
ATOM      5  C   UNL     1      -0.892  11.270  22.076  0.00  0.00    +0.000 A 
ATOM      6  C   UNL     1      -1.045  12.382  22.932  0.00  0.00    +0.000 A 
ATOM      7  C   UNL     1      -0.430  10.438  19.634  0.00  0.00    +0.000 C 
ATOM      8  N   UNL     1      -1.180  10.689  18.381  0.00  0.00    +0.000 NA
ATOM      9  C   UNL     1      -1.272  12.088  17.961  0.00  0.00    +0.000 C 
ATOM     10  C   UNL     1      -0.453  13.091  18.767  0.00  0.00    +0.000 C 
ATOM     11  H   UNL     1      -2.129  10.336  18.509  0.00  0.00    +0.000 HD
ENDROOT
BRANCH   1  13
ATOM     12  C   UNL     1      -1.766  14.680  24.482  0.00  0.00    +0.000 C 
ATOM     13  O   UNL     1      -1.108  14.825  23.230  0.00  0.00    +0.000 OA
ENDBRANCH   1  13
BRANCH   5  14
ATOM     14  O   UNL     1      -0.952  10.121  22.812  0.00  0.00    +0.000 OA
ATOM     15  C   UNL     1       0.187   9.500  23.369  0.00  0.00    +0.000 C 
ENDBRANCH   5  14
BRANCH   7  16
ATOM     16  C   UNL     1       1.101  10.267  19.434  0.00  0.00    +0.000 C 
BRANCH  16  17
ATOM     17  C   UNL     1       1.548   8.842  19.230  0.00  0.00    +0.000 A 
ATOM     18  C   UNL     1       1.597   7.957  20.311  0.00  0.00    +0.000 A 
ATOM     19  C   UNL     1       2.014   6.635  20.135  0.00  0.00    +0.000 A 
ATOM     20  C   UNL     1       2.378   6.145  18.869  0.00  0.00    +0.000 A 
ATOM     21  C   UNL     1       2.323   7.050  17.792  0.00  0.00    +0.000 A 
ATOM     22  C   UNL     1       1.926   8.380  17.968  0.00  0.00    +0.000 A 
BRANCH  20  23
ATOM     23  C   UNL     1       2.805   4.738  18.680  0.00  0.00    +0.000 A 
ATOM     24  C   UNL     1       3.853   4.179  19.436  0.00  0.00    +0.000 A 
ATOM     25  C   UNL     1       4.265   2.856  19.250  0.00  0.00    +0.000 A 
ATOM     26  C   UNL     1       3.628   2.052  18.313  0.00  0.00    +0.000 A 
ATOM     27  C   UNL     1       2.582   2.572  17.557  0.00  0.00    +0.000 A 
ATOM     28  C   UNL     1       2.183   3.901  17.735  0.00  0.00    +0.000 A 
ENDBRANCH  20  23
ENDBRANCH  16  17
ENDBRANCH   7  16
TORSDOF 5
ENDMDL
MODEL 5
REMARK VINA RESULT:      -7.4      2.521      3.883
REMARK  Name = 
REMARK  7 active torsions:
REMARK  status: ('A' for Active; 'I' for Inactive)
REMARK    1  A    between atoms: C_1  and  O_2
REMARK    2  A    between atoms: O_2  and  C_3
REMARK    3  A    between atoms: C_7  and  O_8
REMARK    4  A    between atoms: O_8  and  C_9
REMARK    5  A    between atoms: C_11  and  C_12
REMARK    6  A    between atoms: C_12  and  C_13
REMARK    7  A    between atoms: C_16  and  C_17
REMARK                            x       y       z     vdW  Elec       q    Type
REMARK                         _______ _______ _______ _____ _____    ______ ____
ROOT
ATOM      1  C   UNL     1      -1.740  14.051  22.541  0.00  0.00    +0.000 A 
ATOM      2  C   UNL     1      -1.524  14.161  21.176  0.00  0.00    +0.000 A 
ATOM      3  C   UNL     1      -1.244  13.021  20.416  0.00  0.00    +0.000 A 
ATOM      4  C   UNL     1      -1.137  11.732  21.014  0.00  0.00    +0.000 A 
ATOM      5  C   UNL     1      -1.343  11.629  22.398  0.00  0.00    +0.000 A 
ATOM      6  C   UNL     1      -1.654  12.793  23.133  0.00  0.00    +0.000 A 
ATOM      7  C   UNL     1      -0.712  10.622  20.062  0.00  0.00    +0.000 C 
ATOM      8  N   UNL     1      -1.449  10.654  18.778  0.00  0.00    +0.000 NA
ATOM      9  C   UNL     1      -1.696  11.982  18.215  0.00  0.00    +0.000 C 
ATOM     10  C   UNL     1      -1.027  13.153  18.929  0.00  0.00    +0.000 C 
ATOM     11  H   UNL     1      -2.352  10.201  18.923  0.00  0.00    +0.000 HD
ENDROOT
BRANCH   1  13
ATOM     12  C   UNL     1      -1.246  15.521  24.335  0.00  0.00    +0.000 C 
ATOM     13  O   UNL     1      -2.019  15.228  23.179  0.00  0.00    +0.000 OA
ENDBRANCH   1  13
BRANCH   5  14
ATOM     14  O   UNL     1      -1.287  10.560  23.246  0.00  0.00    +0.000 OA
ATOM     15  C   UNL     1      -0.148   9.736  23.377  0.00  0.00    +0.000 C 
ENDBRANCH   5  14
BRANCH   7  16
ATOM     16  C   UNL     1       0.834  10.620  19.908  0.00  0.00    +0.000 C 
BRANCH  16  17
ATOM     17  C   UNL     1       1.411   9.314  19.426  0.00  0.00    +0.000 A 
ATOM     18  C   UNL     1       1.772   9.156  18.084  0.00  0.00    +0.000 A 
ATOM     19  C   UNL     1       2.304   7.949  17.624  0.00  0.00    +0.000 A 
ATOM     20  C   UNL     1       2.513   6.863  18.492  0.00  0.00    +0.000 A 
ATOM     21  C   UNL     1       2.145   7.040  19.839  0.00  0.00    +0.000 A 
ATOM     22  C   UNL     1       1.592   8.240  20.299  0.00  0.00    +0.000 A 
BRANCH  20  23
ATOM     23  C   UNL     1       3.093   5.588  18.007  0.00  0.00    +0.000 A 
ATOM     24  C   UNL     1       2.285   4.465  17.747  0.00  0.00    +0.000 A 
ATOM     25  C   UNL     1       2.832   3.257  17.301  0.00  0.00    +0.000 A 
ATOM     26  C   UNL     1       4.201   3.148  17.089  0.00  0.00    +0.000 A 
ATOM     27  C   UNL     1       5.024   4.243  17.327  0.00  0.00    +0.000 A 
ATOM     28  C   UNL     1       4.476   5.445  17.787  0.00  0.00    +0.000 A 
ENDBRANCH  20  23
ENDBRANCH  16  17
ENDBRANCH   7  16
TORSDOF 5
ENDMDL
MODEL 6
REMARK VINA RESULT:      -7.4      1.218      1.686
REMARK  Name = 
REMARK  7 active torsions:
REMARK  status: ('A' for Active; 'I' for Inactive)
REMARK    1  A    between atoms: C_1  and  O_2
REMARK    2  A    between atoms: O_2  and  C_3
REMARK    3  A    between atoms: C_7  and  O_8
REMARK    4  A    between atoms: O_8  and  C_9
REMARK    5  A    between atoms: C_11  and  C_12
REMARK    6  A    between atoms: C_12  and  C_13
REMARK    7  A    between atoms: C_16  and  C_17
REMARK                            x       y       z     vdW  Elec       q    Type
REMARK                         _______ _______ _______ _____ _____    ______ ____
ROOT
ATOM      1  C   UNL     1      -3.723  12.894  20.506  0.00  0.00    +0.000 A 
ATOM      2  C   UNL     1      -2.686  13.157  21.386  0.00  0.00    +0.000 A 
ATOM      3  C   UNL     1      -1.389  12.728  21.090  0.00  0.00    +0.000 A 
ATOM      4  C   UNL     1      -1.099  11.985  19.909  0.00  0.00    +0.000 A 
ATOM      5  C   UNL     1      -2.155  11.711  19.027  0.00  0.00    +0.000 A 
ATOM      6  C   UNL     1      -3.448  12.184  19.339  0.00  0.00    +0.000 A 
ATOM      7  C   UNL     1       0.340  11.497  19.800  0.00  0.00    +0.000 C 
ATOM      8  N   UNL     1       1.330  12.547  20.135  0.00  0.00    +0.000 NA
ATOM      9  C   UNL     1       0.984  13.416  21.261  0.00  0.00    +0.000 C 
ATOM     10  C   UNL     1      -0.265  13.034  22.050  0.00  0.00    +0.000 C 
ATOM     11  H   UNL     1       1.453  13.136  19.310  0.00  0.00    +0.000 HD
ENDROOT
BRANCH   1  13
ATOM     12  C   UNL     1      -5.683  14.092  19.911  0.00  0.00    +0.000 C 
ATOM     13  O   UNL     1      -4.944  13.373  20.892  0.00  0.00    +0.000 OA
ENDBRANCH   1  13
BRANCH   5  14
ATOM     14  O   UNL     1      -2.199  11.018  17.851  0.00  0.00    +0.000 OA
ATOM     15  C   UNL     1      -2.875   9.787  17.704  0.00  0.00    +0.000 C 
ENDBRANCH   5  14
BRANCH   7  16
ATOM     16  C   UNL     1       0.514  10.180  20.605  0.00  0.00    +0.000 C 
BRANCH  16  17
ATOM     17  C   UNL     1       1.249   9.090  19.868  0.00  0.00    +0.000 A 
ATOM     18  C   UNL     1       1.523   9.224  18.504  0.00  0.00    +0.000 A 
ATOM     19  C   UNL     1       2.200   8.218  17.808  0.00  0.00    +0.000 A 
ATOM     20  C   UNL     1       2.645   7.053  18.457  0.00  0.00    +0.000 A 
ATOM     21  C   UNL     1       2.361   6.936  19.831  0.00  0.00    +0.000 A 
ATOM     22  C   UNL     1       1.665   7.931  20.526  0.00  0.00    +0.000 A 
BRANCH  20  23
ATOM     23  C   UNL     1       3.378   5.994  17.723  0.00  0.00    +0.000 A 
ATOM     24  C   UNL     1       2.952   4.653  17.747  0.00  0.00    +0.000 A 
ATOM     25  C   UNL     1       3.650   3.650  17.065  0.00  0.00    +0.000 A 
ATOM     26  C   UNL     1       4.784   3.968  16.328  0.00  0.00    +0.000 A 
ATOM     27  C   UNL     1       5.224   5.286  16.276  0.00  0.00    +0.000 A 
ATOM     28  C   UNL     1       4.533   6.284  16.971  0.00  0.00    +0.000 A 
ENDBRANCH  20  23
ENDBRANCH  16  17
ENDBRANCH   7  16
TORSDOF 5
ENDMDL
MODEL 7
REMARK VINA RESULT:      -7.4      3.009      3.736
REMARK  Name = 
REMARK  7 active torsions:
REMARK  status: ('A' for Active; 'I' for Inactive)
REMARK    1  A    between atoms: C_1  and  O_2
REMARK    2  A    between atoms: O_2  and  C_3
REMARK    3  A    between atoms: C_7  and  O_8
REMARK    4  A    between atoms: O_8  and  C_9
REMARK    5  A    between atoms: C_11  and  C_12
REMARK    6  A    between atoms: C_12  and  C_13
REMARK    7  A    between atoms: C_16  and  C_17
REMARK                            x       y       z     vdW  Elec       q    Type
REMARK                         _______ _______ _______ _____ _____    ______ ____
ROOT
ATOM      1  C   UNL     1      -2.548  12.971  23.014  0.00  0.00    +0.000 A 
ATOM      2  C   UNL     1      -2.257  11.657  23.347  0.00  0.00    +0.000 A 
ATOM      3  C   UNL     1      -1.154  11.016  22.774  0.00  0.00    +0.000 A 
ATOM      4  C   UNL     1      -0.327  11.668  21.814  0.00  0.00    +0.000 A 
ATOM      5  C   UNL     1      -0.634  12.993  21.471  0.00  0.00    +0.000 A 
ATOM      6  C   UNL     1      -1.735  13.623  22.089  0.00  0.00    +0.000 A 
ATOM      7  C   UNL     1       0.757  10.787  21.205  0.00  0.00    +0.000 C 
ATOM      8  N   UNL     1       1.486   9.990  22.218  0.00  0.00    +0.000 NA
ATOM      9  C   UNL     1       0.671   9.427  23.297  0.00  0.00    +0.000 C 
ATOM     10  C   UNL     1      -0.839   9.591  23.157  0.00  0.00    +0.000 C 
ATOM     11  H   UNL     1       2.194  10.592  22.641  0.00  0.00    +0.000 HD
ENDROOT
BRANCH   1  13
ATOM     12  C   UNL     1      -4.358  12.625  24.506  0.00  0.00    +0.000 C 
ATOM     13  O   UNL     1      -3.639  13.499  23.646  0.00  0.00    +0.000 OA
ENDBRANCH   1  13
BRANCH   5  14
ATOM     14  O   UNL     1      -0.055  13.858  20.586  0.00  0.00    +0.000 OA
ATOM     15  C   UNL     1       1.185  14.490  20.821  0.00  0.00    +0.000 C 
ENDBRANCH   5  14
BRANCH   7  16
ATOM     16  C   UNL     1       0.163   9.946  20.042  0.00  0.00    +0.000 C 
BRANCH  16  17
ATOM     17  C   UNL     1       1.136   8.987  19.406  0.00  0.00    +0.000 A 
ATOM     18  C   UNL     1       1.656   9.250  18.135  0.00  0.00    +0.000 A 
ATOM     19  C   UNL     1       2.555   8.366  17.533  0.00  0.00    +0.000 A 
ATOM     20  C   UNL     1       2.981   7.197  18.187  0.00  0.00    +0.000 A 
ATOM     21  C   UNL     1       2.447   6.948  19.466  0.00  0.00    +0.000 A 
ATOM     22  C   UNL     1       1.531   7.820  20.063  0.00  0.00    +0.000 A 
BRANCH  20  23
ATOM     23  C   UNL     1       3.947   6.268  17.555  0.00  0.00    +0.000 A 
ATOM     24  C   UNL     1       3.762   4.873  17.598  0.00  0.00    +0.000 A 
ATOM     25  C   UNL     1       4.680   3.993  17.013  0.00  0.00    +0.000 A 
ATOM     26  C   UNL     1       5.799   4.490  16.357  0.00  0.00    +0.000 A 
ATOM     27  C   UNL     1       6.005   5.864  16.288  0.00  0.00    +0.000 A 
ATOM     28  C   UNL     1       5.093   6.739  16.887  0.00  0.00    +0.000 A 
ENDBRANCH  20  23
ENDBRANCH  16  17
ENDBRANCH   7  16
TORSDOF 5
ENDMDL
MODEL 8
REMARK VINA RESULT:      -7.3      3.149      3.814
REMARK  Name = 
REMARK  7 active torsions:
REMARK  status: ('A' for Active; 'I' for Inactive)
REMARK    1  A    between atoms: C_1  and  O_2
REMARK    2  A    between atoms: O_2  and  C_3
REMARK    3  A    between atoms: C_7  and  O_8
REMARK    4  A    between atoms: O_8  and  C_9
REMARK    5  A    between atoms: C_11  and  C_12
REMARK    6  A    between atoms: C_12  and  C_13
REMARK    7  A    between atoms: C_16  and  C_17
REMARK                            x       y       z     vdW  Elec       q    Type
REMARK                         _______ _______ _______ _____ _____    ______ ____
ROOT
ATOM      1  C   UNL     1      -2.010  13.787  22.728  0.00  0.00    +0.000 A 
ATOM      2  C   UNL     1      -2.099  12.453  23.095  0.00  0.00    +0.000 A 
ATOM      3  C   UNL     1      -1.124  11.544  22.674  0.00  0.00    +0.000 A 
ATOM      4  C   UNL     1      -0.042  11.942  21.837  0.00  0.00    +0.000 A 
ATOM      5  C   UNL     1       0.036  13.291  21.458  0.00  0.00    +0.000 A 
ATOM      6  C   UNL     1      -0.947  14.191  21.924  0.00  0.00    +0.000 A 
ATOM      7  C   UNL     1       0.860  10.804  21.378  0.00  0.00    +0.000 C 
ATOM      8  N   UNL     1       1.230   9.885  22.479  0.00  0.00    +0.000 NA
ATOM      9  C   UNL     1       0.167   9.573  23.436  0.00  0.00    +0.000 C 
ATOM     10  C   UNL     1      -1.225  10.098  23.094  0.00  0.00    +0.000 C 
ATOM     11  H   UNL     1       2.003  10.307  22.994  0.00  0.00    +0.000 HD
ENDROOT
BRANCH   1  13
ATOM     12  C   UNL     1      -3.183  14.608  24.619  0.00  0.00    +0.000 C 
ATOM     13  O   UNL     1      -3.010  14.587  23.208  0.00  0.00    +0.000 OA
ENDBRANCH   1  13
BRANCH   5  14
ATOM     14  O   UNL     1       0.921  13.960  20.661  0.00  0.00    +0.000 OA
ATOM     15  C   UNL     1       2.032  14.669  21.167  0.00  0.00    +0.000 C 
ENDBRANCH   5  14
BRANCH   7  16
ATOM     16  C   UNL     1       0.235  10.099  20.143  0.00  0.00    +0.000 C 
BRANCH  16  17
ATOM     17  C   UNL     1       1.149   9.116  19.457  0.00  0.00    +0.000 A 
ATOM     18  C   UNL     1       1.566   7.959  20.123  0.00  0.00    +0.000 A 
ATOM     19  C   UNL     1       2.416   7.042  19.499  0.00  0.00    +0.000 A 
ATOM     20  C   UNL     1       2.865   7.239  18.182  0.00  0.00    +0.000 A 
ATOM     21  C   UNL     1       2.435   8.409  17.527  0.00  0.00    +0.000 A 
ATOM     22  C   UNL     1       1.601   9.340  18.155  0.00  0.00    +0.000 A 
BRANCH  20  23
ATOM     23  C   UNL     1       3.754   6.259  17.515  0.00  0.00    +0.000 A 
ATOM     24  C   UNL     1       3.529   4.873  17.617  0.00  0.00    +0.000 A 
ATOM     25  C   UNL     1       4.374   3.945  16.999  0.00  0.00    +0.000 A 
ATOM     26  C   UNL     1       5.458   4.383  16.249  0.00  0.00    +0.000 A 
ATOM     27  C   UNL     1       5.702   5.746  16.120  0.00  0.00    +0.000 A 
ATOM     28  C   UNL     1       4.863   6.670  16.752  0.00  0.00    +0.000 A 
ENDBRANCH  20  23
ENDBRANCH  16  17
ENDBRANCH   7  16
TORSDOF 5
ENDMDL
MODEL 9
REMARK VINA RESULT:      -7.3      2.850      3.626
REMARK  Name = 
REMARK  7 active torsions:
REMARK  status: ('A' for Active; 'I' for Inactive)
REMARK    1  A    between atoms: C_1  and  O_2
REMARK    2  A    between atoms: O_2  and  C_3
REMARK    3  A    between atoms: C_7  and  O_8
REMARK    4  A    between atoms: O_8  and  C_9
REMARK    5  A    between atoms: C_11  and  C_12
REMARK    6  A    between atoms: C_12  and  C_13
REMARK    7  A    between atoms: C_16  and  C_17
REMARK                            x       y       z     vdW  Elec       q    Type
REMARK                         _______ _______ _______ _____ _____    ______ ____
ROOT
ATOM      1  C   UNL     1      -0.360  15.025  19.240  0.00  0.00    +0.000 A 
ATOM      2  C   UNL     1      -1.237  14.385  20.102  0.00  0.00    +0.000 A 
ATOM      3  C   UNL     1      -0.865  13.187  20.719  0.00  0.00    +0.000 A 
ATOM      4  C   UNL     1       0.393  12.571  20.457  0.00  0.00    +0.000 A 
ATOM      5  C   UNL     1       1.271  13.216  19.574  0.00  0.00    +0.000 A 
ATOM      6  C   UNL     1       0.880  14.441  18.991  0.00  0.00    +0.000 A 
ATOM      7  C   UNL     1       0.587  11.213  21.120  0.00  0.00    +0.000 C 
ATOM      8  N   UNL     1       0.171  11.203  22.542  0.00  0.00    +0.000 NA
ATOM      9  C   UNL     1      -1.047  11.952  22.857  0.00  0.00    +0.000 C 
ATOM     10  C   UNL     1      -1.823  12.509  21.668  0.00  0.00    +0.000 C 
ATOM     11  H   UNL     1       0.934  11.597  23.094  0.00  0.00    +0.000 HD
ENDROOT
BRANCH   1  13
ATOM     12  C   UNL     1       0.147  17.200  18.443  0.00  0.00    +0.000 C 
ATOM     13  O   UNL     1      -0.824  16.195  18.707  0.00  0.00    +0.000 OA
ENDBRANCH   1  13
BRANCH   5  14
ATOM     14  O   UNL     1       2.511  12.872  19.115  0.00  0.00    +0.000 OA
ATOM     15  C   UNL     1       3.442  13.814  18.625  0.00  0.00    +0.000 C 
ENDBRANCH   5  14
BRANCH   7  16
ATOM     16  C   UNL     1      -0.073  10.104  20.256  0.00  0.00    +0.000 C 
BRANCH  16  17
ATOM     17  C   UNL     1       0.902   9.175  19.580  0.00  0.00    +0.000 A 
ATOM     18  C   UNL     1       1.446   8.094  20.280  0.00  0.00    +0.000 A 
ATOM     19  C   UNL     1       2.354   7.228  19.665  0.00  0.00    +0.000 A 
ATOM     20  C   UNL     1       2.737   7.401  18.323  0.00  0.00    +0.000 A 
ATOM     21  C   UNL     1       2.180   8.496  17.634  0.00  0.00    +0.000 A 
ATOM     22  C   UNL     1       1.286   9.376  18.253  0.00  0.00    +0.000 A 
BRANCH  20  23
ATOM     23  C   UNL     1       3.688   6.474  17.667  0.00  0.00    +0.000 A 
ATOM     24  C   UNL     1       4.888   6.935  17.093  0.00  0.00    +0.000 A 
ATOM     25  C   UNL     1       5.781   6.063  16.461  0.00  0.00    +0.000 A 
ATOM     26  C   UNL     1       5.503   4.703  16.402  0.00  0.00    +0.000 A 
ATOM     27  C   UNL     1       4.330   4.215  16.969  0.00  0.00    +0.000 A 
ATOM     28  C   UNL     1       3.432   5.092  17.587  0.00  0.00    +0.000 A 
ENDBRANCH  20  23
ENDBRANCH  16  17
ENDBRANCH   7  16
TORSDOF 5
ENDMDL
