MODEL 1
REMARK VINA RESULT:      -8.2      0.000      0.000
REMARK  Name = 
REMARK  8 active torsions:
REMARK  status: ('A' for Active; 'I' for Inactive)
REMARK    1  A    between atoms: O_1  and  C_2
REMARK    2  A    between atoms: C_6  and  C_7
REMARK    3  A    between atoms: C_7  and  O_8
REMARK    4  A    between atoms: C_7  and  C_9
REMARK    5  A    between atoms: C_9  and  N_10
REMARK    6  A    between atoms: N_10  and  C_11
REMARK    7  A    between atoms: C_11  and  C_12
REMARK    8  A    between atoms: C_15  and  C_16
REMARK                            x       y       z     vdW  Elec       q    Type
REMARK                         _______ _______ _______ _____ _____    ______ ____
ROOT
ATOM      1  N   UNL     1       2.965   4.802  17.894  0.00  0.00    +0.000 NA
ATOM      2  H   UNL     1       2.570   4.737  18.833  0.00  0.00    +0.000 HD
ENDROOT
BRANCH   1   3
ATOM      3  C   UNL     1       4.157   3.937  17.836  0.00  0.00    +0.000 C 
BRANCH   3   4
ATOM      4  C   UNL     1       5.187   4.476  16.818  0.00  0.00    +0.000 C 
BRANCH   4   9
ATOM      5  C   UNL     1       7.704   5.811  19.368  0.00  0.00    +0.000 A 
ATOM      6  C   UNL     1       8.159   6.971  18.745  0.00  0.00    +0.000 A 
ATOM      7  C   UNL     1       7.651   7.317  17.496  0.00  0.00    +0.000 A 
ATOM      8  C   UNL     1       6.698   6.505  16.873  0.00  0.00    +0.000 A 
ATOM      9  C   UNL     1       6.240   5.331  17.496  0.00  0.00    +0.000 A 
ATOM     10  C   UNL     1       6.756   5.001  18.756  0.00  0.00    +0.000 A 
BRANCH   5  11
ATOM     11  O   UNL     1       8.161   5.430  20.590  0.00  0.00    +0.000 OA
ATOM     12  H   UNL     1       8.139   4.457  20.639  0.00  0.00    +0.000 HD
ENDBRANCH   5  11
ENDBRANCH   4   9
BRANCH   4  13
ATOM     13  O   UNL     1       5.799   3.376  16.134  0.00  0.00    +0.000 OA
ATOM     14  H   UNL     1       5.589   3.463  15.191  0.00  0.00    +0.000 HD
ENDBRANCH   4  13
ENDBRANCH   3   4
ENDBRANCH   1   3
BRANCH   1  15
ATOM     15  C   UNL     1       3.282   6.194  17.572  0.00  0.00    +0.000 C 
BRANCH  15  16
ATOM     16  C   UNL     1       2.586   7.156  18.501  0.00  0.00    +0.000 A 
ATOM     17  C   UNL     1       2.309   6.778  19.819  0.00  0.00    +0.000 A 
ATOM     18  C   UNL     1       1.573   7.618  20.657  0.00  0.00    +0.000 A 
ATOM     19  C   UNL     1       1.117   8.874  20.221  0.00  0.00    +0.000 A 
ATOM     20  C   UNL     1       1.417   9.243  18.897  0.00  0.00    +0.000 A 
ATOM     21  C   UNL     1       2.134   8.397  18.046  0.00  0.00    +0.000 A 
BRANCH  19  22
ATOM     22  C   UNL     1       0.354   9.766  21.123  0.00  0.00    +0.000 A 
ATOM     23  C   UNL     1       0.045  11.087  20.747  0.00  0.00    +0.000 A 
ATOM     24  C   UNL     1      -0.667  11.940  21.593  0.00  0.00    +0.000 A 
ATOM     25  C   UNL     1      -1.105  11.486  22.831  0.00  0.00    +0.000 A 
ATOM     26  C   UNL     1      -0.823  10.181  23.227  0.00  0.00    +0.000 A 
ATOM     27  C   UNL     1      -0.095   9.336  22.385  0.00  0.00    +0.000 A 
ENDBRANCH  19  22
ENDBRANCH  15  16
ENDBRANCH   1  15
TORSDOF 8
ENDMDL
MODEL 2
REMARK VINA RESULT:      -8.2      1.597      2.210
REMARK  Name = 
REMARK  8 active torsions:
REMARK  status: ('A' for Active; 'I' for Inactive)
REMARK    1  A    between atoms: O_1  and  C_2
REMARK    2  A    between atoms: C_6  and  C_7
REMARK    3  A    between atoms: C_7  and  O_8
REMARK    4  A    between atoms: C_7  and  C_9
REMARK    5  A    between atoms: C_9  and  N_10
REMARK    6  A    between atoms: N_10  and  C_11
REMARK    7  A    between atoms: C_11  and  C_12
REMARK    8  A    between atoms: C_15  and  C_16
REMARK                            x       y       z     vdW  Elec       q    Type
REMARK                         _______ _______ _______ _____ _____    ______ ____
ROOT
ATOM      1  N   UNL     1       2.716   4.654  18.715  0.00  0.00    +0.000 NA
ATOM      2  H   UNL     1       1.955   4.000  18.905  0.00  0.00    +0.000 HD
ENDROOT
BRANCH   1   3
ATOM      3  C   UNL     1       3.923   3.873  18.390  0.00  0.00    +0.000 C 
BRANCH   3   4
ATOM      4  C   UNL     1       4.700   4.510  17.217  0.00  0.00    +0.000 C 
BRANCH   4   9
ATOM      5  C   UNL     1       7.555   5.826  19.392  0.00  0.00    +0.000 A 
ATOM      6  C   UNL     1       8.055   6.867  18.614  0.00  0.00    +0.000 A 
ATOM      7  C   UNL     1       7.468   7.138  17.381  0.00  0.00    +0.000 A 
ATOM      8  C   UNL     1       6.391   6.370  16.929  0.00  0.00    +0.000 A 
ATOM      9  C   UNL     1       5.885   5.316  17.710  0.00  0.00    +0.000 A 
ATOM     10  C   UNL     1       6.483   5.060  18.951  0.00  0.00    +0.000 A 
BRANCH   5  11
ATOM     11  O   UNL     1       8.086   5.522  20.607  0.00  0.00    +0.000 OA
ATOM     12  H   UNL     1       8.952   5.097  20.468  0.00  0.00    +0.000 HD
ENDBRANCH   5  11
ENDBRANCH   4   9
BRANCH   4  13
ATOM     13  O   UNL     1       5.132   3.480  16.318  0.00  0.00    +0.000 OA
ATOM     14  H   UNL     1       5.650   3.903  15.615  0.00  0.00    +0.000 HD
ENDBRANCH   4  13
ENDBRANCH   3   4
ENDBRANCH   1   3
BRANCH   1  15
ATOM     15  C   UNL     1       2.927   5.534  19.864  0.00  0.00    +0.000 C 
BRANCH  15  16
ATOM     16  C   UNL     1       2.433   6.933  19.597  0.00  0.00    +0.000 A 
ATOM     17  C   UNL     1       1.716   7.622  20.581  0.00  0.00    +0.000 A 
ATOM     18  C   UNL     1       1.163   8.874  20.309  0.00  0.00    +0.000 A 
ATOM     19  C   UNL     1       1.332   9.496  19.060  0.00  0.00    +0.000 A 
ATOM     20  C   UNL     1       2.067   8.796  18.087  0.00  0.00    +0.000 A 
ATOM     21  C   UNL     1       2.604   7.531  18.345  0.00  0.00    +0.000 A 
BRANCH  19  22
ATOM     22  C   UNL     1       0.758  10.833  18.788  0.00  0.00    +0.000 A 
ATOM     23  C   UNL     1       1.573  11.980  18.753  0.00  0.00    +0.000 A 
ATOM     24  C   UNL     1       1.042  13.248  18.505  0.00  0.00    +0.000 A 
ATOM     25  C   UNL     1      -0.318  13.397  18.266  0.00  0.00    +0.000 A 
ATOM     26  C   UNL     1      -1.149  12.280  18.283  0.00  0.00    +0.000 A 
ATOM     27  C   UNL     1      -0.617  11.015  18.550  0.00  0.00    +0.000 A 
ENDBRANCH  19  22
ENDBRANCH  15  16
ENDBRANCH   1  15
TORSDOF 8
ENDMDL
MODEL 3
REMARK VINA RESULT:      -8.2      4.660      7.089
REMARK  Name = 
REMARK  8 active torsions:
REMARK  status: ('A' for Active; 'I' for Inactive)
REMARK    1  A    between atoms: O_1  and  C_2
REMARK    2  A    between atoms: C_6  and  C_7
REMARK    3  A    between atoms: C_7  and  O_8
REMARK    4  A    between atoms: C_7  and  C_9
REMARK    5  A    between atoms: C_9  and  N_10
REMARK    6  A    between atoms: N_10  and  C_11
REMARK    7  A    between atoms: C_11  and  C_12
REMARK    8  A    between atoms: C_15  and  C_16
REMARK                            x       y       z     vdW  Elec       q    Type
REMARK                         _______ _______ _______ _____ _____    ______ ____
ROOT
ATOM      1  N   UNL     1       8.379   8.113  18.571  0.00  0.00    +0.000 NA
ATOM      2  H   UNL     1       7.773   7.998  19.385  0.00  0.00    +0.000 HD
ENDROOT
BRANCH   1   3
ATOM      3  C   UNL     1       8.493   9.554  18.282  0.00  0.00    +0.000 C 
BRANCH   3   4
ATOM      4  C   UNL     1       9.653  10.192  19.077  0.00  0.00    +0.000 C 
BRANCH   4   9
ATOM      5  C   UNL     1       9.655  13.737  17.646  0.00  0.00    +0.000 A 
ATOM      6  C   UNL     1      10.975  13.879  17.225  0.00  0.00    +0.000 A 
ATOM      7  C   UNL     1      11.865  12.824  17.411  0.00  0.00    +0.000 A 
ATOM      8  C   UNL     1      11.438  11.639  18.016  0.00  0.00    +0.000 A 
ATOM      9  C   UNL     1      10.107  11.493  18.446  0.00  0.00    +0.000 A 
ATOM     10  C   UNL     1       9.222  12.561  18.246  0.00  0.00    +0.000 A 
BRANCH   5  11
ATOM     11  O   UNL     1       8.742  14.732  17.484  0.00  0.00    +0.000 OA
ATOM     12  H   UNL     1       8.139  14.726  18.249  0.00  0.00    +0.000 HD
ENDBRANCH   5  11
ENDBRANCH   4   9
BRANCH   4  13
ATOM     13  O   UNL     1       9.240  10.409  20.432  0.00  0.00    +0.000 OA
ATOM     14  H   UNL     1       9.358   9.575  20.912  0.00  0.00    +0.000 HD
ENDBRANCH   4  13
ENDBRANCH   3   4
ENDBRANCH   1   3
BRANCH   1  15
ATOM     15  C   UNL     1       7.845   7.367  17.432  0.00  0.00    +0.000 C 
BRANCH  15  16
ATOM     16  C   UNL     1       6.628   6.561  17.810  0.00  0.00    +0.000 A 
ATOM     17  C   UNL     1       5.398   6.824  17.198  0.00  0.00    +0.000 A 
ATOM     18  C   UNL     1       4.243   6.159  17.614  0.00  0.00    +0.000 A 
ATOM     19  C   UNL     1       4.280   5.188  18.629  0.00  0.00    +0.000 A 
ATOM     20  C   UNL     1       5.528   4.927  19.224  0.00  0.00    +0.000 A 
ATOM     21  C   UNL     1       6.684   5.606  18.828  0.00  0.00    +0.000 A 
BRANCH  19  22
ATOM     22  C   UNL     1       3.054   4.474  19.050  0.00  0.00    +0.000 A 
ATOM     23  C   UNL     1       2.521   4.645  20.342  0.00  0.00    +0.000 A 
ATOM     24  C   UNL     1       1.369   3.970  20.753  0.00  0.00    +0.000 A 
ATOM     25  C   UNL     1       0.710   3.121  19.873  0.00  0.00    +0.000 A 
ATOM     26  C   UNL     1       1.206   2.940  18.585  0.00  0.00    +0.000 A 
ATOM     27  C   UNL     1       2.370   3.602  18.183  0.00  0.00    +0.000 A 
ENDBRANCH  19  22
ENDBRANCH  15  16
ENDBRANCH   1  15
TORSDOF 8
ENDMDL
MODEL 4
REMARK VINA RESULT:      -8.1      2.468      4.017
REMARK  Name = 
REMARK  8 active torsions:
REMARK  status: ('A' for Active; 'I' for Inactive)
REMARK    1  A    between atoms: O_1  and  C_2
REMARK    2  A    between atoms: C_6  and  C_7
REMARK    3  A    between atoms: C_7  and  O_8
REMARK    4  A    between atoms: C_7  and  C_9
REMARK    5  A    between atoms: C_9  and  N_10
REMARK    6  A    between atoms: N_10  and  C_11
REMARK    7  A    between atoms: C_11  and  C_12
REMARK    8  A    between atoms: C_15  and  C_16
REMARK                            x       y       z     vdW  Elec       q    Type
REMARK                         _______ _______ _______ _____ _____    ______ ____
ROOT
ATOM      1  N   UNL     1       5.007   4.678  17.641  0.00  0.00    +0.000 NA
ATOM      2  H   UNL     1       6.021   4.669  17.519  0.00  0.00    +0.000 HD
ENDROOT
BRANCH   1   3
ATOM      3  C   UNL     1       4.466   3.423  17.090  0.00  0.00    +0.000 C 
BRANCH   3   4
ATOM      4  C   UNL     1       4.239   2.378  18.204  0.00  0.00    +0.000 C 
BRANCH   4   9
ATOM      5  C   UNL     1       1.809   2.990  21.091  0.00  0.00    +0.000 A 
ATOM      6  C   UNL     1       0.602   3.171  20.420  0.00  0.00    +0.000 A 
ATOM      7  C   UNL     1       0.579   3.099  19.030  0.00  0.00    +0.000 A 
ATOM      8  C   UNL     1       1.756   2.851  18.317  0.00  0.00    +0.000 A 
ATOM      9  C   UNL     1       2.977   2.671  18.990  0.00  0.00    +0.000 A 
ATOM     10  C   UNL     1       2.982   2.741  20.391  0.00  0.00    +0.000 A 
BRANCH   5  11
ATOM     11  O   UNL     1       1.888   3.044  22.448  0.00  0.00    +0.000 OA
ATOM     12  H   UNL     1       2.724   2.629  22.726  0.00  0.00    +0.000 HD
ENDBRANCH   5  11
ENDBRANCH   4   9
BRANCH   4  13
ATOM     13  O   UNL     1       4.175   1.069  17.623  0.00  0.00    +0.000 OA
ATOM     14  H   UNL     1       3.897   1.171  16.700  0.00  0.00    +0.000 HD
ENDBRANCH   4  13
ENDBRANCH   3   4
ENDBRANCH   1   3
BRANCH   1  15
ATOM     15  C   UNL     1       4.429   5.855  16.992  0.00  0.00    +0.000 C 
BRANCH  15  16
ATOM     16  C   UNL     1       3.491   6.597  17.911  0.00  0.00    +0.000 A 
ATOM     17  C   UNL     1       2.951   7.825  17.514  0.00  0.00    +0.000 A 
ATOM     18  C   UNL     1       2.167   8.571  18.396  0.00  0.00    +0.000 A 
ATOM     19  C   UNL     1       1.869   8.107  19.688  0.00  0.00    +0.000 A 
ATOM     20  C   UNL     1       2.409   6.864  20.065  0.00  0.00    +0.000 A 
ATOM     21  C   UNL     1       3.214   6.121  19.195  0.00  0.00    +0.000 A 
BRANCH  19  22
ATOM     22  C   UNL     1       1.021   8.897  20.608  0.00  0.00    +0.000 A 
ATOM     23  C   UNL     1       0.147   9.887  20.121  0.00  0.00    +0.000 A 
ATOM     24  C   UNL     1      -0.652  10.645  20.980  0.00  0.00    +0.000 A 
ATOM     25  C   UNL     1      -0.610  10.416  22.350  0.00  0.00    +0.000 A 
ATOM     26  C   UNL     1       0.236   9.436  22.862  0.00  0.00    +0.000 A 
ATOM     27  C   UNL     1       1.048   8.693  22.000  0.00  0.00    +0.000 A 
ENDBRANCH  19  22
ENDBRANCH  15  16
ENDBRANCH   1  15
TORSDOF 8
ENDMDL
MODEL 5
REMARK VINA RESULT:      -8.1      1.261      1.914
REMARK  Name = 
REMARK  8 active torsions:
REMARK  status: ('A' for Active; 'I' for Inactive)
REMARK    1  A    between atoms: O_1  and  C_2
REMARK    2  A    between atoms: C_6  and  C_7
REMARK    3  A    between atoms: C_7  and  O_8
REMARK    4  A    between atoms: C_7  and  C_9
REMARK    5  A    between atoms: C_9  and  N_10
REMARK    6  A    between atoms: N_10  and  C_11
REMARK    7  A    between atoms: C_11  and  C_12
REMARK    8  A    between atoms: C_15  and  C_16
REMARK                            x       y       z     vdW  Elec       q    Type
REMARK                         _______ _______ _______ _____ _____    ______ ____
ROOT
ATOM      1  N   UNL     1       3.082   4.320  17.992  0.00  0.00    +0.000 NA
ATOM      2  H   UNL     1       2.294   3.684  17.866  0.00  0.00    +0.000 HD
ENDROOT
BRANCH   1   3
ATOM      3  C   UNL     1       4.324   3.570  17.730  0.00  0.00    +0.000 C 
BRANCH   3   4
ATOM      4  C   UNL     1       5.216   4.308  16.708  0.00  0.00    +0.000 C 
BRANCH   4   9
ATOM      5  C   UNL     1       7.625   5.776  19.288  0.00  0.00    +0.000 A 
ATOM      6  C   UNL     1       8.026   6.958  18.670  0.00  0.00    +0.000 A 
ATOM      7  C   UNL     1       7.517   7.275  17.413  0.00  0.00    +0.000 A 
ATOM      8  C   UNL     1       6.617   6.414  16.779  0.00  0.00    +0.000 A 
ATOM      9  C   UNL     1       6.213   5.218  17.398  0.00  0.00    +0.000 A 
ATOM     10  C   UNL     1       6.729   4.916  18.666  0.00  0.00    +0.000 A 
BRANCH   5  11
ATOM     11  O   UNL     1       8.085   5.420  20.517  0.00  0.00    +0.000 OA
ATOM     12  H   UNL     1       8.171   4.450  20.546  0.00  0.00    +0.000 HD
ENDBRANCH   5  11
ENDBRANCH   4   9
BRANCH   4  13
ATOM     13  O   UNL     1       5.896   3.348  15.890  0.00  0.00    +0.000 OA
ATOM     14  H   UNL     1       6.387   2.755  16.479  0.00  0.00    +0.000 HD
ENDBRANCH   4  13
ENDBRANCH   3   4
ENDBRANCH   1   3
BRANCH   1  15
ATOM     15  C   UNL     1       3.062   4.894  19.337  0.00  0.00    +0.000 C 
BRANCH  15  16
ATOM     16  C   UNL     1       2.576   6.321  19.332  0.00  0.00    +0.000 A 
ATOM     17  C   UNL     1       1.953   6.852  20.467  0.00  0.00    +0.000 A 
ATOM     18  C   UNL     1       1.405   8.135  20.438  0.00  0.00    +0.000 A 
ATOM     19  C   UNL     1       1.485   8.943  19.291  0.00  0.00    +0.000 A 
ATOM     20  C   UNL     1       2.126   8.398  18.164  0.00  0.00    +0.000 A 
ATOM     21  C   UNL     1       2.657   7.105  18.178  0.00  0.00    +0.000 A 
BRANCH  19  22
ATOM     22  C   UNL     1       0.917  10.310  19.278  0.00  0.00    +0.000 A 
ATOM     23  C   UNL     1      -0.298  10.598  19.926  0.00  0.00    +0.000 A 
ATOM     24  C   UNL     1      -0.848  11.882  19.913  0.00  0.00    +0.000 A 
ATOM     25  C   UNL     1      -0.184  12.916  19.265  0.00  0.00    +0.000 A 
ATOM     26  C   UNL     1       1.026  12.665  18.624  0.00  0.00    +0.000 A 
ATOM     27  C   UNL     1       1.564  11.375  18.623  0.00  0.00    +0.000 A 
ENDBRANCH  19  22
ENDBRANCH  15  16
ENDBRANCH   1  15
TORSDOF 8
ENDMDL
MODEL 6
REMARK VINA RESULT:      -8.0      2.424      3.788
REMARK  Name = 
REMARK  8 active torsions:
REMARK  status: ('A' for Active; 'I' for Inactive)
REMARK    1  A    between atoms: O_1  and  C_2
REMARK    2  A    between atoms: C_6  and  C_7
REMARK    3  A    between atoms: C_7  and  O_8
REMARK    4  A    between atoms: C_7  and  C_9
REMARK    5  A    between atoms: C_9  and  N_10
REMARK    6  A    between atoms: N_10  and  C_11
REMARK    7  A    between atoms: C_11  and  C_12
REMARK    8  A    between atoms: C_15  and  C_16
REMARK                            x       y       z     vdW  Elec       q    Type
REMARK                         _______ _______ _______ _____ _____    ______ ____
ROOT
ATOM      1  N   UNL     1       4.899   4.970  17.396  0.00  0.00    +0.000 NA
ATOM      2  H   UNL     1       5.899   4.960  17.192  0.00  0.00    +0.000 HD
ENDROOT
BRANCH   1   3
ATOM      3  C   UNL     1       4.317   3.709  16.905  0.00  0.00    +0.000 C 
BRANCH   3   4
ATOM      4  C   UNL     1       4.262   2.647  18.025  0.00  0.00    +0.000 C 
BRANCH   4   9
ATOM      5  C   UNL     1       2.020   3.047  21.096  0.00  0.00    +0.000 A 
ATOM      6  C   UNL     1       0.755   3.138  20.520  0.00  0.00    +0.000 A 
ATOM      7  C   UNL     1       0.631   3.072  19.135  0.00  0.00    +0.000 A 
ATOM      8  C   UNL     1       1.766   2.923  18.332  0.00  0.00    +0.000 A 
ATOM      9  C   UNL     1       3.045   2.835  18.908  0.00  0.00    +0.000 A 
ATOM     10  C   UNL     1       3.152   2.896  20.305  0.00  0.00    +0.000 A 
BRANCH   5  11
ATOM     11  O   UNL     1       2.198   3.099  22.443  0.00  0.00    +0.000 OA
ATOM     12  H   UNL     1       1.662   2.396  22.852  0.00  0.00    +0.000 HD
ENDBRANCH   5  11
ENDBRANCH   4   9
BRANCH   4  13
ATOM     13  O   UNL     1       4.260   1.338  17.441  0.00  0.00    +0.000 OA
ATOM     14  H   UNL     1       4.011   0.707  18.134  0.00  0.00    +0.000 HD
ENDBRANCH   4  13
ENDBRANCH   3   4
ENDBRANCH   1   3
BRANCH   1  15
ATOM     15  C   UNL     1       4.269   6.139  16.783  0.00  0.00    +0.000 C 
BRANCH  15  16
ATOM     16  C   UNL     1       3.471   6.936  17.785  0.00  0.00    +0.000 A 
ATOM     17  C   UNL     1       3.175   6.388  19.038  0.00  0.00    +0.000 A 
ATOM     18  C   UNL     1       2.351   7.072  19.932  0.00  0.00    +0.000 A 
ATOM     19  C   UNL     1       1.819   8.336  19.623  0.00  0.00    +0.000 A 
ATOM     20  C   UNL     1       2.138   8.878  18.365  0.00  0.00    +0.000 A 
ATOM     21  C   UNL     1       2.946   8.188  17.455  0.00  0.00    +0.000 A 
BRANCH  19  22
ATOM     22  C   UNL     1       0.961   9.061  20.586  0.00  0.00    +0.000 A 
ATOM     23  C   UNL     1       0.077  10.068  20.157  0.00  0.00    +0.000 A 
ATOM     24  C   UNL     1      -0.732  10.765  21.057  0.00  0.00    +0.000 A 
ATOM     25  C   UNL     1      -0.689  10.458  22.412  0.00  0.00    +0.000 A 
ATOM     26  C   UNL     1       0.168   9.460  22.866  0.00  0.00    +0.000 A 
ATOM     27  C   UNL     1       0.989   8.777  21.964  0.00  0.00    +0.000 A 
ENDBRANCH  19  22
ENDBRANCH  15  16
ENDBRANCH   1  15
TORSDOF 8
ENDMDL
MODEL 7
REMARK VINA RESULT:      -8.0      2.120      3.735
REMARK  Name = 
REMARK  8 active torsions:
REMARK  status: ('A' for Active; 'I' for Inactive)
REMARK    1  A    between atoms: O_1  and  C_2
REMARK    2  A    between atoms: C_6  and  C_7
REMARK    3  A    between atoms: C_7  and  O_8
REMARK    4  A    between atoms: C_7  and  C_9
REMARK    5  A    between atoms: C_9  and  N_10
REMARK    6  A    between atoms: N_10  and  C_11
REMARK    7  A    between atoms: C_11  and  C_12
REMARK    8  A    between atoms: C_15  and  C_16
REMARK                            x       y       z     vdW  Elec       q    Type
REMARK                         _______ _______ _______ _____ _____    ______ ____
ROOT
ATOM      1  N   UNL     1       3.670   6.017  17.551  0.00  0.00    +0.000 NA
ATOM      2  H   UNL     1       2.999   5.714  18.258  0.00  0.00    +0.000 HD
ENDROOT
BRANCH   1   3
ATOM      3  C   UNL     1       5.027   5.732  18.052  0.00  0.00    +0.000 C 
BRANCH   3   4
ATOM      4  C   UNL     1       5.018   4.548  19.043  0.00  0.00    +0.000 C 
BRANCH   4   9
ATOM      5  C   UNL     1       1.532   3.151  19.760  0.00  0.00    +0.000 A 
ATOM      6  C   UNL     1       1.381   2.212  18.743  0.00  0.00    +0.000 A 
ATOM      7  C   UNL     1       2.411   2.035  17.822  0.00  0.00    +0.000 A 
ATOM      8  C   UNL     1       3.579   2.797  17.916  0.00  0.00    +0.000 A 
ATOM      9  C   UNL     1       3.733   3.749  18.939  0.00  0.00    +0.000 A 
ATOM     10  C   UNL     1       2.691   3.910  19.862  0.00  0.00    +0.000 A 
BRANCH   5  11
ATOM     11  O   UNL     1       0.561   3.360  20.690  0.00  0.00    +0.000 OA
ATOM     12  H   UNL     1       0.962   3.800  21.461  0.00  0.00    +0.000 HD
ENDBRANCH   5  11
ENDBRANCH   4   9
BRANCH   4  13
ATOM     13  O   UNL     1       6.152   3.708  18.791  0.00  0.00    +0.000 OA
ATOM     14  H   UNL     1       6.944   4.266  18.830  0.00  0.00    +0.000 HD
ENDBRANCH   4  13
ENDBRANCH   3   4
ENDBRANCH   1   3
BRANCH   1  15
ATOM     15  C   UNL     1       3.485   7.436  17.249  0.00  0.00    +0.000 C 
BRANCH  15  16
ATOM     16  C   UNL     1       2.532   8.095  18.215  0.00  0.00    +0.000 A 
ATOM     17  C   UNL     1       1.968   9.336  17.904  0.00  0.00    +0.000 A 
ATOM     18  C   UNL     1       1.169  10.004  18.833  0.00  0.00    +0.000 A 
ATOM     19  C   UNL     1       0.880   9.445  20.090  0.00  0.00    +0.000 A 
ATOM     20  C   UNL     1       1.444   8.190  20.381  0.00  0.00    +0.000 A 
ATOM     21  C   UNL     1       2.264   7.526  19.463  0.00  0.00    +0.000 A 
BRANCH  19  22
ATOM     22  C   UNL     1       0.016  10.152  21.061  0.00  0.00    +0.000 A 
ATOM     23  C   UNL     1      -0.664  11.332  20.704  0.00  0.00    +0.000 A 
ATOM     24  C   UNL     1      -1.476  12.013  21.614  0.00  0.00    +0.000 A 
ATOM     25  C   UNL     1      -1.642  11.519  22.902  0.00  0.00    +0.000 A 
ATOM     26  C   UNL     1      -0.991  10.349  23.282  0.00  0.00    +0.000 A 
ATOM     27  C   UNL     1      -0.165   9.680  22.374  0.00  0.00    +0.000 A 
ENDBRANCH  19  22
ENDBRANCH  15  16
ENDBRANCH   1  15
TORSDOF 8
ENDMDL
MODEL 8
REMARK VINA RESULT:      -7.9      0.357      1.430
REMARK  Name = 
REMARK  8 active torsions:
REMARK  status: ('A' for Active; 'I' for Inactive)
REMARK    1  A    between atoms: O_1  and  C_2
REMARK    2  A    between atoms: C_6  and  C_7
REMARK    3  A    between atoms: C_7  and  O_8
REMARK    4  A    between atoms: C_7  and  C_9
REMARK    5  A    between atoms: C_9  and  N_10
REMARK    6  A    between atoms: N_10  and  C_11
REMARK    7  A    between atoms: C_11  and  C_12
REMARK    8  A    between atoms: C_15  and  C_16
REMARK                            x       y       z     vdW  Elec       q    Type
REMARK                         _______ _______ _______ _____ _____    ______ ____
ROOT
ATOM      1  N   UNL     1       3.804   4.697  18.484  0.00  0.00    +0.000 NA
ATOM      2  H   UNL     1       4.479   5.052  19.163  0.00  0.00    +0.000 HD
ENDROOT
BRANCH   1   3
ATOM      3  C   UNL     1       4.486   3.705  17.633  0.00  0.00    +0.000 C 
BRANCH   3   4
ATOM      4  C   UNL     1       5.472   4.388  16.662  0.00  0.00    +0.000 C 
BRANCH   4   9
ATOM      5  C   UNL     1       7.866   5.797  19.289  0.00  0.00    +0.000 A 
ATOM      6  C   UNL     1       8.170   7.050  18.762  0.00  0.00    +0.000 A 
ATOM      7  C   UNL     1       7.600   7.435  17.551  0.00  0.00    +0.000 A 
ATOM      8  C   UNL     1       6.737   6.570  16.871  0.00  0.00    +0.000 A 
ATOM      9  C   UNL     1       6.431   5.303  17.398  0.00  0.00    +0.000 A 
ATOM     10  C   UNL     1       7.007   4.933  18.621  0.00  0.00    +0.000 A 
BRANCH   5  11
ATOM     11  O   UNL     1       8.388   5.373  20.471  0.00  0.00    +0.000 OA
ATOM     12  H   UNL     1       8.286   6.085  21.128  0.00  0.00    +0.000 HD
ENDBRANCH   5  11
ENDBRANCH   4   9
BRANCH   4  13
ATOM     13  O   UNL     1       6.194   3.387  15.934  0.00  0.00    +0.000 OA
ATOM     14  H   UNL     1       6.068   2.542  16.393  0.00  0.00    +0.000 HD
ENDBRANCH   4  13
ENDBRANCH   3   4
ENDBRANCH   1   3
BRANCH   1  15
ATOM     15  C   UNL     1       3.246   5.799  17.701  0.00  0.00    +0.000 C 
BRANCH  15  16
ATOM     16  C   UNL     1       2.467   6.760  18.561  0.00  0.00    +0.000 A 
ATOM     17  C   UNL     1       2.150   8.034  18.076  0.00  0.00    +0.000 A 
ATOM     18  C   UNL     1       1.521   8.969  18.900  0.00  0.00    +0.000 A 
ATOM     19  C   UNL     1       1.160   8.658  20.222  0.00  0.00    +0.000 A 
ATOM     20  C   UNL     1       1.474   7.369  20.689  0.00  0.00    +0.000 A 
ATOM     21  C   UNL     1       2.124   6.435  19.876  0.00  0.00    +0.000 A 
BRANCH  19  22
ATOM     22  C   UNL     1       0.477   9.651  21.081  0.00  0.00    +0.000 A 
ATOM     23  C   UNL     1      -0.051   9.286  22.334  0.00  0.00    +0.000 A 
ATOM     24  C   UNL     1      -0.705  10.212  23.150  0.00  0.00    +0.000 A 
ATOM     25  C   UNL     1      -0.831  11.533  22.740  0.00  0.00    +0.000 A 
ATOM     26  C   UNL     1      -0.309  11.927  21.511  0.00  0.00    +0.000 A 
ATOM     27  C   UNL     1       0.328  10.994  20.689  0.00  0.00    +0.000 A 
ENDBRANCH  19  22
ENDBRANCH  15  16
ENDBRANCH   1  15
TORSDOF 8
ENDMDL
MODEL 9
REMARK VINA RESULT:      -7.8      2.481      4.328
REMARK  Name = 
REMARK  8 active torsions:
REMARK  status: ('A' for Active; 'I' for Inactive)
REMARK    1  A    between atoms: O_1  and  C_2
REMARK    2  A    between atoms: C_6  and  C_7
REMARK    3  A    between atoms: C_7  and  O_8
REMARK    4  A    between atoms: C_7  and  C_9
REMARK    5  A    between atoms: C_9  and  N_10
REMARK    6  A    between atoms: N_10  and  C_11
REMARK    7  A    between atoms: C_11  and  C_12
REMARK    8  A    between atoms: C_15  and  C_16
REMARK                            x       y       z     vdW  Elec       q    Type
REMARK                         _______ _______ _______ _____ _____    ______ ____
ROOT
ATOM      1  N   UNL     1       5.239   4.461  16.638  0.00  0.00    +0.000 NA
ATOM      2  H   UNL     1       5.096   5.101  15.855  0.00  0.00    +0.000 HD
ENDROOT
BRANCH   1   3
ATOM      3  C   UNL     1       4.069   3.568  16.722  0.00  0.00    +0.000 C 
BRANCH   3   4
ATOM      4  C   UNL     1       4.178   2.620  17.936  0.00  0.00    +0.000 C 
BRANCH   4   9
ATOM      5  C   UNL     1       2.086   2.983  21.116  0.00  0.00    +0.000 A 
ATOM      6  C   UNL     1       0.793   3.060  20.604  0.00  0.00    +0.000 A 
ATOM      7  C   UNL     1       0.602   2.998  19.226  0.00  0.00    +0.000 A 
ATOM      8  C   UNL     1       1.697   2.865  18.368  0.00  0.00    +0.000 A 
ATOM      9  C   UNL     1       3.004   2.791  18.879  0.00  0.00    +0.000 A 
ATOM     10  C   UNL     1       3.179   2.847  20.269  0.00  0.00    +0.000 A 
BRANCH   5  11
ATOM     11  O   UNL     1       2.330   3.031  22.453  0.00  0.00    +0.000 OA
ATOM     12  H   UNL     1       2.810   3.856  22.650  0.00  0.00    +0.000 HD
ENDBRANCH   5  11
ENDBRANCH   4   9
BRANCH   4  13
ATOM     13  O   UNL     1       4.259   1.265  17.476  0.00  0.00    +0.000 OA
ATOM     14  H   UNL     1       5.127   0.918  17.734  0.00  0.00    +0.000 HD
ENDBRANCH   4  13
ENDBRANCH   3   4
ENDBRANCH   1   3
BRANCH   1  15
ATOM     15  C   UNL     1       5.443   5.213  17.876  0.00  0.00    +0.000 C 
BRANCH  15  16
ATOM     16  C   UNL     1       4.289   6.138  18.168  0.00  0.00    +0.000 A 
ATOM     17  C   UNL     1       4.029   7.220  17.320  0.00  0.00    +0.000 A 
ATOM     18  C   UNL     1       3.031   8.143  17.637  0.00  0.00    +0.000 A 
ATOM     19  C   UNL     1       2.239   8.003  18.789  0.00  0.00    +0.000 A 
ATOM     20  C   UNL     1       2.505   6.902  19.623  0.00  0.00    +0.000 A 
ATOM     21  C   UNL     1       3.518   5.986  19.324  0.00  0.00    +0.000 A 
BRANCH  19  22
ATOM     22  C   UNL     1       1.170   8.976  19.105  0.00  0.00    +0.000 A 
ATOM     23  C   UNL     1       0.737   9.175  20.430  0.00  0.00    +0.000 A 
ATOM     24  C   UNL     1      -0.276  10.085  20.740  0.00  0.00    +0.000 A 
ATOM     25  C   UNL     1      -0.870  10.834  19.731  0.00  0.00    +0.000 A 
ATOM     26  C   UNL     1      -0.456  10.668  18.413  0.00  0.00    +0.000 A 
ATOM     27  C   UNL     1       0.545   9.743  18.104  0.00  0.00    +0.000 A 
ENDBRANCH  19  22
ENDBRANCH  15  16
ENDBRANCH   1  15
TORSDOF 8
ENDMDL
