MODEL 1
REMARK VINA RESULT:      -8.5      0.000      0.000
REMARK  Name = 
REMARK  5 active torsions:
REMARK  status: ('A' for Active; 'I' for Inactive)
REMARK    1  A    between atoms: C_1  and  C_2
REMARK    2  A    between atoms: C_5  and  O_6
REMARK    3  A    between atoms: C_14  and  C_15
REMARK    4  A    between atoms: C_14  and  N_16
REMARK    5  A    between atoms: C_17  and  C_19
REMARK                            x       y       z     vdW  Elec       q    Type
REMARK                         _______ _______ _______ _____ _____    ______ ____
ROOT
ATOM      1  C   UNL     1       0.047   8.800  22.349  0.00  0.00    +0.000 C 
ATOM      2  C   UNL     1       0.622   9.053  20.990  0.00  0.00    +0.000 A 
ATOM      3  C   UNL     1       0.490  10.245  20.370  0.00  0.00    +0.000 A 
ATOM      4  C   UNL     1       1.071  10.443  19.054  0.00  0.00    +0.000 A 
ATOM      5  C   UNL     1       1.754   9.461  18.444  0.00  0.00    +0.000 A 
ATOM      6  C   UNL     1       1.915   8.203  19.076  0.00  0.00    +0.000 A 
ATOM      7  C   UNL     1       2.556   7.036  18.749  0.00  0.00    +0.000 A 
ATOM      8  C   UNL     1       2.282   6.166  19.821  0.00  0.00    +0.000 A 
ATOM      9  N   UNL     1       1.564   6.741  20.788  0.00  0.00    +0.000 NA
ATOM     10  N   UNL     1       1.331   8.017  20.338  0.00  0.00    +0.000 N 
ATOM     11  C   UNL     1       2.805   4.769  19.888  0.00  0.00    +0.000 C 
ATOM     12  C   UNL     1       3.366   4.336  18.517  0.00  0.00    +0.000 C 
ATOM     13  C   UNL     1       4.272   5.422  17.854  0.00  0.00    +0.000 C 
ATOM     14  C   UNL     1       5.439   5.853  18.772  0.00  0.00    +0.000 C 
ATOM     15  C   UNL     1       3.378   6.672  17.562  0.00  0.00    +0.000 C 
ENDROOT
BRANCH  13  16
ATOM     16  N   UNL     1       4.816   4.914  16.578  0.00  0.00    +0.000 N 
ATOM     17  C   UNL     1       5.729   5.600  15.806  0.00  0.00    +0.000 C 
ATOM     18  O   UNL     1       6.194   6.704  16.094  0.00  0.00    +0.000 OA
ATOM     19  H   UNL     1       4.464   4.028  16.238  0.00  0.00    +0.000 HD
BRANCH  17  20
ATOM     20  C   UNL     1       6.149   4.955  14.544  0.00  0.00    +0.000 A 
ATOM     21  C   UNL     1       7.365   5.355  13.970  0.00  0.00    +0.000 A 
ATOM     22  C   UNL     1       7.817   4.750  12.801  0.00  0.00    +0.000 A 
ATOM     23  C   UNL     1       7.039   3.768  12.200  0.00  0.00    +0.000 A 
ATOM     24  F   UNL     1       7.465   3.193  11.067  0.00  0.00    +0.000 F 
ATOM     25  C   UNL     1       5.819   3.378  12.741  0.00  0.00    +0.000 A 
ATOM     26  C   UNL     1       5.374   3.962  13.927  0.00  0.00    +0.000 A 
ENDBRANCH  17  20
ENDBRANCH  13  16
BRANCH   5  27
ATOM     27  O   UNL     1       2.326   9.577  17.201  0.00  0.00    +0.000 OA
ATOM     28  H   UNL     1       1.884   8.951  16.607  0.00  0.00    +0.000 HD
ENDBRANCH   5  27
TORSDOF 3
ENDMDL
MODEL 2
REMARK VINA RESULT:      -7.7      3.368      5.277
REMARK  Name = 
REMARK  5 active torsions:
REMARK  status: ('A' for Active; 'I' for Inactive)
REMARK    1  A    between atoms: C_1  and  C_2
REMARK    2  A    between atoms: C_5  and  O_6
REMARK    3  A    between atoms: C_14  and  C_15
REMARK    4  A    between atoms: C_14  and  N_16
REMARK    5  A    between atoms: C_17  and  C_19
REMARK                            x       y       z     vdW  Elec       q    Type
REMARK                         _______ _______ _______ _____ _____    ______ ____
ROOT
ATOM      1  C   UNL     1      -4.355  12.977  20.243  0.00  0.00    +0.000 C 
ATOM      2  C   UNL     1      -3.890  12.137  19.093  0.00  0.00    +0.000 A 
ATOM      3  C   UNL     1      -4.640  11.970  17.983  0.00  0.00    +0.000 A 
ATOM      4  C   UNL     1      -4.143  11.149  16.893  0.00  0.00    +0.000 A 
ATOM      5  C   UNL     1      -2.938  10.562  16.963  0.00  0.00    +0.000 A 
ATOM      6  C   UNL     1      -2.127  10.728  18.113  0.00  0.00    +0.000 A 
ATOM      7  C   UNL     1      -0.877  10.300  18.480  0.00  0.00    +0.000 A 
ATOM      8  C   UNL     1      -0.696  10.802  19.783  0.00  0.00    +0.000 A 
ATOM      9  N   UNL     1      -1.727  11.538  20.205  0.00  0.00    +0.000 NA
ATOM     10  N   UNL     1      -2.627  11.505  19.169  0.00  0.00    +0.000 N 
ATOM     11  C   UNL     1       0.552  10.583  20.573  0.00  0.00    +0.000 C 
ATOM     12  C   UNL     1       1.421   9.490  19.917  0.00  0.00    +0.000 C 
ATOM     13  C   UNL     1       1.559   9.660  18.370  0.00  0.00    +0.000 C 
ATOM     14  C   UNL     1       2.106  11.053  17.981  0.00  0.00    +0.000 C 
ATOM     15  C   UNL     1       0.135   9.491  17.746  0.00  0.00    +0.000 C 
ENDROOT
BRANCH  13  16
ATOM     16  N   UNL     1       2.449   8.615  17.825  0.00  0.00    +0.000 N 
ATOM     17  C   UNL     1       2.605   7.370  18.391  0.00  0.00    +0.000 C 
ATOM     18  O   UNL     1       2.021   6.987  19.407  0.00  0.00    +0.000 OA
ATOM     19  H   UNL     1       3.002   8.850  17.010  0.00  0.00    +0.000 HD
BRANCH  17  20
ATOM     20  C   UNL     1       3.558   6.453  17.728  0.00  0.00    +0.000 A 
ATOM     21  C   UNL     1       3.471   5.084  18.019  0.00  0.00    +0.000 A 
ATOM     22  C   UNL     1       4.324   4.181  17.392  0.00  0.00    +0.000 A 
ATOM     23  C   UNL     1       5.274   4.655  16.495  0.00  0.00    +0.000 A 
ATOM     24  F   UNL     1       6.106   3.790  15.899  0.00  0.00    +0.000 F 
ATOM     25  C   UNL     1       5.391   6.012  16.214  0.00  0.00    +0.000 A 
ATOM     26  C   UNL     1       4.520   6.918  16.820  0.00  0.00    +0.000 A 
ENDBRANCH  17  20
ENDBRANCH  13  16
BRANCH   5  27
ATOM     27  O   UNL     1      -2.407   9.771  15.973  0.00  0.00    +0.000 OA
ATOM     28  H   UNL     1      -2.975   8.993  15.873  0.00  0.00    +0.000 HD
ENDBRANCH   5  27
TORSDOF 3
ENDMDL
MODEL 3
REMARK VINA RESULT:      -7.4      3.778      6.339
REMARK  Name = 
REMARK  5 active torsions:
REMARK  status: ('A' for Active; 'I' for Inactive)
REMARK    1  A    between atoms: C_1  and  C_2
REMARK    2  A    between atoms: C_5  and  O_6
REMARK    3  A    between atoms: C_14  and  C_15
REMARK    4  A    between atoms: C_14  and  N_16
REMARK    5  A    between atoms: C_17  and  C_19
REMARK                            x       y       z     vdW  Elec       q    Type
REMARK                         _______ _______ _______ _____ _____    ______ ____
ROOT
ATOM      1  C   UNL     1      -0.915  16.913  18.890  0.00  0.00    +0.000 C 
ATOM      2  C   UNL     1       0.311  16.082  18.672  0.00  0.00    +0.000 A 
ATOM      3  C   UNL     1       1.505  16.636  18.375  0.00  0.00    +0.000 A 
ATOM      4  C   UNL     1       2.667  15.787  18.178  0.00  0.00    +0.000 A 
ATOM      5  C   UNL     1       2.578  14.453  18.300  0.00  0.00    +0.000 A 
ATOM      6  C   UNL     1       1.338  13.846  18.620  0.00  0.00    +0.000 A 
ATOM      7  C   UNL     1       0.925  12.556  18.837  0.00  0.00    +0.000 A 
ATOM      8  C   UNL     1      -0.458  12.660  19.077  0.00  0.00    +0.000 A 
ATOM      9  N   UNL     1      -0.895  13.922  19.066  0.00  0.00    +0.000 NA
ATOM     10  N   UNL     1       0.218  14.675  18.787  0.00  0.00    +0.000 N 
ATOM     11  C   UNL     1      -1.322  11.481  19.379  0.00  0.00    +0.000 C 
ATOM     12  C   UNL     1      -0.575  10.169  19.059  0.00  0.00    +0.000 C 
ATOM     13  C   UNL     1       0.893  10.152  19.591  0.00  0.00    +0.000 C 
ATOM     14  C   UNL     1       0.967  10.426  21.111  0.00  0.00    +0.000 C 
ATOM     15  C   UNL     1       1.682  11.274  18.842  0.00  0.00    +0.000 C 
ENDROOT
BRANCH  13  16
ATOM     16  N   UNL     1       1.521   8.847  19.299  0.00  0.00    +0.000 N 
ATOM     17  C   UNL     1       2.138   8.544  18.105  0.00  0.00    +0.000 C 
ATOM     18  O   UNL     1       2.238   9.322  17.155  0.00  0.00    +0.000 OA
ATOM     19  H   UNL     1       1.455   8.126  20.007  0.00  0.00    +0.000 HD
BRANCH  17  20
ATOM     20  C   UNL     1       2.692   7.180  17.972  0.00  0.00    +0.000 A 
ATOM     21  C   UNL     1       3.987   7.040  17.451  0.00  0.00    +0.000 A 
ATOM     22  C   UNL     1       4.563   5.777  17.340  0.00  0.00    +0.000 A 
ATOM     23  C   UNL     1       3.831   4.661  17.728  0.00  0.00    +0.000 A 
ATOM     24  F   UNL     1       4.377   3.443  17.610  0.00  0.00    +0.000 F 
ATOM     25  C   UNL     1       2.536   4.779  18.222  0.00  0.00    +0.000 A 
ATOM     26  C   UNL     1       1.965   6.045  18.360  0.00  0.00    +0.000 A 
ENDBRANCH  17  20
ENDBRANCH  13  16
BRANCH   5  27
ATOM     27  O   UNL     1       3.632  13.591  18.125  0.00  0.00    +0.000 OA
ATOM     28  H   UNL     1       3.275  12.696  18.021  0.00  0.00    +0.000 HD
ENDBRANCH   5  27
TORSDOF 3
ENDMDL
MODEL 4
REMARK VINA RESULT:      -7.4      4.758      6.587
REMARK  Name = 
REMARK  5 active torsions:
REMARK  status: ('A' for Active; 'I' for Inactive)
REMARK    1  A    between atoms: C_1  and  C_2
REMARK    2  A    between atoms: C_5  and  O_6
REMARK    3  A    between atoms: C_14  and  C_15
REMARK    4  A    between atoms: C_14  and  N_16
REMARK    5  A    between atoms: C_17  and  C_19
REMARK                            x       y       z     vdW  Elec       q    Type
REMARK                         _______ _______ _______ _____ _____    ______ ____
ROOT
ATOM      1  C   UNL     1       2.444   1.693  18.025  0.00  0.00    +0.000 C 
ATOM      2  C   UNL     1       2.530   3.099  18.532  0.00  0.00    +0.000 A 
ATOM      3  C   UNL     1       1.638   3.595  19.415  0.00  0.00    +0.000 A 
ATOM      4  C   UNL     1       1.768   4.964  19.881  0.00  0.00    +0.000 A 
ATOM      5  C   UNL     1       2.773   5.747  19.458  0.00  0.00    +0.000 A 
ATOM      6  C   UNL     1       3.729   5.249  18.538  0.00  0.00    +0.000 A 
ATOM      7  C   UNL     1       4.855   5.761  17.947  0.00  0.00    +0.000 A 
ATOM      8  C   UNL     1       5.314   4.732  17.102  0.00  0.00    +0.000 A 
ATOM      9  N   UNL     1       4.573   3.625  17.181  0.00  0.00    +0.000 NA
ATOM     10  N   UNL     1       3.581   3.931  18.078  0.00  0.00    +0.000 N 
ATOM     11  C   UNL     1       6.544   4.856  16.264  0.00  0.00    +0.000 C 
ATOM     12  C   UNL     1       7.009   6.326  16.202  0.00  0.00    +0.000 C 
ATOM     13  C   UNL     1       7.003   7.032  17.596  0.00  0.00    +0.000 C 
ATOM     14  C   UNL     1       7.850   6.270  18.641  0.00  0.00    +0.000 C 
ATOM     15  C   UNL     1       5.522   7.084  18.095  0.00  0.00    +0.000 C 
ENDROOT
BRANCH  13  16
ATOM     16  N   UNL     1       7.513   8.412  17.465  0.00  0.00    +0.000 N 
ATOM     17  C   UNL     1       8.433   8.973  18.323  0.00  0.00    +0.000 C 
ATOM     18  O   UNL     1       8.934   8.391  19.286  0.00  0.00    +0.000 OA
ATOM     19  H   UNL     1       7.131   8.984  16.723  0.00  0.00    +0.000 HD
BRANCH  17  20
ATOM     20  C   UNL     1       8.817  10.377  18.060  0.00  0.00    +0.000 A 
ATOM     21  C   UNL     1      10.151  10.750  18.275  0.00  0.00    +0.000 A 
ATOM     22  C   UNL     1      10.564  12.053  18.008  0.00  0.00    +0.000 A 
ATOM     23  C   UNL     1       9.635  12.978  17.549  0.00  0.00    +0.000 A 
ATOM     24  F   UNL     1      10.026  14.236  17.304  0.00  0.00    +0.000 F 
ATOM     25  C   UNL     1       8.302  12.632  17.355  0.00  0.00    +0.000 A 
ATOM     26  C   UNL     1       7.889  11.322  17.596  0.00  0.00    +0.000 A 
ENDBRANCH  17  20
ENDBRANCH  13  16
BRANCH   5  27
ATOM     27  O   UNL     1       2.955   7.050  19.854  0.00  0.00    +0.000 OA
ATOM     28  H   UNL     1       2.237   7.581  19.478  0.00  0.00    +0.000 HD
ENDBRANCH   5  27
TORSDOF 3
ENDMDL
MODEL 5
REMARK VINA RESULT:      -7.3      3.942      6.716
REMARK  Name = 
REMARK  5 active torsions:
REMARK  status: ('A' for Active; 'I' for Inactive)
REMARK    1  A    between atoms: C_1  and  C_2
REMARK    2  A    between atoms: C_5  and  O_6
REMARK    3  A    between atoms: C_14  and  C_15
REMARK    4  A    between atoms: C_14  and  N_16
REMARK    5  A    between atoms: C_17  and  C_19
REMARK                            x       y       z     vdW  Elec       q    Type
REMARK                         _______ _______ _______ _____ _____    ______ ____
ROOT
ATOM      1  C   UNL     1      -2.459  16.195  21.595  0.00  0.00    +0.000 C 
ATOM      2  C   UNL     1      -2.263  14.800  22.102  0.00  0.00    +0.000 A 
ATOM      3  C   UNL     1      -2.878  14.352  23.217  0.00  0.00    +0.000 A 
ATOM      4  C   UNL     1      -2.659  12.989  23.664  0.00  0.00    +0.000 A 
ATOM      5  C   UNL     1      -1.861  12.154  22.979  0.00  0.00    +0.000 A 
ATOM      6  C   UNL     1      -1.209  12.596  21.801  0.00  0.00    +0.000 A 
ATOM      7  C   UNL     1      -0.377  12.008  20.883  0.00  0.00    +0.000 A 
ATOM      8  C   UNL     1      -0.067  13.037  19.973  0.00  0.00    +0.000 A 
ATOM      9  N   UNL     1      -0.690  14.184  20.252  0.00  0.00    +0.000 NA
ATOM     10  N   UNL     1      -1.412  13.922  21.389  0.00  0.00    +0.000 N 
ATOM     11  C   UNL     1       0.814  12.833  18.784  0.00  0.00    +0.000 C 
ATOM     12  C   UNL     1       1.569  11.492  18.896  0.00  0.00    +0.000 C 
ATOM     13  C   UNL     1       0.654  10.306  19.337  0.00  0.00    +0.000 C 
ATOM     14  C   UNL     1      -0.566  10.130  18.403  0.00  0.00    +0.000 C 
ATOM     15  C   UNL     1       0.138  10.615  20.780  0.00  0.00    +0.000 C 
ENDROOT
BRANCH  13  16
ATOM     16  N   UNL     1       1.432   9.051  19.365  0.00  0.00    +0.000 N 
ATOM     17  C   UNL     1       2.131   8.557  18.285  0.00  0.00    +0.000 C 
ATOM     18  O   UNL     1       2.188   9.106  17.183  0.00  0.00    +0.000 OA
ATOM     19  H   UNL     1       1.415   8.507  20.219  0.00  0.00    +0.000 HD
BRANCH  17  20
ATOM     20  C   UNL     1       2.836   7.273  18.480  0.00  0.00    +0.000 A 
ATOM     21  C   UNL     1       3.823   6.912  17.551  0.00  0.00    +0.000 A 
ATOM     22  C   UNL     1       4.536   5.727  17.715  0.00  0.00    +0.000 A 
ATOM     23  C   UNL     1       4.242   4.902  18.793  0.00  0.00    +0.000 A 
ATOM     24  F   UNL     1       4.918   3.755  18.946  0.00  0.00    +0.000 F 
ATOM     25  C   UNL     1       3.249   5.231  19.709  0.00  0.00    +0.000 A 
ATOM     26  C   UNL     1       2.550   6.430  19.564  0.00  0.00    +0.000 A 
ENDBRANCH  17  20
ENDBRANCH  13  16
BRANCH   5  27
ATOM     27  O   UNL     1      -1.606  10.855  23.346  0.00  0.00    +0.000 OA
ATOM     28  H   UNL     1      -1.775  10.773  24.297  0.00  0.00    +0.000 HD
ENDBRANCH   5  27
TORSDOF 3
ENDMDL
MODEL 6
REMARK VINA RESULT:      -7.3      4.574      6.399
REMARK  Name = 
REMARK  5 active torsions:
REMARK  status: ('A' for Active; 'I' for Inactive)
REMARK    1  A    between atoms: C_1  and  C_2
REMARK    2  A    between atoms: C_5  and  O_6
REMARK    3  A    between atoms: C_14  and  C_15
REMARK    4  A    between atoms: C_14  and  N_16
REMARK    5  A    between atoms: C_17  and  C_19
REMARK                            x       y       z     vdW  Elec       q    Type
REMARK                         _______ _______ _______ _____ _____    ______ ____
ROOT
ATOM      1  C   UNL     1      -0.196  15.594  20.994  0.00  0.00    +0.000 C 
ATOM      2  C   UNL     1       0.419  14.520  20.151  0.00  0.00    +0.000 A 
ATOM      3  C   UNL     1       1.098  14.802  19.019  0.00  0.00    +0.000 A 
ATOM      4  C   UNL     1       1.681  13.725  18.239  0.00  0.00    +0.000 A 
ATOM      5  C   UNL     1       1.568  12.446  18.632  0.00  0.00    +0.000 A 
ATOM      6  C   UNL     1       0.867  12.122  19.821  0.00  0.00    +0.000 A 
ATOM      7  C   UNL     1       0.600  10.959  20.494  0.00  0.00    +0.000 A 
ATOM      8  C   UNL     1      -0.185  11.355  21.594  0.00  0.00    +0.000 A 
ATOM      9  N   UNL     1      -0.366  12.676  21.655  0.00  0.00    +0.000 NA
ATOM     10  N   UNL     1       0.290  13.170  20.555  0.00  0.00    +0.000 N 
ATOM     11  C   UNL     1      -0.695  10.395  22.618  0.00  0.00    +0.000 C 
ATOM     12  C   UNL     1      -0.537   8.943  22.121  0.00  0.00    +0.000 C 
ATOM     13  C   UNL     1       0.863   8.658  21.490  0.00  0.00    +0.000 C 
ATOM     14  C   UNL     1       2.022   8.999  22.456  0.00  0.00    +0.000 C 
ATOM     15  C   UNL     1       0.999   9.552  20.214  0.00  0.00    +0.000 C 
ENDROOT
BRANCH  13  16
ATOM     16  N   UNL     1       0.959   7.239  21.093  0.00  0.00    +0.000 N 
ATOM     17  C   UNL     1       1.886   6.754  20.196  0.00  0.00    +0.000 C 
ATOM     18  O   UNL     1       2.736   7.445  19.632  0.00  0.00    +0.000 OA
ATOM     19  H   UNL     1       0.276   6.598  21.477  0.00  0.00    +0.000 HD
BRANCH  17  20
ATOM     20  C   UNL     1       1.825   5.308  19.893  0.00  0.00    +0.000 A 
ATOM     21  C   UNL     1       1.708   4.412  20.965  0.00  0.00    +0.000 A 
ATOM     22  C   UNL     1       1.612   3.044  20.724  0.00  0.00    +0.000 A 
ATOM     23  C   UNL     1       1.657   2.581  19.415  0.00  0.00    +0.000 A 
ATOM     24  F   UNL     1       1.578   1.264  19.180  0.00  0.00    +0.000 F 
ATOM     25  C   UNL     1       1.799   3.454  18.341  0.00  0.00    +0.000 A 
ATOM     26  C   UNL     1       1.868   4.827  18.576  0.00  0.00    +0.000 A 
ENDBRANCH  17  20
ENDBRANCH  13  16
BRANCH   5  27
ATOM     27  O   UNL     1       2.090  11.378  17.943  0.00  0.00    +0.000 OA
ATOM     28  H   UNL     1       1.934  10.578  18.466  0.00  0.00    +0.000 HD
ENDBRANCH   5  27
TORSDOF 3
ENDMDL
MODEL 7
REMARK VINA RESULT:      -7.3      4.853      6.731
REMARK  Name = 
REMARK  5 active torsions:
REMARK  status: ('A' for Active; 'I' for Inactive)
REMARK    1  A    between atoms: C_1  and  C_2
REMARK    2  A    between atoms: C_5  and  O_6
REMARK    3  A    between atoms: C_14  and  C_15
REMARK    4  A    between atoms: C_14  and  N_16
REMARK    5  A    between atoms: C_17  and  C_19
REMARK                            x       y       z     vdW  Elec       q    Type
REMARK                         _______ _______ _______ _____ _____    ______ ____
ROOT
ATOM      1  C   UNL     1       2.693   1.790  17.750  0.00  0.00    +0.000 C 
ATOM      2  C   UNL     1       2.706   3.228  18.167  0.00  0.00    +0.000 A 
ATOM      3  C   UNL     1       1.706   3.770  18.894  0.00  0.00    +0.000 A 
ATOM      4  C   UNL     1       1.768   5.169  19.277  0.00  0.00    +0.000 A 
ATOM      5  C   UNL     1       2.814   5.936  18.932  0.00  0.00    +0.000 A 
ATOM      6  C   UNL     1       3.882   5.390  18.177  0.00  0.00    +0.000 A 
ATOM      7  C   UNL     1       5.071   5.878  17.699  0.00  0.00    +0.000 A 
ATOM      8  C   UNL     1       5.640   4.801  16.992  0.00  0.00    +0.000 A 
ATOM      9  N   UNL     1       4.901   3.691  17.052  0.00  0.00    +0.000 NA
ATOM     10  N   UNL     1       3.801   4.043  17.793  0.00  0.00    +0.000 N 
ATOM     11  C   UNL     1       6.965   4.886  16.309  0.00  0.00    +0.000 C 
ATOM     12  C   UNL     1       7.426   6.355  16.206  0.00  0.00    +0.000 C 
ATOM     13  C   UNL     1       7.239   7.153  17.536  0.00  0.00    +0.000 C 
ATOM     14  C   UNL     1       7.951   6.475  18.730  0.00  0.00    +0.000 C 
ATOM     15  C   UNL     1       5.706   7.217  17.839  0.00  0.00    +0.000 C 
ENDROOT
BRANCH  13  16
ATOM     16  N   UNL     1       7.754   8.528  17.376  0.00  0.00    +0.000 N 
ATOM     17  C   UNL     1       8.550   9.161  18.305  0.00  0.00    +0.000 C 
ATOM     18  O   UNL     1       8.924   8.654  19.364  0.00  0.00    +0.000 OA
ATOM     19  H   UNL     1       7.469   9.042  16.552  0.00  0.00    +0.000 HD
BRANCH  17  20
ATOM     20  C   UNL     1       8.956  10.549  17.997  0.00  0.00    +0.000 A 
ATOM     21  C   UNL     1       7.950  11.489  17.732  0.00  0.00    +0.000 A 
ATOM     22  C   UNL     1       8.285  12.816  17.471  0.00  0.00    +0.000 A 
ATOM     23  C   UNL     1       9.624  13.187  17.454  0.00  0.00    +0.000 A 
ATOM     24  F   UNL     1       9.950  14.459  17.190  0.00  0.00    +0.000 F 
ATOM     25  C   UNL     1      10.636  12.262  17.689  0.00  0.00    +0.000 A 
ATOM     26  C   UNL     1      10.304  10.938  17.977  0.00  0.00    +0.000 A 
ENDBRANCH  17  20
ENDBRANCH  13  16
BRANCH   5  27
ATOM     27  O   UNL     1       2.937   7.265  19.257  0.00  0.00    +0.000 OA
ATOM     28  H   UNL     1       3.769   7.381  19.741  0.00  0.00    +0.000 HD
ENDBRANCH   5  27
TORSDOF 3
ENDMDL
MODEL 8
REMARK VINA RESULT:      -7.3      4.809      8.984
REMARK  Name = 
REMARK  5 active torsions:
REMARK  status: ('A' for Active; 'I' for Inactive)
REMARK    1  A    between atoms: C_1  and  C_2
REMARK    2  A    between atoms: C_5  and  O_6
REMARK    3  A    between atoms: C_14  and  C_15
REMARK    4  A    between atoms: C_14  and  N_16
REMARK    5  A    between atoms: C_17  and  C_19
REMARK                            x       y       z     vdW  Elec       q    Type
REMARK                         _______ _______ _______ _____ _____    ______ ____
ROOT
ATOM      1  C   UNL     1       2.200   4.454  20.998  0.00  0.00    +0.000 C 
ATOM      2  C   UNL     1       2.464   5.487  19.946  0.00  0.00    +0.000 A 
ATOM      3  C   UNL     1       3.181   5.209  18.837  0.00  0.00    +0.000 A 
ATOM      4  C   UNL     1       3.405   6.243  17.843  0.00  0.00    +0.000 A 
ATOM      5  C   UNL     1       2.897   7.476  18.001  0.00  0.00    +0.000 A 
ATOM      6  C   UNL     1       2.134   7.793  19.152  0.00  0.00    +0.000 A 
ATOM      7  C   UNL     1       1.473   8.911  19.592  0.00  0.00    +0.000 A 
ATOM      8  C   UNL     1       0.948   8.546  20.846  0.00  0.00    +0.000 A 
ATOM      9  N   UNL     1       1.206   7.276  21.168  0.00  0.00    +0.000 NA
ATOM     10  N   UNL     1       1.942   6.791  20.116  0.00  0.00    +0.000 N 
ATOM     11  C   UNL     1       0.131   9.470  21.687  0.00  0.00    +0.000 C 
ATOM     12  C   UNL     1       0.241  10.917  21.161  0.00  0.00    +0.000 C 
ATOM     13  C   UNL     1       0.092  11.019  19.609  0.00  0.00    +0.000 C 
ATOM     14  C   UNL     1      -1.227  10.390  19.105  0.00  0.00    +0.000 C 
ATOM     15  C   UNL     1       1.291  10.250  18.965  0.00  0.00    +0.000 C 
ENDROOT
BRANCH  13  16
ATOM     16  N   UNL     1       0.150  12.434  19.189  0.00  0.00    +0.000 N 
ATOM     17  C   UNL     1       1.196  13.280  19.486  0.00  0.00    +0.000 C 
ATOM     18  O   UNL     1       2.196  12.953  20.127  0.00  0.00    +0.000 OA
ATOM     19  H   UNL     1      -0.647  12.807  18.688  0.00  0.00    +0.000 HD
BRANCH  17  20
ATOM     20  C   UNL     1       1.079  14.675  19.008  0.00  0.00    +0.000 A 
ATOM     21  C   UNL     1       2.257  15.362  18.680  0.00  0.00    +0.000 A 
ATOM     22  C   UNL     1       2.192  16.665  18.193  0.00  0.00    +0.000 A 
ATOM     23  C   UNL     1       0.952  17.279  18.061  0.00  0.00    +0.000 A 
ATOM     24  F   UNL     1       0.887  18.538  17.605  0.00  0.00    +0.000 F 
ATOM     25  C   UNL     1      -0.223  16.621  18.407  0.00  0.00    +0.000 A 
ATOM     26  C   UNL     1      -0.165  15.306  18.869  0.00  0.00    +0.000 A 
ENDBRANCH  17  20
ENDBRANCH  13  16
BRANCH   5  27
ATOM     27  O   UNL     1       3.072   8.503  17.105  0.00  0.00    +0.000 OA
ATOM     28  H   UNL     1       3.121   9.332  17.604  0.00  0.00    +0.000 HD
ENDBRANCH   5  27
TORSDOF 3
ENDMDL
MODEL 9
REMARK VINA RESULT:      -7.2      4.201      7.103
REMARK  Name = 
REMARK  5 active torsions:
REMARK  status: ('A' for Active; 'I' for Inactive)
REMARK    1  A    between atoms: C_1  and  C_2
REMARK    2  A    between atoms: C_5  and  O_6
REMARK    3  A    between atoms: C_14  and  C_15
REMARK    4  A    between atoms: C_14  and  N_16
REMARK    5  A    between atoms: C_17  and  C_19
REMARK                            x       y       z     vdW  Elec       q    Type
REMARK                         _______ _______ _______ _____ _____    ______ ____
ROOT
ATOM      1  C   UNL     1      -2.984  16.390  21.565  0.00  0.00    +0.000 C 
ATOM      2  C   UNL     1      -2.735  15.009  22.087  0.00  0.00    +0.000 A 
ATOM      3  C   UNL     1      -3.317  14.557  23.218  0.00  0.00    +0.000 A 
ATOM      4  C   UNL     1      -3.048  13.208  23.680  0.00  0.00    +0.000 A 
ATOM      5  C   UNL     1      -2.235  12.389  22.993  0.00  0.00    +0.000 A 
ATOM      6  C   UNL     1      -1.617  12.835  21.798  0.00  0.00    +0.000 A 
ATOM      7  C   UNL     1      -0.781  12.261  20.874  0.00  0.00    +0.000 A 
ATOM      8  C   UNL     1      -0.519  13.287  19.945  0.00  0.00    +0.000 A 
ATOM      9  N   UNL     1      -1.174  14.417  20.219  0.00  0.00    +0.000 NA
ATOM     10  N   UNL     1      -1.868  14.148  21.372  0.00  0.00    +0.000 N 
ATOM     11  C   UNL     1       0.348  13.094  18.745  0.00  0.00    +0.000 C 
ATOM     12  C   UNL     1       1.148  11.780  18.863  0.00  0.00    +0.000 C 
ATOM     13  C   UNL     1       0.278  10.571  19.334  0.00  0.00    +0.000 C 
ATOM     14  C   UNL     1      -0.951  10.344  18.424  0.00  0.00    +0.000 C 
ATOM     15  C   UNL     1      -0.224  10.884  20.782  0.00  0.00    +0.000 C 
ENDROOT
BRANCH  13  16
ATOM     16  N   UNL     1       1.097   9.342  19.366  0.00  0.00    +0.000 N 
ATOM     17  C   UNL     1       1.908   8.934  18.330  0.00  0.00    +0.000 C 
ATOM     18  O   UNL     1       2.045   9.546  17.270  0.00  0.00    +0.000 OA
ATOM     19  H   UNL     1       1.021   8.750  20.184  0.00  0.00    +0.000 HD
BRANCH  17  20
ATOM     20  C   UNL     1       2.640   7.663  18.520  0.00  0.00    +0.000 A 
ATOM     21  C   UNL     1       2.330   6.882  19.643  0.00  0.00    +0.000 A 
ATOM     22  C   UNL     1       2.969   5.662  19.843  0.00  0.00    +0.000 A 
ATOM     23  C   UNL     1       3.930   5.242  18.931  0.00  0.00    +0.000 A 
ATOM     24  F   UNL     1       4.557   4.074  19.128  0.00  0.00    +0.000 F 
ATOM     25  C   UNL     1       4.268   6.016  17.826  0.00  0.00    +0.000 A 
ATOM     26  C   UNL     1       3.611   7.227  17.607  0.00  0.00    +0.000 A 
ENDBRANCH  17  20
ENDBRANCH  13  16
BRANCH   5  27
ATOM     27  O   UNL     1      -1.933  11.105  23.373  0.00  0.00    +0.000 OA
ATOM     28  H   UNL     1      -2.155  11.008  24.311  0.00  0.00    +0.000 HD
ENDBRANCH   5  27
TORSDOF 3
ENDMDL
