MODEL 1
REMARK VINA RESULT:      -8.0      0.000      0.000
REMARK  Name = 
REMARK  10 active torsions:
REMARK  status: ('A' for Active; 'I' for Inactive)
REMARK    1  A    between atoms: C_1  and  O_2
REMARK    2  A    between atoms: O_2  and  C_3
REMARK    3  A    between atoms: C_3  and  C_5
REMARK    4  A    between atoms: C_7  and  C_8
REMARK    5  A    between atoms: C_9  and  C_10
REMARK    6  A    between atoms: C_13  and  C_14
REMARK    7  A    between atoms: C_14  and  C_15
REMARK    8  A    between atoms: C_15  and  C_16
REMARK    9  A    between atoms: C_15  and  N_17
REMARK   10  A    between atoms: C_18  and  C_19
REMARK                            x       y       z     vdW  Elec       q    Type
REMARK                         _______ _______ _______ _____ _____    ______ ____
ROOT
ATOM      1  C   UNL     1       7.154   7.129  17.562  0.00  0.00    +0.000 A 
ATOM      2  C   UNL     1       5.923   7.364  16.952  0.00  0.00    +0.000 A 
ATOM      3  C   UNL     1       5.064   6.304  16.669  0.00  0.00    +0.000 A 
ATOM      4  C   UNL     1       5.440   4.987  16.964  0.00  0.00    +0.000 A 
ATOM      5  C   UNL     1       6.681   4.756  17.576  0.00  0.00    +0.000 A 
ATOM      6  C   UNL     1       7.537   5.824  17.875  0.00  0.00    +0.000 A 
ENDROOT
BRANCH   1   8
ATOM      7  C   UNL     1       8.550   9.245  18.245  0.00  0.00    +0.000 C 
ATOM      8  C   UNL     1       7.969   8.256  17.894  0.00  0.00    +0.000 C 
BRANCH   7  11
ATOM      9  C   UNL     1      10.209  12.556  18.378  0.00  0.00    +0.000 A 
ATOM     10  C   UNL     1       9.632  11.409  17.845  0.00  0.00    +0.000 A 
ATOM     11  C   UNL     1       9.185  10.431  18.732  0.00  0.00    +0.000 A 
ATOM     12  C   UNL     1       9.327  10.621  20.103  0.00  0.00    +0.000 A 
ATOM     13  C   UNL     1       9.909  11.795  20.541  0.00  0.00    +0.000 A 
ATOM     14  N   UNL     1      10.353  12.764  19.715  0.00  0.00    +0.000 NA
BRANCH   9  15
ATOM     15  C   UNL     1      10.710  13.621  17.451  0.00  0.00    +0.000 C 
ATOM     16  O   UNL     1      11.347  13.394  16.432  0.00  0.00    +0.000 OA
BRANCH  15  18
ATOM     17  C   UNL     1      10.807  15.944  17.121  0.00  0.00    +0.000 C 
ATOM     18  O   UNL     1      10.359  14.848  17.915  0.00  0.00    +0.000 OA
ENDBRANCH  15  18
ENDBRANCH   9  15
ENDBRANCH   7  11
ENDBRANCH   1   8
BRANCH   4  19
ATOM     19  C   UNL     1       4.514   3.840  16.620  0.00  0.00    +0.000 C 
BRANCH  19  20
ATOM     20  C   UNL     1       3.498   3.503  17.741  0.00  0.00    +0.000 C 
ATOM     21  C   UNL     1       3.949   2.280  18.546  0.00  0.00    +0.000 C 
BRANCH  20  22
ATOM     22  N   UNL     1       3.295   4.631  18.653  0.00  0.00    +0.000 N 
ATOM     23  C   UNL     1       2.125   4.805  19.360  0.00  0.00    +0.000 C 
ATOM     24  C   UNL     1       2.138   5.984  20.299  0.00  0.00    +0.000 C 
ATOM     25  O   UNL     1       1.138   4.089  19.234  0.00  0.00    +0.000 OA
ATOM     26  H   UNL     1       4.109   5.153  18.949  0.00  0.00    +0.000 HD
ENDBRANCH  20  22
ENDBRANCH  19  20
ENDBRANCH   4  19
TORSDOF 7
ENDMDL
MODEL 2
REMARK VINA RESULT:      -8.0      0.512      1.090
REMARK  Name = 
REMARK  10 active torsions:
REMARK  status: ('A' for Active; 'I' for Inactive)
REMARK    1  A    between atoms: C_1  and  O_2
REMARK    2  A    between atoms: O_2  and  C_3
REMARK    3  A    between atoms: C_3  and  C_5
REMARK    4  A    between atoms: C_7  and  C_8
REMARK    5  A    between atoms: C_9  and  C_10
REMARK    6  A    between atoms: C_13  and  C_14
REMARK    7  A    between atoms: C_14  and  C_15
REMARK    8  A    between atoms: C_15  and  C_16
REMARK    9  A    between atoms: C_15  and  N_17
REMARK   10  A    between atoms: C_18  and  C_19
REMARK                            x       y       z     vdW  Elec       q    Type
REMARK                         _______ _______ _______ _____ _____    ______ ____
ROOT
ATOM      1  C   UNL     1       7.122   7.099  17.689  0.00  0.00    +0.000 A 
ATOM      2  C   UNL     1       7.549   5.840  18.110  0.00  0.00    +0.000 A 
ATOM      3  C   UNL     1       6.804   4.705  17.801  0.00  0.00    +0.000 A 
ATOM      4  C   UNL     1       5.600   4.816  17.092  0.00  0.00    +0.000 A 
ATOM      5  C   UNL     1       5.174   6.085  16.673  0.00  0.00    +0.000 A 
ATOM      6  C   UNL     1       5.933   7.225  16.971  0.00  0.00    +0.000 A 
ENDROOT
BRANCH   1   8
ATOM      7  C   UNL     1       8.559   9.214  18.286  0.00  0.00    +0.000 C 
ATOM      8  C   UNL     1       7.957   8.225  17.972  0.00  0.00    +0.000 C 
BRANCH   7  11
ATOM      9  C   UNL     1      10.259  12.506  18.309  0.00  0.00    +0.000 A 
ATOM     10  C   UNL     1       9.652  11.358  17.815  0.00  0.00    +0.000 A 
ATOM     11  C   UNL     1       9.222  10.401  18.732  0.00  0.00    +0.000 A 
ATOM     12  C   UNL     1       9.409  10.612  20.095  0.00  0.00    +0.000 A 
ATOM     13  C   UNL     1      10.018  11.787  20.494  0.00  0.00    +0.000 A 
ATOM     14  N   UNL     1      10.446  12.736  19.638  0.00  0.00    +0.000 NA
BRANCH   9  15
ATOM     15  C   UNL     1      10.742  13.550  17.348  0.00  0.00    +0.000 C 
ATOM     16  O   UNL     1      11.615  13.357  16.514  0.00  0.00    +0.000 OA
BRANCH  15  18
ATOM     17  C   UNL     1      10.905  15.876  17.622  0.00  0.00    +0.000 C 
ATOM     18  O   UNL     1      10.078  14.717  17.553  0.00  0.00    +0.000 OA
ENDBRANCH  15  18
ENDBRANCH   9  15
ENDBRANCH   7  11
ENDBRANCH   1   8
BRANCH   4  19
ATOM     19  C   UNL     1       4.781   3.579  16.792  0.00  0.00    +0.000 C 
BRANCH  19  20
ATOM     20  C   UNL     1       3.370   3.596  17.433  0.00  0.00    +0.000 C 
ATOM     21  C   UNL     1       2.742   2.199  17.423  0.00  0.00    +0.000 C 
BRANCH  20  22
ATOM     22  N   UNL     1       3.400   4.100  18.809  0.00  0.00    +0.000 N 
ATOM     23  C   UNL     1       2.251   4.344  19.529  0.00  0.00    +0.000 C 
ATOM     24  C   UNL     1       2.493   4.789  20.948  0.00  0.00    +0.000 C 
ATOM     25  O   UNL     1       1.121   4.237  19.068  0.00  0.00    +0.000 OA
ATOM     26  H   UNL     1       4.274   4.040  19.316  0.00  0.00    +0.000 HD
ENDBRANCH  20  22
ENDBRANCH  19  20
ENDBRANCH   4  19
TORSDOF 7
ENDMDL
MODEL 3
REMARK VINA RESULT:      -7.8      1.599      1.796
REMARK  Name = 
REMARK  10 active torsions:
REMARK  status: ('A' for Active; 'I' for Inactive)
REMARK    1  A    between atoms: C_1  and  O_2
REMARK    2  A    between atoms: O_2  and  C_3
REMARK    3  A    between atoms: C_3  and  C_5
REMARK    4  A    between atoms: C_7  and  C_8
REMARK    5  A    between atoms: C_9  and  C_10
REMARK    6  A    between atoms: C_13  and  C_14
REMARK    7  A    between atoms: C_14  and  C_15
REMARK    8  A    between atoms: C_15  and  C_16
REMARK    9  A    between atoms: C_15  and  N_17
REMARK   10  A    between atoms: C_18  and  C_19
REMARK                            x       y       z     vdW  Elec       q    Type
REMARK                         _______ _______ _______ _____ _____    ______ ____
ROOT
ATOM      1  C   UNL     1       7.433   7.493  17.928  0.00  0.00    +0.000 A 
ATOM      2  C   UNL     1       6.280   7.448  17.146  0.00  0.00    +0.000 A 
ATOM      3  C   UNL     1       5.501   6.294  17.106  0.00  0.00    +0.000 A 
ATOM      4  C   UNL     1       5.883   5.154  17.826  0.00  0.00    +0.000 A 
ATOM      5  C   UNL     1       7.045   5.204  18.609  0.00  0.00    +0.000 A 
ATOM      6  C   UNL     1       7.819   6.370  18.661  0.00  0.00    +0.000 A 
ENDROOT
BRANCH   1   8
ATOM      7  C   UNL     1       8.710   9.775  18.157  0.00  0.00    +0.000 C 
ATOM      8  C   UNL     1       8.160   8.723  17.989  0.00  0.00    +0.000 C 
BRANCH   7  11
ATOM      9  C   UNL     1       9.423  13.406  18.359  0.00  0.00    +0.000 A 
ATOM     10  C   UNL     1       8.777  12.223  18.020  0.00  0.00    +0.000 A 
ATOM     11  C   UNL     1       9.347  11.024  18.444  0.00  0.00    +0.000 A 
ATOM     12  C   UNL     1      10.528  11.038  19.180  0.00  0.00    +0.000 A 
ATOM     13  C   UNL     1      11.096  12.263  19.474  0.00  0.00    +0.000 A 
ATOM     14  N   UNL     1      10.575  13.444  19.083  0.00  0.00    +0.000 NA
BRANCH   9  15
ATOM     15  C   UNL     1       8.841  14.712  17.909  0.00  0.00    +0.000 C 
ATOM     16  O   UNL     1       9.512  15.672  17.558  0.00  0.00    +0.000 OA
BRANCH  15  18
ATOM     17  C   UNL     1       6.907  15.209  19.145  0.00  0.00    +0.000 C 
ATOM     18  O   UNL     1       7.485  14.662  17.962  0.00  0.00    +0.000 OA
ENDBRANCH  15  18
ENDBRANCH   9  15
ENDBRANCH   7  11
ENDBRANCH   1   8
BRANCH   4  19
ATOM     19  C   UNL     1       5.047   3.894  17.748  0.00  0.00    +0.000 C 
BRANCH  19  20
ATOM     20  C   UNL     1       3.578   4.092  18.200  0.00  0.00    +0.000 C 
ATOM     21  C   UNL     1       2.601   3.530  17.163  0.00  0.00    +0.000 C 
BRANCH  20  22
ATOM     22  N   UNL     1       3.315   3.464  19.497  0.00  0.00    +0.000 N 
ATOM     23  C   UNL     1       2.426   3.994  20.405  0.00  0.00    +0.000 C 
ATOM     24  C   UNL     1       2.240   3.164  21.649  0.00  0.00    +0.000 C 
ATOM     25  O   UNL     1       1.842   5.060  20.247  0.00  0.00    +0.000 OA
ATOM     26  H   UNL     1       3.609   2.504  19.627  0.00  0.00    +0.000 HD
ENDBRANCH  20  22
ENDBRANCH  19  20
ENDBRANCH   4  19
TORSDOF 7
ENDMDL
MODEL 4
REMARK VINA RESULT:      -7.8      1.334      1.543
REMARK  Name = 
REMARK  10 active torsions:
REMARK  status: ('A' for Active; 'I' for Inactive)
REMARK    1  A    between atoms: C_1  and  O_2
REMARK    2  A    between atoms: O_2  and  C_3
REMARK    3  A    between atoms: C_3  and  C_5
REMARK    4  A    between atoms: C_7  and  C_8
REMARK    5  A    between atoms: C_9  and  C_10
REMARK    6  A    between atoms: C_13  and  C_14
REMARK    7  A    between atoms: C_14  and  C_15
REMARK    8  A    between atoms: C_15  and  C_16
REMARK    9  A    between atoms: C_15  and  N_17
REMARK   10  A    between atoms: C_18  and  C_19
REMARK                            x       y       z     vdW  Elec       q    Type
REMARK                         _______ _______ _______ _____ _____    ______ ____
ROOT
ATOM      1  C   UNL     1       7.548   7.334  17.942  0.00  0.00    +0.000 A 
ATOM      2  C   UNL     1       6.435   7.611  17.148  0.00  0.00    +0.000 A 
ATOM      3  C   UNL     1       5.591   6.582  16.738  0.00  0.00    +0.000 A 
ATOM      4  C   UNL     1       5.866   5.253  17.089  0.00  0.00    +0.000 A 
ATOM      5  C   UNL     1       6.988   4.981  17.885  0.00  0.00    +0.000 A 
ATOM      6  C   UNL     1       7.828   6.018  18.311  0.00  0.00    +0.000 A 
ENDROOT
BRANCH   1   8
ATOM      7  C   UNL     1       8.940   9.429  18.691  0.00  0.00    +0.000 C 
ATOM      8  C   UNL     1       8.344   8.432  18.394  0.00  0.00    +0.000 C 
BRANCH   7  11
ATOM      9  C   UNL     1      10.736  12.657  18.385  0.00  0.00    +0.000 A 
ATOM     10  C   UNL     1      10.157  11.448  18.015  0.00  0.00    +0.000 A 
ATOM     11  C   UNL     1       9.582  10.667  19.015  0.00  0.00    +0.000 A 
ATOM     12  C   UNL     1       9.602  11.105  20.335  0.00  0.00    +0.000 A 
ATOM     13  C   UNL     1      10.194  12.324  20.608  0.00  0.00    +0.000 A 
ATOM     14  N   UNL     1      10.761  13.107  19.669  0.00  0.00    +0.000 NA
BRANCH   9  15
ATOM     15  C   UNL     1      11.372  13.515  17.334  0.00  0.00    +0.000 C 
ATOM     16  O   UNL     1      11.349  13.259  16.138  0.00  0.00    +0.000 OA
BRANCH  15  18
ATOM     17  C   UNL     1      11.673  15.844  17.297  0.00  0.00    +0.000 C 
ATOM     18  O   UNL     1      11.972  14.590  17.908  0.00  0.00    +0.000 OA
ENDBRANCH  15  18
ENDBRANCH   9  15
ENDBRANCH   7  11
ENDBRANCH   1   8
BRANCH   4  19
ATOM     19  C   UNL     1       4.961   4.140  16.608  0.00  0.00    +0.000 C 
BRANCH  19  20
ATOM     20  C   UNL     1       3.920   3.684  17.662  0.00  0.00    +0.000 C 
ATOM     21  C   UNL     1       2.706   3.032  16.993  0.00  0.00    +0.000 C 
BRANCH  20  22
ATOM     22  N   UNL     1       4.495   2.747  18.630  0.00  0.00    +0.000 N 
ATOM     23  C   UNL     1       4.055   2.673  19.934  0.00  0.00    +0.000 C 
ATOM     24  C   UNL     1       4.723   1.598  20.752  0.00  0.00    +0.000 C 
ATOM     25  O   UNL     1       3.211   3.421  20.414  0.00  0.00    +0.000 OA
ATOM     26  H   UNL     1       5.056   1.983  18.275  0.00  0.00    +0.000 HD
ENDBRANCH  20  22
ENDBRANCH  19  20
ENDBRANCH   4  19
TORSDOF 7
ENDMDL
MODEL 5
REMARK VINA RESULT:      -7.8      1.815      2.645
REMARK  Name = 
REMARK  10 active torsions:
REMARK  status: ('A' for Active; 'I' for Inactive)
REMARK    1  A    between atoms: C_1  and  O_2
REMARK    2  A    between atoms: O_2  and  C_3
REMARK    3  A    between atoms: C_3  and  C_5
REMARK    4  A    between atoms: C_7  and  C_8
REMARK    5  A    between atoms: C_9  and  C_10
REMARK    6  A    between atoms: C_13  and  C_14
REMARK    7  A    between atoms: C_14  and  C_15
REMARK    8  A    between atoms: C_15  and  C_16
REMARK    9  A    between atoms: C_15  and  N_17
REMARK   10  A    between atoms: C_18  and  C_19
REMARK                            x       y       z     vdW  Elec       q    Type
REMARK                         _______ _______ _______ _____ _____    ______ ____
ROOT
ATOM      1  C   UNL     1       7.548   7.491  17.946  0.00  0.00    +0.000 A 
ATOM      2  C   UNL     1       6.423   7.437  17.124  0.00  0.00    +0.000 A 
ATOM      3  C   UNL     1       5.659   6.275  17.053  0.00  0.00    +0.000 A 
ATOM      4  C   UNL     1       6.028   5.136  17.782  0.00  0.00    +0.000 A 
ATOM      5  C   UNL     1       7.162   5.196  18.605  0.00  0.00    +0.000 A 
ATOM      6  C   UNL     1       7.921   6.371  18.688  0.00  0.00    +0.000 A 
ENDROOT
BRANCH   1   8
ATOM      7  C   UNL     1       8.846   9.754  18.244  0.00  0.00    +0.000 C 
ATOM      8  C   UNL     1       8.259   8.729  18.036  0.00  0.00    +0.000 C 
BRANCH   7  11
ATOM      9  C   UNL     1      10.098  12.723  20.075  0.00  0.00    +0.000 A 
ATOM     10  C   UNL     1       9.347  11.587  19.794  0.00  0.00    +0.000 A 
ATOM     11  C   UNL     1       9.562  10.948  18.575  0.00  0.00    +0.000 A 
ATOM     12  C   UNL     1      10.503  11.453  17.683  0.00  0.00    +0.000 A 
ATOM     13  C   UNL     1      11.206  12.585  18.050  0.00  0.00    +0.000 A 
ATOM     14  N   UNL     1      11.027  13.230  19.220  0.00  0.00    +0.000 NA
BRANCH   9  15
ATOM     15  C   UNL     1       9.883  13.438  21.374  0.00  0.00    +0.000 C 
ATOM     16  O   UNL     1      10.102  14.630  21.540  0.00  0.00    +0.000 OA
BRANCH  15  18
ATOM     17  C   UNL     1       8.383  13.079  23.144  0.00  0.00    +0.000 C 
ATOM     18  O   UNL     1       9.426  12.572  22.315  0.00  0.00    +0.000 OA
ENDBRANCH  15  18
ENDBRANCH   9  15
ENDBRANCH   7  11
ENDBRANCH   1   8
BRANCH   4  19
ATOM     19  C   UNL     1       5.210   3.867  17.670  0.00  0.00    +0.000 C 
BRANCH  19  20
ATOM     20  C   UNL     1       3.734   4.038  18.109  0.00  0.00    +0.000 C 
ATOM     21  C   UNL     1       2.775   3.496  17.044  0.00  0.00    +0.000 C 
BRANCH  20  22
ATOM     22  N   UNL     1       3.461   3.372  19.385  0.00  0.00    +0.000 N 
ATOM     23  C   UNL     1       2.519   3.841  20.274  0.00  0.00    +0.000 C 
ATOM     24  C   UNL     1       2.335   2.976  21.495  0.00  0.00    +0.000 C 
ATOM     25  O   UNL     1       1.890   4.881  20.118  0.00  0.00    +0.000 OA
ATOM     26  H   UNL     1       3.796   2.424  19.505  0.00  0.00    +0.000 HD
ENDBRANCH  20  22
ENDBRANCH  19  20
ENDBRANCH   4  19
TORSDOF 7
ENDMDL
MODEL 6
REMARK VINA RESULT:      -7.7      6.032      8.703
REMARK  Name = 
REMARK  10 active torsions:
REMARK  status: ('A' for Active; 'I' for Inactive)
REMARK    1  A    between atoms: C_1  and  O_2
REMARK    2  A    between atoms: O_2  and  C_3
REMARK    3  A    between atoms: C_3  and  C_5
REMARK    4  A    between atoms: C_7  and  C_8
REMARK    5  A    between atoms: C_9  and  C_10
REMARK    6  A    between atoms: C_13  and  C_14
REMARK    7  A    between atoms: C_14  and  C_15
REMARK    8  A    between atoms: C_15  and  C_16
REMARK    9  A    between atoms: C_15  and  N_17
REMARK   10  A    between atoms: C_18  and  C_19
REMARK                            x       y       z     vdW  Elec       q    Type
REMARK                         _______ _______ _______ _____ _____    ______ ____
ROOT
ATOM      1  C   UNL     1       2.251   8.138  18.605  0.00  0.00    +0.000 A 
ATOM      2  C   UNL     1       1.625   9.112  17.828  0.00  0.00    +0.000 A 
ATOM      3  C   UNL     1       0.664   9.948  18.390  0.00  0.00    +0.000 A 
ATOM      4  C   UNL     1       0.290   9.801  19.732  0.00  0.00    +0.000 A 
ATOM      5  C   UNL     1       0.921   8.818  20.508  0.00  0.00    +0.000 A 
ATOM      6  C   UNL     1       1.900   7.988  19.946  0.00  0.00    +0.000 A 
ENDROOT
BRANCH   1   8
ATOM      7  C   UNL     1       4.217   6.719  17.599  0.00  0.00    +0.000 C 
ATOM      8  C   UNL     1       3.281   7.350  18.000  0.00  0.00    +0.000 C 
BRANCH   7  11
ATOM      9  C   UNL     1       6.803   5.048  15.535  0.00  0.00    +0.000 A 
ATOM     10  C   UNL     1       5.654   5.763  15.857  0.00  0.00    +0.000 A 
ATOM     11  C   UNL     1       5.366   5.961  17.205  0.00  0.00    +0.000 A 
ATOM     12  C   UNL     1       6.216   5.447  18.180  0.00  0.00    +0.000 A 
ATOM     13  C   UNL     1       7.337   4.754  17.765  0.00  0.00    +0.000 A 
ATOM     14  N   UNL     1       7.650   4.542  16.471  0.00  0.00    +0.000 NA
BRANCH   9  15
ATOM     15  C   UNL     1       7.135   4.809  14.093  0.00  0.00    +0.000 C 
ATOM     16  O   UNL     1       7.978   5.442  13.473  0.00  0.00    +0.000 OA
BRANCH  15  18
ATOM     17  C   UNL     1       6.554   3.534  12.209  0.00  0.00    +0.000 C 
ATOM     18  O   UNL     1       6.362   3.809  13.595  0.00  0.00    +0.000 OA
ENDBRANCH  15  18
ENDBRANCH   9  15
ENDBRANCH   7  11
ENDBRANCH   1   8
BRANCH   4  19
ATOM     19  C   UNL     1      -0.782  10.693  20.323  0.00  0.00    +0.000 C 
BRANCH  19  20
ATOM     20  C   UNL     1      -1.186  11.873  19.404  0.00  0.00    +0.000 C 
ATOM     21  C   UNL     1      -2.568  11.643  18.784  0.00  0.00    +0.000 C 
BRANCH  20  22
ATOM     22  N   UNL     1      -1.188  13.150  20.121  0.00  0.00    +0.000 N 
ATOM     23  C   UNL     1      -0.648  14.298  19.584  0.00  0.00    +0.000 C 
ATOM     24  C   UNL     1      -0.812  15.523  20.446  0.00  0.00    +0.000 C 
ATOM     25  O   UNL     1      -0.060  14.338  18.509  0.00  0.00    +0.000 OA
ATOM     26  H   UNL     1      -1.804  13.244  20.918  0.00  0.00    +0.000 HD
ENDBRANCH  20  22
ENDBRANCH  19  20
ENDBRANCH   4  19
TORSDOF 7
ENDMDL
MODEL 7
REMARK VINA RESULT:      -7.7      5.656      8.496
REMARK  Name = 
REMARK  10 active torsions:
REMARK  status: ('A' for Active; 'I' for Inactive)
REMARK    1  A    between atoms: C_1  and  O_2
REMARK    2  A    between atoms: O_2  and  C_3
REMARK    3  A    between atoms: C_3  and  C_5
REMARK    4  A    between atoms: C_7  and  C_8
REMARK    5  A    between atoms: C_9  and  C_10
REMARK    6  A    between atoms: C_13  and  C_14
REMARK    7  A    between atoms: C_14  and  C_15
REMARK    8  A    between atoms: C_15  and  C_16
REMARK    9  A    between atoms: C_15  and  N_17
REMARK   10  A    between atoms: C_18  and  C_19
REMARK                            x       y       z     vdW  Elec       q    Type
REMARK                         _______ _______ _______ _____ _____    ______ ____
ROOT
ATOM      1  C   UNL     1       2.209   8.021  18.644  0.00  0.00    +0.000 A 
ATOM      2  C   UNL     1       1.569   8.836  17.711  0.00  0.00    +0.000 A 
ATOM      3  C   UNL     1       0.602   9.751  18.122  0.00  0.00    +0.000 A 
ATOM      4  C   UNL     1       0.237   9.840  19.472  0.00  0.00    +0.000 A 
ATOM      5  C   UNL     1       0.882   9.016  20.405  0.00  0.00    +0.000 A 
ATOM      6  C   UNL     1       1.866   8.109  19.993  0.00  0.00    +0.000 A 
ENDROOT
BRANCH   1   8
ATOM      7  C   UNL     1       4.193   6.520  17.805  0.00  0.00    +0.000 C 
ATOM      8  C   UNL     1       3.243   7.148  18.181  0.00  0.00    +0.000 C 
BRANCH   7  11
ATOM      9  C   UNL     1       6.834   4.992  15.703  0.00  0.00    +0.000 A 
ATOM     10  C   UNL     1       5.650   5.636  16.042  0.00  0.00    +0.000 A 
ATOM     11  C   UNL     1       5.378   5.832  17.394  0.00  0.00    +0.000 A 
ATOM     12  C   UNL     1       6.279   5.384  18.355  0.00  0.00    +0.000 A 
ATOM     13  C   UNL     1       7.434   4.759  17.924  0.00  0.00    +0.000 A 
ATOM     14  N   UNL     1       7.732   4.551  16.626  0.00  0.00    +0.000 NA
BRANCH   9  15
ATOM     15  C   UNL     1       7.151   4.756  14.257  0.00  0.00    +0.000 C 
ATOM     16  O   UNL     1       7.853   5.496  13.583  0.00  0.00    +0.000 OA
BRANCH  15  18
ATOM     17  C   UNL     1       6.215   3.608  12.435  0.00  0.00    +0.000 C 
ATOM     18  O   UNL     1       6.540   3.623  13.823  0.00  0.00    +0.000 OA
ENDBRANCH  15  18
ENDBRANCH   9  15
ENDBRANCH   7  11
ENDBRANCH   1   8
BRANCH   4  19
ATOM     19  C   UNL     1      -0.841  10.813  19.902  0.00  0.00    +0.000 C 
BRANCH  19  20
ATOM     20  C   UNL     1      -0.295  12.203  20.315  0.00  0.00    +0.000 C 
ATOM     21  C   UNL     1      -0.291  12.365  21.838  0.00  0.00    +0.000 C 
BRANCH  20  22
ATOM     22  N   UNL     1       1.058  12.435  19.803  0.00  0.00    +0.000 N 
ATOM     23  C   UNL     1       1.366  13.502  18.988  0.00  0.00    +0.000 C 
ATOM     24  C   UNL     1       2.825  13.606  18.628  0.00  0.00    +0.000 C 
ATOM     25  O   UNL     1       0.536  14.297  18.562  0.00  0.00    +0.000 OA
ATOM     26  H   UNL     1       1.822  11.942  20.248  0.00  0.00    +0.000 HD
ENDBRANCH  20  22
ENDBRANCH  19  20
ENDBRANCH   4  19
TORSDOF 7
ENDMDL
MODEL 8
REMARK VINA RESULT:      -7.7      5.970      8.430
REMARK  Name = 
REMARK  10 active torsions:
REMARK  status: ('A' for Active; 'I' for Inactive)
REMARK    1  A    between atoms: C_1  and  O_2
REMARK    2  A    between atoms: O_2  and  C_3
REMARK    3  A    between atoms: C_3  and  C_5
REMARK    4  A    between atoms: C_7  and  C_8
REMARK    5  A    between atoms: C_9  and  C_10
REMARK    6  A    between atoms: C_13  and  C_14
REMARK    7  A    between atoms: C_14  and  C_15
REMARK    8  A    between atoms: C_15  and  C_16
REMARK    9  A    between atoms: C_15  and  N_17
REMARK   10  A    between atoms: C_18  and  C_19
REMARK                            x       y       z     vdW  Elec       q    Type
REMARK                         _______ _______ _______ _____ _____    ______ ____
ROOT
ATOM      1  C   UNL     1       2.042   8.249  18.546  0.00  0.00    +0.000 A 
ATOM      2  C   UNL     1       1.382   9.021  17.591  0.00  0.00    +0.000 A 
ATOM      3  C   UNL     1       0.414   9.944  17.979  0.00  0.00    +0.000 A 
ATOM      4  C   UNL     1       0.067  10.085  19.330  0.00  0.00    +0.000 A 
ATOM      5  C   UNL     1       0.733   9.304  20.286  0.00  0.00    +0.000 A 
ATOM      6  C   UNL     1       1.718   8.388  19.895  0.00  0.00    +0.000 A 
ENDROOT
BRANCH   1   8
ATOM      7  C   UNL     1       4.029   6.721  17.766  0.00  0.00    +0.000 C 
ATOM      8  C   UNL     1       3.076   7.366  18.103  0.00  0.00    +0.000 C 
BRANCH   7  11
ATOM      9  C   UNL     1       6.684   5.040  15.800  0.00  0.00    +0.000 A 
ATOM     10  C   UNL     1       5.498   5.708  16.083  0.00  0.00    +0.000 A 
ATOM     11  C   UNL     1       5.217   6.004  17.415  0.00  0.00    +0.000 A 
ATOM     12  C   UNL     1       6.111   5.628  18.413  0.00  0.00    +0.000 A 
ATOM     13  C   UNL     1       7.268   4.972  18.037  0.00  0.00    +0.000 A 
ATOM     14  N   UNL     1       7.575   4.669  16.760  0.00  0.00    +0.000 NA
BRANCH   9  15
ATOM     15  C   UNL     1       7.009   4.699  14.378  0.00  0.00    +0.000 C 
ATOM     16  O   UNL     1       6.425   3.841  13.732  0.00  0.00    +0.000 OA
BRANCH  15  18
ATOM     17  C   UNL     1       8.106   5.627  12.521  0.00  0.00    +0.000 C 
ATOM     18  O   UNL     1       8.038   5.468  13.936  0.00  0.00    +0.000 OA
ENDBRANCH  15  18
ENDBRANCH   9  15
ENDBRANCH   7  11
ENDBRANCH   1   8
BRANCH   4  19
ATOM     19  C   UNL     1      -1.011  11.066  19.737  0.00  0.00    +0.000 C 
BRANCH  19  20
ATOM     20  C   UNL     1      -0.601  11.990  20.911  0.00  0.00    +0.000 C 
ATOM     21  C   UNL     1       0.043  13.282  20.399  0.00  0.00    +0.000 C 
BRANCH  20  22
ATOM     22  N   UNL     1      -1.742  12.328  21.766  0.00  0.00    +0.000 N 
ATOM     23  C   UNL     1      -1.925  11.764  23.009  0.00  0.00    +0.000 C 
ATOM     24  C   UNL     1      -3.117  12.295  23.762  0.00  0.00    +0.000 C 
ATOM     25  O   UNL     1      -1.205  10.887  23.474  0.00  0.00    +0.000 OA
ATOM     26  H   UNL     1      -2.271  13.162  21.542  0.00  0.00    +0.000 HD
ENDBRANCH  20  22
ENDBRANCH  19  20
ENDBRANCH   4  19
TORSDOF 7
ENDMDL
MODEL 9
REMARK VINA RESULT:      -7.6      1.668      2.177
REMARK  Name = 
REMARK  10 active torsions:
REMARK  status: ('A' for Active; 'I' for Inactive)
REMARK    1  A    between atoms: C_1  and  O_2
REMARK    2  A    between atoms: O_2  and  C_3
REMARK    3  A    between atoms: C_3  and  C_5
REMARK    4  A    between atoms: C_7  and  C_8
REMARK    5  A    between atoms: C_9  and  C_10
REMARK    6  A    between atoms: C_13  and  C_14
REMARK    7  A    between atoms: C_14  and  C_15
REMARK    8  A    between atoms: C_15  and  C_16
REMARK    9  A    between atoms: C_15  and  N_17
REMARK   10  A    between atoms: C_18  and  C_19
REMARK                            x       y       z     vdW  Elec       q    Type
REMARK                         _______ _______ _______ _____ _____    ______ ____
ROOT
ATOM      1  C   UNL     1       7.476   7.679  17.960  0.00  0.00    +0.000 A 
ATOM      2  C   UNL     1       7.941   6.589  18.696  0.00  0.00    +0.000 A 
ATOM      3  C   UNL     1       7.247   5.382  18.681  0.00  0.00    +0.000 A 
ATOM      4  C   UNL     1       6.057   5.256  17.953  0.00  0.00    +0.000 A 
ATOM      5  C   UNL     1       5.592   6.355  17.216  0.00  0.00    +0.000 A 
ATOM      6  C   UNL     1       6.300   7.564  17.219  0.00  0.00    +0.000 A 
ENDROOT
BRANCH   1   8
ATOM      7  C   UNL     1       8.829   9.927  18.032  0.00  0.00    +0.000 C 
ATOM      8  C   UNL     1       8.261   8.874  17.954  0.00  0.00    +0.000 C 
BRANCH   7  11
ATOM      9  C   UNL     1       9.387  13.581  18.303  0.00  0.00    +0.000 A 
ATOM     10  C   UNL     1       8.725  12.376  18.094  0.00  0.00    +0.000 A 
ATOM     11  C   UNL     1       9.462  11.199  18.202  0.00  0.00    +0.000 A 
ATOM     12  C   UNL     1      10.818  11.255  18.508  0.00  0.00    +0.000 A 
ATOM     13  C   UNL     1      11.391  12.498  18.705  0.00  0.00    +0.000 A 
ATOM     14  N   UNL     1      10.711  13.658  18.609  0.00  0.00    +0.000 NA
BRANCH   9  15
ATOM     15  C   UNL     1       8.624  14.865  18.184  0.00  0.00    +0.000 C 
ATOM     16  O   UNL     1       9.011  15.832  17.543  0.00  0.00    +0.000 OA
BRANCH  15  18
ATOM     17  C   UNL     1       7.482  15.467  20.146  0.00  0.00    +0.000 C 
ATOM     18  O   UNL     1       7.467  14.789  18.891  0.00  0.00    +0.000 OA
ENDBRANCH  15  18
ENDBRANCH   9  15
ENDBRANCH   7  11
ENDBRANCH   1   8
BRANCH   4  19
ATOM     19  C   UNL     1       5.292   3.949  17.971  0.00  0.00    +0.000 C 
BRANCH  19  20
ATOM     20  C   UNL     1       3.781   4.116  18.269  0.00  0.00    +0.000 C 
ATOM     21  C   UNL     1       2.927   3.464  17.178  0.00  0.00    +0.000 C 
BRANCH  20  22
ATOM     22  N   UNL     1       3.413   3.550  19.570  0.00  0.00    +0.000 N 
ATOM     23  C   UNL     1       2.472   4.135  20.388  0.00  0.00    +0.000 C 
ATOM     24  C   UNL     1       2.182   3.363  21.649  0.00  0.00    +0.000 C 
ATOM     25  O   UNL     1       1.922   5.203  20.143  0.00  0.00    +0.000 OA
ATOM     26  H   UNL     1       3.678   2.593  19.761  0.00  0.00    +0.000 HD
ENDBRANCH  20  22
ENDBRANCH  19  20
ENDBRANCH   4  19
TORSDOF 7
ENDMDL
