MODEL 1
REMARK VINA RESULT:      -7.9      0.000      0.000
REMARK  Name = 
REMARK  7 active torsions:
REMARK  status: ('A' for Active; 'I' for Inactive)
REMARK    1  A    between atoms: C_2  and  C_3
REMARK    2  A    between atoms: C_3  and  C_4
REMARK    3  A    between atoms: C_4  and  C_5
REMARK    4  A    between atoms: C_13  and  O_14
REMARK    5  A    between atoms: N_19  and  C_20
REMARK    6  A    between atoms: C_25  and  C_26
REMARK    7  A    between atoms: C_26  and  O_28
REMARK                            x       y       z     vdW  Elec       q    Type
REMARK                         _______ _______ _______ _____ _____    ______ ____
ROOT
ATOM      1  C   UNL     1       2.783   2.595  19.950  0.00  0.00    +0.000 C 
ENDROOT
BRANCH   1   2
ATOM      2  C   UNL     1       3.950   3.280  19.312  0.00  0.00    +0.000 A 
ATOM      3  C   UNL     1       4.896   4.088  19.979  0.00  0.00    +0.000 A 
ATOM      4  C   UNL     1       5.716   4.573  18.992  0.00  0.00    +0.000 A 
ATOM      5  N   UNL     1       5.253   4.057  17.805  0.00  0.00    +0.000 N 
ATOM      6  N   UNL     1       4.168   3.254  17.987  0.00  0.00    +0.000 NA
ATOM      7  C   UNL     1       5.830   4.337  16.544  0.00  0.00    +0.000 A 
ATOM      8  C   UNL     1       5.317   3.778  15.366  0.00  0.00    +0.000 A 
ATOM      9  C   UNL     1       5.910   4.079  14.135  0.00  0.00    +0.000 A 
ATOM     10  C   UNL     1       7.007   4.937  14.091  0.00  0.00    +0.000 A 
ATOM     11  C   UNL     1       7.520   5.495  15.255  0.00  0.00    +0.000 A 
ATOM     12  C   UNL     1       6.938   5.204  16.498  0.00  0.00    +0.000 A 
ATOM     13  C   UNL     1       7.522   5.846  17.727  0.00  0.00    +0.000 C 
ATOM     14  C   UNL     1       6.888   5.477  19.069  0.00  0.00    +0.000 C 
BRANCH  10  15
ATOM     15  O   UNL     1       7.619   5.264  12.916  0.00  0.00    +0.000 OA
ATOM     16  H   UNL     1       6.937   5.510  12.268  0.00  0.00    +0.000 HD
ENDBRANCH  10  15
ENDBRANCH   1   2
BRANCH   1  17
ATOM     17  C   UNL     1       2.127   3.352  21.111  0.00  0.00    +0.000 C 
BRANCH  17  19
ATOM     18  O   UNL     1       0.384   4.604  20.048  0.00  0.00    +0.000 OA
ATOM     19  C   UNL     1       1.489   4.631  20.587  0.00  0.00    +0.000 C 
ATOM     20  N   UNL     1       2.265   5.775  20.748  0.00  0.00    +0.000 N 
ATOM     21  H   UNL     1       3.262   5.640  20.925  0.00  0.00    +0.000 HD
BRANCH  20  22
ATOM     22  C   UNL     1       1.864   7.099  20.382  0.00  0.00    +0.000 A 
ATOM     23  C   UNL     1       1.189   7.924  21.294  0.00  0.00    +0.000 A 
ATOM     24  C   UNL     1       0.701   9.181  20.927  0.00  0.00    +0.000 A 
ATOM     25  C   UNL     1       0.892   9.654  19.638  0.00  0.00    +0.000 A 
ATOM     26  C   UNL     1       1.611   8.885  18.726  0.00  0.00    +0.000 A 
ATOM     27  C   UNL     1       2.134   7.628  19.099  0.00  0.00    +0.000 A 
BRANCH  27  28
ATOM     28  C   UNL     1       2.916   6.857  18.103  0.00  0.00    +0.000 C 
ATOM     29  O   UNL     1       3.965   7.265  17.624  0.00  0.00    +0.000 OA
BRANCH  28  30
ATOM     30  O   UNL     1       2.336   5.700  17.712  0.00  0.00    +0.000 OA
ATOM     31  H   UNL     1       2.884   5.126  17.145  0.00  0.00    +0.000 HD
ENDBRANCH  28  30
ENDBRANCH  27  28
ENDBRANCH  20  22
ENDBRANCH  17  19
ENDBRANCH   1  17
TORSDOF 7
ENDMDL
MODEL 2
REMARK VINA RESULT:      -7.7      6.741      8.761
REMARK  Name = 
REMARK  7 active torsions:
REMARK  status: ('A' for Active; 'I' for Inactive)
REMARK    1  A    between atoms: C_2  and  C_3
REMARK    2  A    between atoms: C_3  and  C_4
REMARK    3  A    between atoms: C_4  and  C_5
REMARK    4  A    between atoms: C_13  and  O_14
REMARK    5  A    between atoms: N_19  and  C_20
REMARK    6  A    between atoms: C_25  and  C_26
REMARK    7  A    between atoms: C_26  and  O_28
REMARK                            x       y       z     vdW  Elec       q    Type
REMARK                         _______ _______ _______ _____ _____    ______ ____
ROOT
ATOM      1  C   UNL     1       9.067   8.981  18.769  0.00  0.00    +0.000 C 
ENDROOT
BRANCH   1   2
ATOM      2  C   UNL     1       9.437  10.362  19.208  0.00  0.00    +0.000 A 
ATOM      3  C   UNL     1       9.279  10.881  20.511  0.00  0.00    +0.000 A 
ATOM      4  C   UNL     1       9.658  12.197  20.424  0.00  0.00    +0.000 A 
ATOM      5  N   UNL     1      10.020  12.418  19.117  0.00  0.00    +0.000 N 
ATOM      6  N   UNL     1       9.894  11.294  18.356  0.00  0.00    +0.000 NA
ATOM      7  C   UNL     1      10.461  13.667  18.620  0.00  0.00    +0.000 A 
ATOM      8  C   UNL     1      10.823  13.832  17.276  0.00  0.00    +0.000 A 
ATOM      9  C   UNL     1      11.252  15.082  16.817  0.00  0.00    +0.000 A 
ATOM     10  C   UNL     1      11.313  16.156  17.703  0.00  0.00    +0.000 A 
ATOM     11  C   UNL     1      10.955  15.999  19.036  0.00  0.00    +0.000 A 
ATOM     12  C   UNL     1      10.524  14.753  19.513  0.00  0.00    +0.000 A 
ATOM     13  C   UNL     1      10.135  14.639  20.963  0.00  0.00    +0.000 C 
ATOM     14  C   UNL     1       9.705  13.258  21.458  0.00  0.00    +0.000 C 
BRANCH  10  15
ATOM     15  O   UNL     1      11.721  17.395  17.304  0.00  0.00    +0.000 OA
ATOM     16  H   UNL     1      12.397  17.716  17.925  0.00  0.00    +0.000 HD
ENDBRANCH  10  15
ENDBRANCH   1   2
BRANCH   1  17
ATOM     17  C   UNL     1       7.953   8.897  17.719  0.00  0.00    +0.000 C 
BRANCH  17  19
ATOM     18  O   UNL     1       7.666   6.689  18.600  0.00  0.00    +0.000 OA
ATOM     19  C   UNL     1       7.236   7.560  17.846  0.00  0.00    +0.000 C 
ATOM     20  N   UNL     1       6.114   7.425  17.035  0.00  0.00    +0.000 N 
ATOM     21  H   UNL     1       6.027   8.071  16.249  0.00  0.00    +0.000 HD
BRANCH  20  22
ATOM     22  C   UNL     1       5.249   6.284  17.011  0.00  0.00    +0.000 A 
ATOM     23  C   UNL     1       3.996   6.319  17.641  0.00  0.00    +0.000 A 
ATOM     24  C   UNL     1       3.179   5.188  17.715  0.00  0.00    +0.000 A 
ATOM     25  C   UNL     1       3.589   3.993  17.146  0.00  0.00    +0.000 A 
ATOM     26  C   UNL     1       4.801   3.941  16.461  0.00  0.00    +0.000 A 
ATOM     27  C   UNL     1       5.617   5.088  16.354  0.00  0.00    +0.000 A 
BRANCH  27  28
ATOM     28  C   UNL     1       6.885   4.991  15.593  0.00  0.00    +0.000 C 
ATOM     29  O   UNL     1       7.892   4.466  16.048  0.00  0.00    +0.000 OA
BRANCH  28  30
ATOM     30  O   UNL     1       6.858   5.595  14.384  0.00  0.00    +0.000 OA
ATOM     31  H   UNL     1       6.162   6.269  14.266  0.00  0.00    +0.000 HD
ENDBRANCH  28  30
ENDBRANCH  27  28
ENDBRANCH  20  22
ENDBRANCH  17  19
ENDBRANCH   1  17
TORSDOF 7
ENDMDL
MODEL 3
REMARK VINA RESULT:      -7.7      2.545      7.936
REMARK  Name = 
REMARK  7 active torsions:
REMARK  status: ('A' for Active; 'I' for Inactive)
REMARK    1  A    between atoms: C_2  and  C_3
REMARK    2  A    between atoms: C_3  and  C_4
REMARK    3  A    between atoms: C_4  and  C_5
REMARK    4  A    between atoms: C_13  and  O_14
REMARK    5  A    between atoms: N_19  and  C_20
REMARK    6  A    between atoms: C_25  and  C_26
REMARK    7  A    between atoms: C_26  and  O_28
REMARK                            x       y       z     vdW  Elec       q    Type
REMARK                         _______ _______ _______ _____ _____    ______ ____
ROOT
ATOM      1  C   UNL     1       2.755   5.411  20.011  0.00  0.00    +0.000 C 
ENDROOT
BRANCH   1   2
ATOM      2  C   UNL     1       2.140   6.770  19.893  0.00  0.00    +0.000 A 
ATOM      3  C   UNL     1       2.272   7.639  18.789  0.00  0.00    +0.000 A 
ATOM      4  C   UNL     1       1.628   8.793  19.159  0.00  0.00    +0.000 A 
ATOM      5  N   UNL     1       1.146   8.586  20.429  0.00  0.00    +0.000 N 
ATOM      6  N   UNL     1       1.449   7.341  20.893  0.00  0.00    +0.000 NA
ATOM      7  C   UNL     1       0.429   9.555  21.170  0.00  0.00    +0.000 A 
ATOM      8  C   UNL     1      -0.043   9.285  22.461  0.00  0.00    +0.000 A 
ATOM      9  C   UNL     1      -0.745  10.268  23.167  0.00  0.00    +0.000 A 
ATOM     10  C   UNL     1      -0.968  11.511  22.578  0.00  0.00    +0.000 A 
ATOM     11  C   UNL     1      -0.502  11.785  21.298  0.00  0.00    +0.000 A 
ATOM     12  C   UNL     1       0.204  10.811  20.577  0.00  0.00    +0.000 A 
ATOM     13  C   UNL     1       0.700  11.163  19.200  0.00  0.00    +0.000 C 
ATOM     14  C   UNL     1       1.432  10.066  18.426  0.00  0.00    +0.000 C 
BRANCH  10  15
ATOM     15  O   UNL     1      -1.645  12.503  23.225  0.00  0.00    +0.000 OA
ATOM     16  H   UNL     1      -1.321  12.556  24.140  0.00  0.00    +0.000 HD
ENDBRANCH  10  15
ENDBRANCH   1   2
BRANCH   1  17
ATOM     17  C   UNL     1       2.200   4.350  19.055  0.00  0.00    +0.000 C 
BRANCH  17  19
ATOM     18  O   UNL     1       3.441   2.765  17.756  0.00  0.00    +0.000 OA
ATOM     19  C   UNL     1       3.282   3.946  18.062  0.00  0.00    +0.000 C 
ATOM     20  N   UNL     1       4.055   4.999  17.585  0.00  0.00    +0.000 N 
ATOM     21  H   UNL     1       4.038   5.869  18.121  0.00  0.00    +0.000 HD
BRANCH  20  22
ATOM     22  C   UNL     1       5.097   4.881  16.611  0.00  0.00    +0.000 A 
ATOM     23  C   UNL     1       4.798   4.602  15.269  0.00  0.00    +0.000 A 
ATOM     24  C   UNL     1       5.803   4.383  14.322  0.00  0.00    +0.000 A 
ATOM     25  C   UNL     1       7.137   4.454  14.692  0.00  0.00    +0.000 A 
ATOM     26  C   UNL     1       7.467   4.789  16.003  0.00  0.00    +0.000 A 
ATOM     27  C   UNL     1       6.457   5.042  16.957  0.00  0.00    +0.000 A 
BRANCH  27  28
ATOM     28  C   UNL     1       6.858   5.421  18.334  0.00  0.00    +0.000 C 
ATOM     29  O   UNL     1       6.479   4.811  19.325  0.00  0.00    +0.000 OA
BRANCH  28  30
ATOM     30  O   UNL     1       7.616   6.537  18.408  0.00  0.00    +0.000 OA
ATOM     31  H   UNL     1       7.130   7.380  18.339  0.00  0.00    +0.000 HD
ENDBRANCH  28  30
ENDBRANCH  27  28
ENDBRANCH  20  22
ENDBRANCH  17  19
ENDBRANCH   1  17
TORSDOF 7
ENDMDL
MODEL 4
REMARK VINA RESULT:      -7.7      3.900      8.806
REMARK  Name = 
REMARK  7 active torsions:
REMARK  status: ('A' for Active; 'I' for Inactive)
REMARK    1  A    between atoms: C_2  and  C_3
REMARK    2  A    between atoms: C_3  and  C_4
REMARK    3  A    between atoms: C_4  and  C_5
REMARK    4  A    between atoms: C_13  and  O_14
REMARK    5  A    between atoms: N_19  and  C_20
REMARK    6  A    between atoms: C_25  and  C_26
REMARK    7  A    between atoms: C_26  and  O_28
REMARK                            x       y       z     vdW  Elec       q    Type
REMARK                         _______ _______ _______ _____ _____    ______ ____
ROOT
ATOM      1  C   UNL     1       2.194   8.695  18.179  0.00  0.00    +0.000 C 
ENDROOT
BRANCH   1   2
ATOM      2  C   UNL     1       1.032   9.576  18.509  0.00  0.00    +0.000 A 
ATOM      3  C   UNL     1       0.891  10.347  19.683  0.00  0.00    +0.000 A 
ATOM      4  C   UNL     1      -0.357  10.911  19.598  0.00  0.00    +0.000 A 
ATOM      5  N   UNL     1      -0.906  10.477  18.415  0.00  0.00    +0.000 N 
ATOM      6  N   UNL     1      -0.059   9.658  17.730  0.00  0.00    +0.000 NA
ATOM      7  C   UNL     1      -2.200  10.831  17.968  0.00  0.00    +0.000 A 
ATOM      8  C   UNL     1      -2.707  10.362  16.748  0.00  0.00    +0.000 A 
ATOM      9  C   UNL     1      -3.992  10.729  16.339  0.00  0.00    +0.000 A 
ATOM     10  C   UNL     1      -4.762  11.561  17.150  0.00  0.00    +0.000 A 
ATOM     11  C   UNL     1      -4.267  12.029  18.360  0.00  0.00    +0.000 A 
ATOM     12  C   UNL     1      -2.979  11.671  18.786  0.00  0.00    +0.000 A 
ATOM     13  C   UNL     1      -2.495  12.194  20.112  0.00  0.00    +0.000 C 
ATOM     14  C   UNL     1      -1.073  11.815  20.529  0.00  0.00    +0.000 C 
BRANCH  10  15
ATOM     15  O   UNL     1      -6.022  11.945  16.797  0.00  0.00    +0.000 OA
ATOM     16  H   UNL     1      -6.638  11.682  17.502  0.00  0.00    +0.000 HD
ENDBRANCH  10  15
ENDBRANCH   1   2
BRANCH   1  17
ATOM     17  C   UNL     1       2.322   7.425  19.027  0.00  0.00    +0.000 C 
BRANCH  17  19
ATOM     18  O   UNL     1       2.608   5.228  18.116  0.00  0.00    +0.000 OA
ATOM     19  C   UNL     1       3.072   6.360  18.238  0.00  0.00    +0.000 C 
ATOM     20  N   UNL     1       4.295   6.776  17.722  0.00  0.00    +0.000 N 
ATOM     21  H   UNL     1       4.712   7.615  18.128  0.00  0.00    +0.000 HD
BRANCH  20  22
ATOM     22  C   UNL     1       5.159   5.975  16.908  0.00  0.00    +0.000 A 
ATOM     23  C   UNL     1       5.234   6.180  15.522  0.00  0.00    +0.000 A 
ATOM     24  C   UNL     1       5.994   5.347  14.696  0.00  0.00    +0.000 A 
ATOM     25  C   UNL     1       6.713   4.294  15.239  0.00  0.00    +0.000 A 
ATOM     26  C   UNL     1       6.708   4.101  16.619  0.00  0.00    +0.000 A 
ATOM     27  C   UNL     1       5.968   4.958  17.463  0.00  0.00    +0.000 A 
BRANCH  27  28
ATOM     28  C   UNL     1       6.015   4.729  18.927  0.00  0.00    +0.000 C 
ATOM     29  O   UNL     1       6.670   5.430  19.686  0.00  0.00    +0.000 OA
BRANCH  28  30
ATOM     30  O   UNL     1       5.331   3.640  19.343  0.00  0.00    +0.000 OA
ATOM     31  H   UNL     1       5.824   3.032  19.925  0.00  0.00    +0.000 HD
ENDBRANCH  28  30
ENDBRANCH  27  28
ENDBRANCH  20  22
ENDBRANCH  17  19
ENDBRANCH   1  17
TORSDOF 7
ENDMDL
MODEL 5
REMARK VINA RESULT:      -7.7      6.655      8.911
REMARK  Name = 
REMARK  7 active torsions:
REMARK  status: ('A' for Active; 'I' for Inactive)
REMARK    1  A    between atoms: C_2  and  C_3
REMARK    2  A    between atoms: C_3  and  C_4
REMARK    3  A    between atoms: C_4  and  C_5
REMARK    4  A    between atoms: C_13  and  O_14
REMARK    5  A    between atoms: N_19  and  C_20
REMARK    6  A    between atoms: C_25  and  C_26
REMARK    7  A    between atoms: C_26  and  O_28
REMARK                            x       y       z     vdW  Elec       q    Type
REMARK                         _______ _______ _______ _____ _____    ______ ____
ROOT
ATOM      1  C   UNL     1       8.575   9.427  18.491  0.00  0.00    +0.000 C 
ENDROOT
BRANCH   1   2
ATOM      2  C   UNL     1       9.174  10.768  18.212  0.00  0.00    +0.000 A 
ATOM      3  C   UNL     1      10.527  11.014  17.891  0.00  0.00    +0.000 A 
ATOM      4  C   UNL     1      10.637  12.380  17.815  0.00  0.00    +0.000 A 
ATOM      5  N   UNL     1       9.390  12.892  18.082  0.00  0.00    +0.000 N 
ATOM      6  N   UNL     1       8.477  11.910  18.324  0.00  0.00    +0.000 NA
ATOM      7  C   UNL     1       9.094  14.275  18.113  0.00  0.00    +0.000 A 
ATOM      8  C   UNL     1       7.800  14.740  18.387  0.00  0.00    +0.000 A 
ATOM      9  C   UNL     1       7.544  16.114  18.412  0.00  0.00    +0.000 A 
ATOM     10  C   UNL     1       8.580  17.013  18.166  0.00  0.00    +0.000 A 
ATOM     11  C   UNL     1       9.865  16.559  17.896  0.00  0.00    +0.000 A 
ATOM     12  C   UNL     1      10.140  15.184  17.865  0.00  0.00    +0.000 A 
ATOM     13  C   UNL     1      11.551  14.744  17.580  0.00  0.00    +0.000 C 
ATOM     14  C   UNL     1      11.808  13.239  17.518  0.00  0.00    +0.000 C 
BRANCH  10  15
ATOM     15  O   UNL     1       8.382  18.363  18.183  0.00  0.00    +0.000 OA
ATOM     16  H   UNL     1       9.193  18.801  17.876  0.00  0.00    +0.000 HD
ENDBRANCH  10  15
ENDBRANCH   1   2
BRANCH   1  17
ATOM     17  C   UNL     1       8.277   8.567  17.258  0.00  0.00    +0.000 C 
BRANCH  17  19
ATOM     18  O   UNL     1       7.656   6.729  18.662  0.00  0.00    +0.000 OA
ATOM     19  C   UNL     1       7.396   7.391  17.659  0.00  0.00    +0.000 C 
ATOM     20  N   UNL     1       6.335   7.139  16.795  0.00  0.00    +0.000 N 
ATOM     21  H   UNL     1       6.390   7.545  15.859  0.00  0.00    +0.000 HD
BRANCH  20  22
ATOM     22  C   UNL     1       5.344   6.123  16.983  0.00  0.00    +0.000 A 
ATOM     23  C   UNL     1       4.161   6.395  17.685  0.00  0.00    +0.000 A 
ATOM     24  C   UNL     1       3.227   5.394  17.966  0.00  0.00    +0.000 A 
ATOM     25  C   UNL     1       3.446   4.095  17.536  0.00  0.00    +0.000 A 
ATOM     26  C   UNL     1       4.583   3.805  16.784  0.00  0.00    +0.000 A 
ATOM     27  C   UNL     1       5.514   4.818  16.469  0.00  0.00    +0.000 A 
BRANCH  27  28
ATOM     28  C   UNL     1       6.695   4.467  15.644  0.00  0.00    +0.000 C 
ATOM     29  O   UNL     1       7.844   4.583  16.048  0.00  0.00    +0.000 OA
BRANCH  28  30
ATOM     30  O   UNL     1       6.400   4.078  14.384  0.00  0.00    +0.000 OA
ATOM     31  H   UNL     1       6.953   3.359  14.026  0.00  0.00    +0.000 HD
ENDBRANCH  28  30
ENDBRANCH  27  28
ENDBRANCH  20  22
ENDBRANCH  17  19
ENDBRANCH   1  17
TORSDOF 7
ENDMDL
MODEL 6
REMARK VINA RESULT:      -7.6      3.894      8.592
REMARK  Name = 
REMARK  7 active torsions:
REMARK  status: ('A' for Active; 'I' for Inactive)
REMARK    1  A    between atoms: C_2  and  C_3
REMARK    2  A    between atoms: C_3  and  C_4
REMARK    3  A    between atoms: C_4  and  C_5
REMARK    4  A    between atoms: C_13  and  O_14
REMARK    5  A    between atoms: N_19  and  C_20
REMARK    6  A    between atoms: C_25  and  C_26
REMARK    7  A    between atoms: C_26  and  O_28
REMARK                            x       y       z     vdW  Elec       q    Type
REMARK                         _______ _______ _______ _____ _____    ______ ____
ROOT
ATOM      1  C   UNL     1       2.357   9.158  18.156  0.00  0.00    +0.000 C 
ENDROOT
BRANCH   1   2
ATOM      2  C   UNL     1       1.136   9.952  18.496  0.00  0.00    +0.000 A 
ATOM      3  C   UNL     1       0.953  10.718  19.668  0.00  0.00    +0.000 A 
ATOM      4  C   UNL     1      -0.335  11.186  19.595  0.00  0.00    +0.000 A 
ATOM      5  N   UNL     1      -0.864  10.705  18.422  0.00  0.00    +0.000 N 
ATOM      6  N   UNL     1       0.033   9.946  17.731  0.00  0.00    +0.000 NA
ATOM      7  C   UNL     1      -2.187  10.958  17.990  0.00  0.00    +0.000 A 
ATOM      8  C   UNL     1      -2.672  10.444  16.780  0.00  0.00    +0.000 A 
ATOM      9  C   UNL     1      -3.986  10.712  16.384  0.00  0.00    +0.000 A 
ATOM     10  C   UNL     1      -4.806  11.488  17.201  0.00  0.00    +0.000 A 
ATOM     11  C   UNL     1      -4.332  12.000  18.402  0.00  0.00    +0.000 A 
ATOM     12  C   UNL     1      -3.016  11.742  18.813  0.00  0.00    +0.000 A 
ATOM     13  C   UNL     1      -2.556  12.309  20.130  0.00  0.00    +0.000 C 
ATOM     14  C   UNL     1      -1.105  12.040  20.530  0.00  0.00    +0.000 C 
BRANCH  10  15
ATOM     15  O   UNL     1      -6.096  11.775  16.862  0.00  0.00    +0.000 OA
ATOM     16  H   UNL     1      -6.125  12.016  15.921  0.00  0.00    +0.000 HD
ENDBRANCH  10  15
ENDBRANCH   1   2
BRANCH   1  17
ATOM     17  C   UNL     1       2.102   7.719  17.692  0.00  0.00    +0.000 C 
BRANCH  17  19
ATOM     18  O   UNL     1       2.515   7.202  19.994  0.00  0.00    +0.000 OA
ATOM     19  C   UNL     1       2.278   6.768  18.868  0.00  0.00    +0.000 C 
ATOM     20  N   UNL     1       2.177   5.419  18.543  0.00  0.00    +0.000 N 
ATOM     21  H   UNL     1       2.280   5.168  17.558  0.00  0.00    +0.000 HD
BRANCH  20  22
ATOM     22  C   UNL     1       2.257   4.339  19.479  0.00  0.00    +0.000 A 
ATOM     23  C   UNL     1       1.147   3.977  20.256  0.00  0.00    +0.000 A 
ATOM     24  C   UNL     1       1.231   2.993  21.245  0.00  0.00    +0.000 A 
ATOM     25  C   UNL     1       2.428   2.333  21.472  0.00  0.00    +0.000 A 
ATOM     26  C   UNL     1       3.533   2.626  20.676  0.00  0.00    +0.000 A 
ATOM     27  C   UNL     1       3.447   3.596  19.654  0.00  0.00    +0.000 A 
BRANCH  27  28
ATOM     28  C   UNL     1       4.642   3.856  18.816  0.00  0.00    +0.000 C 
ATOM     29  O   UNL     1       5.716   4.207  19.285  0.00  0.00    +0.000 OA
BRANCH  28  30
ATOM     30  O   UNL     1       4.426   3.742  17.486  0.00  0.00    +0.000 OA
ATOM     31  H   UNL     1       5.186   3.423  16.964  0.00  0.00    +0.000 HD
ENDBRANCH  28  30
ENDBRANCH  27  28
ENDBRANCH  20  22
ENDBRANCH  17  19
ENDBRANCH   1  17
TORSDOF 7
ENDMDL
MODEL 7
REMARK VINA RESULT:      -7.5      2.553      7.957
REMARK  Name = 
REMARK  7 active torsions:
REMARK  status: ('A' for Active; 'I' for Inactive)
REMARK    1  A    between atoms: C_2  and  C_3
REMARK    2  A    between atoms: C_3  and  C_4
REMARK    3  A    between atoms: C_4  and  C_5
REMARK    4  A    between atoms: C_13  and  O_14
REMARK    5  A    between atoms: N_19  and  C_20
REMARK    6  A    between atoms: C_25  and  C_26
REMARK    7  A    between atoms: C_26  and  O_28
REMARK                            x       y       z     vdW  Elec       q    Type
REMARK                         _______ _______ _______ _____ _____    ______ ____
ROOT
ATOM      1  C   UNL     1       2.522   5.378  19.424  0.00  0.00    +0.000 C 
ENDROOT
BRANCH   1   2
ATOM      2  C   UNL     1       2.027   6.789  19.459  0.00  0.00    +0.000 A 
ATOM      3  C   UNL     1       2.243   7.762  18.459  0.00  0.00    +0.000 A 
ATOM      4  C   UNL     1       1.696   8.918  18.957  0.00  0.00    +0.000 A 
ATOM      5  N   UNL     1       1.187   8.612  20.196  0.00  0.00    +0.000 N 
ATOM      6  N   UNL     1       1.378   7.302  20.517  0.00  0.00    +0.000 NA
ATOM      7  C   UNL     1       0.549   9.550  21.041  0.00  0.00    +0.000 A 
ATOM      8  C   UNL     1       0.043   9.179  22.295  0.00  0.00    +0.000 A 
ATOM      9  C   UNL     1      -0.579  10.134  23.106  0.00  0.00    +0.000 A 
ATOM     10  C   UNL     1      -0.690  11.450  22.661  0.00  0.00    +0.000 A 
ATOM     11  C   UNL     1      -0.190  11.824  21.420  0.00  0.00    +0.000 A 
ATOM     12  C   UNL     1       0.437  10.880  20.593  0.00  0.00    +0.000 A 
ATOM     13  C   UNL     1       0.974  11.340  19.264  0.00  0.00    +0.000 C 
ATOM     14  C   UNL     1       1.617  10.278  18.372  0.00  0.00    +0.000 C 
BRANCH  10  15
ATOM     15  O   UNL     1      -1.285  12.417  23.416  0.00  0.00    +0.000 OA
ATOM     16  H   UNL     1      -1.646  13.097  22.823  0.00  0.00    +0.000 HD
ENDBRANCH  10  15
ENDBRANCH   1   2
BRANCH   1  17
ATOM     17  C   UNL     1       3.924   5.155  20.000  0.00  0.00    +0.000 C 
BRANCH  17  19
ATOM     18  O   UNL     1       5.665   3.790  19.082  0.00  0.00    +0.000 OA
ATOM     19  C   UNL     1       4.863   4.703  18.890  0.00  0.00    +0.000 C 
ATOM     20  N   UNL     1       4.746   5.419  17.703  0.00  0.00    +0.000 N 
ATOM     21  H   UNL     1       4.279   6.326  17.751  0.00  0.00    +0.000 HD
BRANCH  20  22
ATOM     22  C   UNL     1       5.483   5.152  16.505  0.00  0.00    +0.000 A 
ATOM     23  C   UNL     1       4.945   4.340  15.496  0.00  0.00    +0.000 A 
ATOM     24  C   UNL     1       5.685   3.987  14.364  0.00  0.00    +0.000 A 
ATOM     25  C   UNL     1       6.981   4.451  14.206  0.00  0.00    +0.000 A 
ATOM     26  C   UNL     1       7.523   5.308  15.161  0.00  0.00    +0.000 A 
ATOM     27  C   UNL     1       6.770   5.696  16.290  0.00  0.00    +0.000 A 
BRANCH  27  28
ATOM     28  C   UNL     1       7.380   6.630  17.266  0.00  0.00    +0.000 C 
ATOM     29  O   UNL     1       7.548   7.819  17.029  0.00  0.00    +0.000 OA
BRANCH  28  30
ATOM     30  O   UNL     1       7.799   6.047  18.411  0.00  0.00    +0.000 OA
ATOM     31  H   UNL     1       7.779   6.615  19.204  0.00  0.00    +0.000 HD
ENDBRANCH  28  30
ENDBRANCH  27  28
ENDBRANCH  20  22
ENDBRANCH  17  19
ENDBRANCH   1  17
TORSDOF 7
ENDMDL
MODEL 8
REMARK VINA RESULT:      -7.5      3.315      8.563
REMARK  Name = 
REMARK  7 active torsions:
REMARK  status: ('A' for Active; 'I' for Inactive)
REMARK    1  A    between atoms: C_2  and  C_3
REMARK    2  A    between atoms: C_3  and  C_4
REMARK    3  A    between atoms: C_4  and  C_5
REMARK    4  A    between atoms: C_13  and  O_14
REMARK    5  A    between atoms: N_19  and  C_20
REMARK    6  A    between atoms: C_25  and  C_26
REMARK    7  A    between atoms: C_26  and  O_28
REMARK                            x       y       z     vdW  Elec       q    Type
REMARK                         _______ _______ _______ _____ _____    ______ ____
ROOT
ATOM      1  C   UNL     1       2.399   7.425  19.392  0.00  0.00    +0.000 C 
ENDROOT
BRANCH   1   2
ATOM      2  C   UNL     1       1.578   8.365  20.216  0.00  0.00    +0.000 A 
ATOM      3  C   UNL     1       1.323   8.240  21.599  0.00  0.00    +0.000 A 
ATOM      4  C   UNL     1       0.458   9.262  21.901  0.00  0.00    +0.000 A 
ATOM      5  N   UNL     1       0.231   9.945  20.730  0.00  0.00    +0.000 N 
ATOM      6  N   UNL     1       0.919   9.407  19.684  0.00  0.00    +0.000 NA
ATOM      7  C   UNL     1      -0.624  11.067  20.624  0.00  0.00    +0.000 A 
ATOM      8  C   UNL     1      -0.815  11.728  19.403  0.00  0.00    +0.000 A 
ATOM      9  C   UNL     1      -1.670  12.832  19.333  0.00  0.00    +0.000 A 
ATOM     10  C   UNL     1      -2.330  13.266  20.482  0.00  0.00    +0.000 A 
ATOM     11  C   UNL     1      -2.147  12.614  21.695  0.00  0.00    +0.000 A 
ATOM     12  C   UNL     1      -1.292  11.506  21.783  0.00  0.00    +0.000 A 
ATOM     13  C   UNL     1      -1.138  10.827  23.118  0.00  0.00    +0.000 C 
ATOM     14  C   UNL     1      -0.170   9.645  23.187  0.00  0.00    +0.000 C 
BRANCH  10  15
ATOM     15  O   UNL     1      -3.177  14.335  20.465  0.00  0.00    +0.000 OA
ATOM     16  H   UNL     1      -3.543  14.456  21.357  0.00  0.00    +0.000 HD
ENDBRANCH  10  15
ENDBRANCH   1   2
BRANCH   1  17
ATOM     17  C   UNL     1       2.468   5.983  19.906  0.00  0.00    +0.000 C 
BRANCH  17  19
ATOM     18  O   UNL     1       3.320   3.931  19.012  0.00  0.00    +0.000 OA
ATOM     19  C   UNL     1       3.367   5.161  18.994  0.00  0.00    +0.000 C 
ATOM     20  N   UNL     1       4.228   5.910  18.199  0.00  0.00    +0.000 N 
ATOM     21  H   UNL     1       4.394   6.879  18.477  0.00  0.00    +0.000 HD
BRANCH  20  22
ATOM     22  C   UNL     1       5.132   5.370  17.229  0.00  0.00    +0.000 A 
ATOM     23  C   UNL     1       4.664   4.900  15.993  0.00  0.00    +0.000 A 
ATOM     24  C   UNL     1       5.513   4.279  15.073  0.00  0.00    +0.000 A 
ATOM     25  C   UNL     1       6.860   4.125  15.361  0.00  0.00    +0.000 A 
ATOM     26  C   UNL     1       7.368   4.635  16.554  0.00  0.00    +0.000 A 
ATOM     27  C   UNL     1       6.522   5.293  17.473  0.00  0.00    +0.000 A 
BRANCH  27  28
ATOM     28  C   UNL     1       7.113   5.842  18.717  0.00  0.00    +0.000 C 
ATOM     29  O   UNL     1       8.010   6.674  18.714  0.00  0.00    +0.000 OA
BRANCH  28  30
ATOM     30  O   UNL     1       6.629   5.293  19.854  0.00  0.00    +0.000 OA
ATOM     31  H   UNL     1       6.577   5.894  20.621  0.00  0.00    +0.000 HD
ENDBRANCH  28  30
ENDBRANCH  27  28
ENDBRANCH  20  22
ENDBRANCH  17  19
ENDBRANCH   1  17
TORSDOF 7
ENDMDL
MODEL 9
REMARK VINA RESULT:      -7.5      3.465      8.713
REMARK  Name = 
REMARK  7 active torsions:
REMARK  status: ('A' for Active; 'I' for Inactive)
REMARK    1  A    between atoms: C_2  and  C_3
REMARK    2  A    between atoms: C_3  and  C_4
REMARK    3  A    between atoms: C_4  and  C_5
REMARK    4  A    between atoms: C_13  and  O_14
REMARK    5  A    between atoms: N_19  and  C_20
REMARK    6  A    between atoms: C_25  and  C_26
REMARK    7  A    between atoms: C_26  and  O_28
REMARK                            x       y       z     vdW  Elec       q    Type
REMARK                         _______ _______ _______ _____ _____    ______ ____
ROOT
ATOM      1  C   UNL     1       1.760   8.859  17.845  0.00  0.00    +0.000 C 
ENDROOT
BRANCH   1   2
ATOM      2  C   UNL     1       1.133   9.362  19.106  0.00  0.00    +0.000 A 
ATOM      3  C   UNL     1       1.226   8.747  20.373  0.00  0.00    +0.000 A 
ATOM      4  C   UNL     1       0.427   9.498  21.198  0.00  0.00    +0.000 A 
ATOM      5  N   UNL     1      -0.101  10.505  20.426  0.00  0.00    +0.000 N 
ATOM      6  N   UNL     1       0.329  10.438  19.135  0.00  0.00    +0.000 NA
ATOM      7  C   UNL     1      -0.994  11.488  20.914  0.00  0.00    +0.000 A 
ATOM      8  C   UNL     1      -1.498  12.496  20.080  0.00  0.00    +0.000 A 
ATOM      9  C   UNL     1      -2.382  13.450  20.595  0.00  0.00    +0.000 A 
ATOM     10  C   UNL     1      -2.757  13.389  21.935  0.00  0.00    +0.000 A 
ATOM     11  C   UNL     1      -2.262  12.392  22.767  0.00  0.00    +0.000 A 
ATOM     12  C   UNL     1      -1.374  11.428  22.268  0.00  0.00    +0.000 A 
ATOM     13  C   UNL     1      -0.878  10.361  23.206  0.00  0.00    +0.000 C 
ATOM     14  C   UNL     1       0.117   9.348  22.640  0.00  0.00    +0.000 C 
BRANCH  10  15
ATOM     15  O   UNL     1      -3.618  14.294  22.484  0.00  0.00    +0.000 OA
ATOM     16  H   UNL     1      -4.368  14.417  21.878  0.00  0.00    +0.000 HD
ENDBRANCH  10  15
ENDBRANCH   1   2
BRANCH   1  17
ATOM     17  C   UNL     1       3.021   8.007  18.028  0.00  0.00    +0.000 C 
BRANCH  17  19
ATOM     18  O   UNL     1       1.841   5.948  17.702  0.00  0.00    +0.000 OA
ATOM     19  C   UNL     1       2.623   6.586  18.405  0.00  0.00    +0.000 C 
ATOM     20  N   UNL     1       3.187   6.121  19.589  0.00  0.00    +0.000 N 
ATOM     21  H   UNL     1       3.566   6.819  20.230  0.00  0.00    +0.000 HD
BRANCH  20  22
ATOM     22  C   UNL     1       3.004   4.806  20.126  0.00  0.00    +0.000 A 
ATOM     23  C   UNL     1       1.910   4.514  20.954  0.00  0.00    +0.000 A 
ATOM     24  C   UNL     1       1.766   3.267  21.569  0.00  0.00    +0.000 A 
ATOM     25  C   UNL     1       2.708   2.273  21.357  0.00  0.00    +0.000 A 
ATOM     26  C   UNL     1       3.773   2.511  20.492  0.00  0.00    +0.000 A 
ATOM     27  C   UNL     1       3.907   3.757  19.843  0.00  0.00    +0.000 A 
BRANCH  27  28
ATOM     28  C   UNL     1       5.043   3.955  18.911  0.00  0.00    +0.000 C 
ATOM     29  O   UNL     1       6.026   4.625  19.197  0.00  0.00    +0.000 OA
BRANCH  28  30
ATOM     30  O   UNL     1       4.870   3.395  17.693  0.00  0.00    +0.000 OA
ATOM     31  H   UNL     1       5.194   2.479  17.602  0.00  0.00    +0.000 HD
ENDBRANCH  28  30
ENDBRANCH  27  28
ENDBRANCH  20  22
ENDBRANCH  17  19
ENDBRANCH   1  17
TORSDOF 7
ENDMDL
