MODEL 1
REMARK VINA RESULT:      -7.9      0.000      0.000
REMARK  Name = 
REMARK  9 active torsions:
REMARK  status: ('A' for Active; 'I' for Inactive)
REMARK    1  A    between atoms: C_1  and  C_2
REMARK    2  A    between atoms: C_2  and  C_3
REMARK    3  A    between atoms: C_6  and  C_7
REMARK    4  A    between atoms: C_10  and  C_11
REMARK    5  A    between atoms: N_13  and  C_14
REMARK    6  A    between atoms: N_13  and  C_15
REMARK    7  A    between atoms: C_24  and  N_25
REMARK    8  A    between atoms: N_25  and  C_26
REMARK    9  A    between atoms: N_25  and  C_27
REMARK                            x       y       z     vdW  Elec       q    Type
REMARK                         _______ _______ _______ _____ _____    ______ ____
ROOT
ATOM      1  C   UNL     1       0.949   9.258  21.189  0.00  0.00    +0.000 C 
ATOM      2  O   UNL     1       1.354   9.589  22.309  0.00  0.00    +0.000 OA
ATOM      3  N   UNL     1       0.004  10.090  20.537  0.00  0.00    +0.000 N 
ATOM      4  C   UNL     1      -0.317  10.044  19.114  0.00  0.00    +0.000 C 
ENDROOT
BRANCH   3   5
ATOM      5  C   UNL     1      -0.330  11.334  21.248  0.00  0.00    +0.000 C 
ATOM      6  C   UNL     1      -0.934  12.344  20.268  0.00  0.00    +0.000 C 
ATOM      7  C   UNL     1      -1.633  13.317  21.172  0.00  0.00    +0.000 C 
ATOM      8  N   UNL     1      -2.143  12.523  22.280  0.00  0.00    +0.000 N 
ATOM      9  C   UNL     1      -3.225  12.769  23.093  0.00  0.00    +0.000 C 
ATOM     10  O   UNL     1      -3.645  11.885  23.844  0.00  0.00    +0.000 OA
ATOM     11  N   UNL     1      -3.813  14.014  23.062  0.00  0.00    +0.000 N 
ATOM     12  C   UNL     1      -3.305  15.247  22.504  0.00  0.00    +0.000 C 
ATOM     13  C   UNL     1      -3.664  16.281  23.543  0.00  0.00    +0.000 C 
ATOM     14  C   UNL     1      -5.085  15.887  23.958  0.00  0.00    +0.000 C 
ATOM     15  C   UNL     1      -5.002  14.321  23.857  0.00  0.00    +0.000 C 
ATOM     16  C   UNL     1      -1.356  11.294  22.406  0.00  0.00    +0.000 C 
BRANCH  14  17
ATOM     17  N   UNL     1      -6.131  16.520  23.110  0.00  0.00    +0.000 NA
ATOM     18  C   UNL     1      -7.244  15.586  22.887  0.00  0.00    +0.000 C 
ATOM     19  C   UNL     1      -6.684  17.738  23.723  0.00  0.00    +0.000 C 
ENDBRANCH  14  17
ENDBRANCH   3   5
BRANCH   1  23
ATOM     20  C   UNL     1       2.649   6.512  18.973  0.00  0.00    +0.000 A 
ATOM     21  C   UNL     1       2.013   5.837  20.000  0.00  0.00    +0.000 A 
ATOM     22  C   UNL     1       1.377   6.707  20.935  0.00  0.00    +0.000 A 
ATOM     23  C   UNL     1       1.438   8.033  20.556  0.00  0.00    +0.000 A 
ATOM     24  S   UNL     1       2.352   8.195  19.104  0.00  0.00    +0.000 S 
BRANCH  20  28
ATOM     25  C   UNL     1       5.263   4.843  15.974  0.00  0.00    +0.000 A 
ATOM     26  C   UNL     1       5.145   6.230  16.108  0.00  0.00    +0.000 A 
ATOM     27  C   UNL     1       4.291   6.786  17.065  0.00  0.00    +0.000 A 
ATOM     28  C   UNL     1       3.532   5.972  17.921  0.00  0.00    +0.000 A 
ATOM     29  C   UNL     1       3.653   4.582  17.772  0.00  0.00    +0.000 A 
ATOM     30  C   UNL     1       4.506   4.025  16.815  0.00  0.00    +0.000 A 
BRANCH  25  32
ATOM     31  C   UNL     1       5.519   3.972  13.628  0.00  0.00    +0.000 C 
ATOM     32  C   UNL     1       6.201   4.232  14.964  0.00  0.00    +0.000 C 
ENDBRANCH  25  32
ENDBRANCH  20  28
ENDBRANCH   1  23
TORSDOF 5
ENDMDL
MODEL 2
REMARK VINA RESULT:      -7.9      1.148      1.513
REMARK  Name = 
REMARK  9 active torsions:
REMARK  status: ('A' for Active; 'I' for Inactive)
REMARK    1  A    between atoms: C_1  and  C_2
REMARK    2  A    between atoms: C_2  and  C_3
REMARK    3  A    between atoms: C_6  and  C_7
REMARK    4  A    between atoms: C_10  and  C_11
REMARK    5  A    between atoms: N_13  and  C_14
REMARK    6  A    between atoms: N_13  and  C_15
REMARK    7  A    between atoms: C_24  and  N_25
REMARK    8  A    between atoms: N_25  and  C_26
REMARK    9  A    between atoms: N_25  and  C_27
REMARK                            x       y       z     vdW  Elec       q    Type
REMARK                         _______ _______ _______ _____ _____    ______ ____
ROOT
ATOM      1  C   UNL     1       1.106   9.508  20.176  0.00  0.00    +0.000 C 
ATOM      2  O   UNL     1       1.397  10.524  19.535  0.00  0.00    +0.000 OA
ATOM      3  N   UNL     1       0.213   9.631  21.270  0.00  0.00    +0.000 N 
ATOM      4  C   UNL     1      -0.494   8.525  21.908  0.00  0.00    +0.000 C 
ENDROOT
BRANCH   3   5
ATOM      5  C   UNL     1      -0.350  10.976  21.471  0.00  0.00    +0.000 C 
ATOM      6  C   UNL     1      -1.188  11.373  20.252  0.00  0.00    +0.000 C 
ATOM      7  C   UNL     1      -2.044  12.488  20.778  0.00  0.00    +0.000 C 
ATOM      8  N   UNL     1      -2.335  12.138  22.161  0.00  0.00    +0.000 N 
ATOM      9  C   UNL     1      -3.414  12.498  22.934  0.00  0.00    +0.000 C 
ATOM     10  O   UNL     1      -3.610  11.938  24.016  0.00  0.00    +0.000 OA
ATOM     11  N   UNL     1      -4.252  13.495  22.487  0.00  0.00    +0.000 N 
ATOM     12  C   UNL     1      -4.036  14.461  21.434  0.00  0.00    +0.000 C 
ATOM     13  C   UNL     1      -4.567  15.747  22.019  0.00  0.00    +0.000 C 
ATOM     14  C   UNL     1      -5.857  15.311  22.721  0.00  0.00    +0.000 C 
ATOM     15  C   UNL     1      -5.449  13.883  23.233  0.00  0.00    +0.000 C 
ATOM     16  C   UNL     1      -1.302  11.230  22.664  0.00  0.00    +0.000 C 
BRANCH  14  17
ATOM     17  N   UNL     1      -7.043  15.345  21.824  0.00  0.00    +0.000 NA
ATOM     18  C   UNL     1      -7.890  14.164  22.047  0.00  0.00    +0.000 C 
ATOM     19  C   UNL     1      -7.873  16.540  22.042  0.00  0.00    +0.000 C 
ENDBRANCH  14  17
ENDBRANCH   3   5
BRANCH   1  23
ATOM     20  C   UNL     1       2.921   6.457  18.523  0.00  0.00    +0.000 A 
ATOM     21  C   UNL     1       2.423   5.999  19.731  0.00  0.00    +0.000 A 
ATOM     22  C   UNL     1       1.766   7.015  20.488  0.00  0.00    +0.000 A 
ATOM     23  C   UNL     1       1.672   8.211  19.807  0.00  0.00    +0.000 A 
ATOM     24  S   UNL     1       2.468   8.092  18.282  0.00  0.00    +0.000 S 
BRANCH  20  28
ATOM     25  C   UNL     1       5.411   4.479  15.607  0.00  0.00    +0.000 A 
ATOM     26  C   UNL     1       4.672   3.726  16.524  0.00  0.00    +0.000 A 
ATOM     27  C   UNL     1       3.872   4.353  17.485  0.00  0.00    +0.000 A 
ATOM     28  C   UNL     1       3.782   5.752  17.554  0.00  0.00    +0.000 A 
ATOM     29  C   UNL     1       4.535   6.497  16.633  0.00  0.00    +0.000 A 
ATOM     30  C   UNL     1       5.335   5.872  15.673  0.00  0.00    +0.000 A 
BRANCH  25  32
ATOM     31  C   UNL     1       5.599   3.859  13.177  0.00  0.00    +0.000 C 
ATOM     32  C   UNL     1       6.256   3.815  14.549  0.00  0.00    +0.000 C 
ENDBRANCH  25  32
ENDBRANCH  20  28
ENDBRANCH   1  23
TORSDOF 5
ENDMDL
MODEL 3
REMARK VINA RESULT:      -7.5      0.796      1.254
REMARK  Name = 
REMARK  9 active torsions:
REMARK  status: ('A' for Active; 'I' for Inactive)
REMARK    1  A    between atoms: C_1  and  C_2
REMARK    2  A    between atoms: C_2  and  C_3
REMARK    3  A    between atoms: C_6  and  C_7
REMARK    4  A    between atoms: C_10  and  C_11
REMARK    5  A    between atoms: N_13  and  C_14
REMARK    6  A    between atoms: N_13  and  C_15
REMARK    7  A    between atoms: C_24  and  N_25
REMARK    8  A    between atoms: N_25  and  C_26
REMARK    9  A    between atoms: N_25  and  C_27
REMARK                            x       y       z     vdW  Elec       q    Type
REMARK                         _______ _______ _______ _____ _____    ______ ____
ROOT
ATOM      1  C   UNL     1       1.157   9.046  21.583  0.00  0.00    +0.000 C 
ATOM      2  O   UNL     1       1.721   9.303  22.652  0.00  0.00    +0.000 OA
ATOM      3  N   UNL     1       0.102   9.890  21.154  0.00  0.00    +0.000 N 
ATOM      4  C   UNL     1      -0.434   9.945  19.798  0.00  0.00    +0.000 C 
ENDROOT
BRANCH   3   5
ATOM      5  C   UNL     1      -0.151  11.060  22.010  0.00  0.00    +0.000 C 
ATOM      6  C   UNL     1      -0.181  12.330  21.155  0.00  0.00    +0.000 C 
ATOM      7  C   UNL     1      -0.892  13.315  22.036  0.00  0.00    +0.000 C 
ATOM      8  N   UNL     1      -1.884  12.540  22.768  0.00  0.00    +0.000 N 
ATOM      9  C   UNL     1      -3.080  12.955  23.303  0.00  0.00    +0.000 C 
ATOM     10  O   UNL     1      -3.898  12.121  23.703  0.00  0.00    +0.000 OA
ATOM     11  N   UNL     1      -3.338  14.305  23.396  0.00  0.00    +0.000 N 
ATOM     12  C   UNL     1      -2.422  15.416  23.277  0.00  0.00    +0.000 C 
ATOM     13  C   UNL     1      -2.846  16.345  24.388  0.00  0.00    +0.000 C 
ATOM     14  C   UNL     1      -4.376  16.304  24.319  0.00  0.00    +0.000 C 
ATOM     15  C   UNL     1      -4.616  14.809  23.899  0.00  0.00    +0.000 C 
ATOM     16  C   UNL     1      -1.467  11.137  22.820  0.00  0.00    +0.000 C 
BRANCH  14  17
ATOM     17  N   UNL     1      -4.940  17.319  23.389  0.00  0.00    +0.000 NA
ATOM     18  C   UNL     1      -6.298  17.699  23.805  0.00  0.00    +0.000 C 
ATOM     19  C   UNL     1      -4.126  18.544  23.341  0.00  0.00    +0.000 C 
ENDBRANCH  14  17
ENDBRANCH   3   5
BRANCH   1  23
ATOM     20  C   UNL     1       2.727   6.538  19.016  0.00  0.00    +0.000 A 
ATOM     21  C   UNL     1       2.000   5.769  19.909  0.00  0.00    +0.000 A 
ATOM     22  C   UNL     1       1.397   6.538  20.949  0.00  0.00    +0.000 A 
ATOM     23  C   UNL     1       1.576   7.896  20.782  0.00  0.00    +0.000 A 
ATOM     24  S   UNL     1       2.557   8.201  19.398  0.00  0.00    +0.000 S 
BRANCH  20  28
ATOM     25  C   UNL     1       5.275   5.339  15.748  0.00  0.00    +0.000 A 
ATOM     26  C   UNL     1       4.494   4.389  16.413  0.00  0.00    +0.000 A 
ATOM     27  C   UNL     1       3.675   4.760  17.484  0.00  0.00    +0.000 A 
ATOM     28  C   UNL     1       3.607   6.093  17.919  0.00  0.00    +0.000 A 
ATOM     29  C   UNL     1       4.401   7.036  17.248  0.00  0.00    +0.000 A 
ATOM     30  C   UNL     1       5.221   6.666  16.178  0.00  0.00    +0.000 A 
BRANCH  25  32
ATOM     31  C   UNL     1       5.574   3.774  13.801  0.00  0.00    +0.000 C 
ATOM     32  C   UNL     1       6.142   4.956  14.575  0.00  0.00    +0.000 C 
ENDBRANCH  25  32
ENDBRANCH  20  28
ENDBRANCH   1  23
TORSDOF 5
ENDMDL
MODEL 4
REMARK VINA RESULT:      -7.5      1.682      2.030
REMARK  Name = 
REMARK  9 active torsions:
REMARK  status: ('A' for Active; 'I' for Inactive)
REMARK    1  A    between atoms: C_1  and  C_2
REMARK    2  A    between atoms: C_2  and  C_3
REMARK    3  A    between atoms: C_6  and  C_7
REMARK    4  A    between atoms: C_10  and  C_11
REMARK    5  A    between atoms: N_13  and  C_14
REMARK    6  A    between atoms: N_13  and  C_15
REMARK    7  A    between atoms: C_24  and  N_25
REMARK    8  A    between atoms: N_25  and  C_26
REMARK    9  A    between atoms: N_25  and  C_27
REMARK                            x       y       z     vdW  Elec       q    Type
REMARK                         _______ _______ _______ _____ _____    ______ ____
ROOT
ATOM      1  C   UNL     1       0.766  10.490  19.687  0.00  0.00    +0.000 C 
ATOM      2  O   UNL     1       0.677  11.222  18.697  0.00  0.00    +0.000 OA
ATOM      3  N   UNL     1       0.278  10.969  20.929  0.00  0.00    +0.000 N 
ATOM      4  C   UNL     1      -0.009  10.141  22.096  0.00  0.00    +0.000 C 
ENDROOT
BRANCH   3   5
ATOM      5  C   UNL     1      -0.377  12.286  20.878  0.00  0.00    +0.000 C 
ATOM      6  C   UNL     1      -1.891  12.117  21.037  0.00  0.00    +0.000 C 
ATOM      7  C   UNL     1      -2.346  13.492  21.434  0.00  0.00    +0.000 C 
ATOM      8  N   UNL     1      -1.275  14.033  22.259  0.00  0.00    +0.000 N 
ATOM      9  C   UNL     1      -1.346  14.982  23.251  0.00  0.00    +0.000 C 
ATOM     10  O   UNL     1      -0.380  15.168  23.996  0.00  0.00    +0.000 OA
ATOM     11  N   UNL     1      -2.500  15.723  23.385  0.00  0.00    +0.000 N 
ATOM     12  C   UNL     1      -3.596  15.876  22.456  0.00  0.00    +0.000 C 
ATOM     13  C   UNL     1      -3.913  17.350  22.522  0.00  0.00    +0.000 C 
ATOM     14  C   UNL     1      -3.826  17.664  24.018  0.00  0.00    +0.000 C 
ATOM     15  C   UNL     1      -2.661  16.705  24.457  0.00  0.00    +0.000 C 
ATOM     16  C   UNL     1      -0.018  13.353  21.939  0.00  0.00    +0.000 C 
BRANCH  14  17
ATOM     17  N   UNL     1      -5.116  17.455  24.729  0.00  0.00    +0.000 NA
ATOM     18  C   UNL     1      -5.248  18.404  25.844  0.00  0.00    +0.000 C 
ATOM     19  C   UNL     1      -6.277  17.640  23.842  0.00  0.00    +0.000 C 
ENDBRANCH  14  17
ENDBRANCH   3   5
BRANCH   1  23
ATOM     20  C   UNL     1       2.620   7.204  18.635  0.00  0.00    +0.000 A 
ATOM     21  C   UNL     1       2.182   6.999  19.932  0.00  0.00    +0.000 A 
ATOM     22  C   UNL     1       1.520   8.135  20.487  0.00  0.00    +0.000 A 
ATOM     23  C   UNL     1       1.361   9.158  19.574  0.00  0.00    +0.000 A 
ATOM     24  S   UNL     1       2.105   8.741  18.076  0.00  0.00    +0.000 S 
BRANCH  20  28
ATOM     25  C   UNL     1       5.103   4.575  16.282  0.00  0.00    +0.000 A 
ATOM     26  C   UNL     1       5.291   5.959  16.219  0.00  0.00    +0.000 A 
ATOM     27  C   UNL     1       4.484   6.825  16.964  0.00  0.00    +0.000 A 
ATOM     28  C   UNL     1       3.468   6.333  17.799  0.00  0.00    +0.000 A 
ATOM     29  C   UNL     1       3.285   4.942  17.848  0.00  0.00    +0.000 A 
ATOM     30  C   UNL     1       4.090   4.076  17.103  0.00  0.00    +0.000 A 
BRANCH  25  32
ATOM     31  C   UNL     1       6.246   4.122  14.088  0.00  0.00    +0.000 C 
ATOM     32  C   UNL     1       5.984   3.631  15.504  0.00  0.00    +0.000 C 
ENDBRANCH  25  32
ENDBRANCH  20  28
ENDBRANCH   1  23
TORSDOF 5
ENDMDL
MODEL 5
REMARK VINA RESULT:      -7.4      0.569      1.157
REMARK  Name = 
REMARK  9 active torsions:
REMARK  status: ('A' for Active; 'I' for Inactive)
REMARK    1  A    between atoms: C_1  and  C_2
REMARK    2  A    between atoms: C_2  and  C_3
REMARK    3  A    between atoms: C_6  and  C_7
REMARK    4  A    between atoms: C_10  and  C_11
REMARK    5  A    between atoms: N_13  and  C_14
REMARK    6  A    between atoms: N_13  and  C_15
REMARK    7  A    between atoms: C_24  and  N_25
REMARK    8  A    between atoms: N_25  and  C_26
REMARK    9  A    between atoms: N_25  and  C_27
REMARK                            x       y       z     vdW  Elec       q    Type
REMARK                         _______ _______ _______ _____ _____    ______ ____
ROOT
ATOM      1  C   UNL     1       0.970   9.272  20.848  0.00  0.00    +0.000 C 
ATOM      2  O   UNL     1       1.404   9.742  21.905  0.00  0.00    +0.000 OA
ATOM      3  N   UNL     1      -0.042   9.984  20.156  0.00  0.00    +0.000 N 
ATOM      4  C   UNL     1      -0.419   9.770  18.763  0.00  0.00    +0.000 C 
ENDROOT
BRANCH   3   5
ATOM      5  C   UNL     1      -0.409  11.282  20.746  0.00  0.00    +0.000 C 
ATOM      6  C   UNL     1      -1.247  12.086  19.747  0.00  0.00    +0.000 C 
ATOM      7  C   UNL     1      -1.918  13.110  20.614  0.00  0.00    +0.000 C 
ATOM      8  N   UNL     1      -2.184  12.438  21.877  0.00  0.00    +0.000 N 
ATOM      9  C   UNL     1      -3.165  12.699  22.805  0.00  0.00    +0.000 C 
ATOM     10  O   UNL     1      -3.381  11.895  23.717  0.00  0.00    +0.000 OA
ATOM     11  N   UNL     1      -3.883  13.870  22.705  0.00  0.00    +0.000 N 
ATOM     12  C   UNL     1      -3.593  15.051  21.925  0.00  0.00    +0.000 C 
ATOM     13  C   UNL     1      -3.917  16.186  22.867  0.00  0.00    +0.000 C 
ATOM     14  C   UNL     1      -5.216  15.729  23.536  0.00  0.00    +0.000 C 
ATOM     15  C   UNL     1      -4.979  14.178  23.623  0.00  0.00    +0.000 C 
ATOM     16  C   UNL     1      -1.258  11.314  22.039  0.00  0.00    +0.000 C 
BRANCH  14  17
ATOM     17  N   UNL     1      -6.431  16.140  22.781  0.00  0.00    +0.000 NA
ATOM     18  C   UNL     1      -6.076  17.090  21.716  0.00  0.00    +0.000 C 
ATOM     19  C   UNL     1      -7.110  14.996  22.153  0.00  0.00    +0.000 C 
ENDBRANCH  14  17
ENDBRANCH   3   5
BRANCH   1  23
ATOM     20  C   UNL     1       2.745   6.388  18.880  0.00  0.00    +0.000 A 
ATOM     21  C   UNL     1       2.135   5.791  19.970  0.00  0.00    +0.000 A 
ATOM     22  C   UNL     1       1.476   6.724  20.825  0.00  0.00    +0.000 A 
ATOM     23  C   UNL     1       1.495   8.011  20.326  0.00  0.00    +0.000 A 
ATOM     24  S   UNL     1       2.397   8.066  18.859  0.00  0.00    +0.000 S 
BRANCH  20  28
ATOM     25  C   UNL     1       5.328   4.697  15.866  0.00  0.00    +0.000 A 
ATOM     26  C   UNL     1       4.638   3.860  16.749  0.00  0.00    +0.000 A 
ATOM     27  C   UNL     1       3.809   4.394  17.741  0.00  0.00    +0.000 A 
ATOM     28  C   UNL     1       3.640   5.781  17.877  0.00  0.00    +0.000 A 
ATOM     29  C   UNL     1       4.344   6.610  16.990  0.00  0.00    +0.000 A 
ATOM     30  C   UNL     1       5.173   6.078  15.999  0.00  0.00    +0.000 A 
BRANCH  25  32
ATOM     31  C   UNL     1       5.488   4.079  13.433  0.00  0.00    +0.000 C 
ATOM     32  C   UNL     1       6.203   4.132  14.776  0.00  0.00    +0.000 C 
ENDBRANCH  25  32
ENDBRANCH  20  28
ENDBRANCH   1  23
TORSDOF 5
ENDMDL
MODEL 6
REMARK VINA RESULT:      -7.4      2.359      3.084
REMARK  Name = 
REMARK  9 active torsions:
REMARK  status: ('A' for Active; 'I' for Inactive)
REMARK    1  A    between atoms: C_1  and  C_2
REMARK    2  A    between atoms: C_2  and  C_3
REMARK    3  A    between atoms: C_6  and  C_7
REMARK    4  A    between atoms: C_10  and  C_11
REMARK    5  A    between atoms: N_13  and  C_14
REMARK    6  A    between atoms: N_13  and  C_15
REMARK    7  A    between atoms: C_24  and  N_25
REMARK    8  A    between atoms: N_25  and  C_26
REMARK    9  A    between atoms: N_25  and  C_27
REMARK                            x       y       z     vdW  Elec       q    Type
REMARK                         _______ _______ _______ _____ _____    ______ ____
ROOT
ATOM      1  C   UNL     1       0.830   9.486  19.842  0.00  0.00    +0.000 C 
ATOM      2  O   UNL     1       0.268  10.088  18.921  0.00  0.00    +0.000 OA
ATOM      3  N   UNL     1       0.703   9.993  21.159  0.00  0.00    +0.000 N 
ATOM      4  C   UNL     1       0.998   9.250  22.379  0.00  0.00    +0.000 C 
ENDROOT
BRANCH   3   5
ATOM      5  C   UNL     1      -0.182  11.162  21.297  0.00  0.00    +0.000 C 
ATOM      6  C   UNL     1      -0.775  11.198  22.709  0.00  0.00    +0.000 C 
ATOM      7  C   UNL     1      -1.235  12.619  22.847  0.00  0.00    +0.000 C 
ATOM      8  N   UNL     1      -0.262  13.418  22.116  0.00  0.00    +0.000 N 
ATOM      9  C   UNL     1       0.095  14.732  22.307  0.00  0.00    +0.000 C 
ATOM     10  O   UNL     1       1.091  15.189  21.738  0.00  0.00    +0.000 OA
ATOM     11  N   UNL     1      -0.682  15.523  23.124  0.00  0.00    +0.000 N 
ATOM     12  C   UNL     1      -2.017  15.281  23.622  0.00  0.00    +0.000 C 
ATOM     13  C   UNL     1      -2.699  16.619  23.473  0.00  0.00    +0.000 C 
ATOM     14  C   UNL     1      -1.630  17.614  23.934  0.00  0.00    +0.000 C 
ATOM     15  C   UNL     1      -0.324  16.911  23.415  0.00  0.00    +0.000 C 
ATOM     16  C   UNL     1       0.403  12.582  21.113  0.00  0.00    +0.000 C 
BRANCH  14  17
ATOM     17  N   UNL     1      -1.669  17.867  25.400  0.00  0.00    +0.000 NA
ATOM     18  C   UNL     1      -0.486  18.631  25.821  0.00  0.00    +0.000 C 
ATOM     19  C   UNL     1      -2.862  18.631  25.801  0.00  0.00    +0.000 C 
ENDBRANCH  14  17
ENDBRANCH   3   5
BRANCH   1  23
ATOM     20  C   UNL     1       3.117   6.648  18.407  0.00  0.00    +0.000 A 
ATOM     21  C   UNL     1       2.734   6.231  19.670  0.00  0.00    +0.000 A 
ATOM     22  C   UNL     1       1.926   7.187  20.356  0.00  0.00    +0.000 A 
ATOM     23  C   UNL     1       1.607   8.277  19.571  0.00  0.00    +0.000 A 
ATOM     24  S   UNL     1       2.379   8.150  18.035  0.00  0.00    +0.000 S 
BRANCH  20  28
ATOM     25  C   UNL     1       5.905   4.894  15.620  0.00  0.00    +0.000 A 
ATOM     26  C   UNL     1       4.831   4.142  16.105  0.00  0.00    +0.000 A 
ATOM     27  C   UNL     1       3.927   4.691  17.020  0.00  0.00    +0.000 A 
ATOM     28  C   UNL     1       4.067   6.013  17.474  0.00  0.00    +0.000 A 
ATOM     29  C   UNL     1       5.154   6.755  16.986  0.00  0.00    +0.000 A 
ATOM     30  C   UNL     1       6.057   6.207  16.073  0.00  0.00    +0.000 A 
BRANCH  25  32
ATOM     31  C   UNL     1       6.157   3.725  13.408  0.00  0.00    +0.000 C 
ATOM     32  C   UNL     1       6.870   4.322  14.613  0.00  0.00    +0.000 C 
ENDBRANCH  25  32
ENDBRANCH  20  28
ENDBRANCH   1  23
TORSDOF 5
ENDMDL
MODEL 7
REMARK VINA RESULT:      -7.2      1.647      2.367
REMARK  Name = 
REMARK  9 active torsions:
REMARK  status: ('A' for Active; 'I' for Inactive)
REMARK    1  A    between atoms: C_1  and  C_2
REMARK    2  A    between atoms: C_2  and  C_3
REMARK    3  A    between atoms: C_6  and  C_7
REMARK    4  A    between atoms: C_10  and  C_11
REMARK    5  A    between atoms: N_13  and  C_14
REMARK    6  A    between atoms: N_13  and  C_15
REMARK    7  A    between atoms: C_24  and  N_25
REMARK    8  A    between atoms: N_25  and  C_26
REMARK    9  A    between atoms: N_25  and  C_27
REMARK                            x       y       z     vdW  Elec       q    Type
REMARK                         _______ _______ _______ _____ _____    ______ ____
ROOT
ATOM      1  C   UNL     1       0.751  10.819  20.367  0.00  0.00    +0.000 C 
ATOM      2  O   UNL     1       1.340  11.194  21.386  0.00  0.00    +0.000 OA
ATOM      3  N   UNL     1      -0.545  11.331  20.107  0.00  0.00    +0.000 N 
ATOM      4  C   UNL     1      -1.231  11.273  18.820  0.00  0.00    +0.000 C 
ENDROOT
BRANCH   3   5
ATOM      5  C   UNL     1      -1.020  12.346  21.062  0.00  0.00    +0.000 C 
ATOM      6  C   UNL     1      -1.461  13.602  20.305  0.00  0.00    +0.000 C 
ATOM      7  C   UNL     1      -2.324  14.315  21.305  0.00  0.00    +0.000 C 
ATOM      8  N   UNL     1      -3.006  13.266  22.049  0.00  0.00    +0.000 N 
ATOM      9  C   UNL     1      -4.217  13.316  22.700  0.00  0.00    +0.000 C 
ATOM     10  O   UNL     1      -4.746  12.274  23.097  0.00  0.00    +0.000 OA
ATOM     11  N   UNL     1      -4.813  14.540  22.908  0.00  0.00    +0.000 N 
ATOM     12  C   UNL     1      -4.237  15.861  22.803  0.00  0.00    +0.000 C 
ATOM     13  C   UNL     1      -4.789  16.585  24.006  0.00  0.00    +0.000 C 
ATOM     14  C   UNL     1      -6.253  16.138  24.048  0.00  0.00    +0.000 C 
ATOM     15  C   UNL     1      -6.127  14.656  23.540  0.00  0.00    +0.000 C 
ATOM     16  C   UNL     1      -2.231  12.025  21.970  0.00  0.00    +0.000 C 
BRANCH  14  17
ATOM     17  N   UNL     1      -7.147  17.008  23.237  0.00  0.00    +0.000 NA
ATOM     18  C   UNL     1      -6.430  18.216  22.801  0.00  0.00    +0.000 C 
ATOM     19  C   UNL     1      -7.648  16.325  22.033  0.00  0.00    +0.000 C 
ENDBRANCH  14  17
ENDBRANCH   3   5
BRANCH   1  23
ATOM     20  C   UNL     1       2.230   7.711  18.498  0.00  0.00    +0.000 A 
ATOM     21  C   UNL     1       2.388   8.785  17.640  0.00  0.00    +0.000 A 
ATOM     22  C   UNL     1       1.850  10.001  18.159  0.00  0.00    +0.000 A 
ATOM     23  C   UNL     1       1.384   9.870  19.451  0.00  0.00    +0.000 A 
ATOM     24  S   UNL     1       1.535   8.235  19.975  0.00  0.00    +0.000 S 
BRANCH  20  28
ATOM     25  C   UNL     1       3.001   3.511  17.880  0.00  0.00    +0.000 A 
ATOM     26  C   UNL     1       3.943   4.463  17.481  0.00  0.00    +0.000 A 
ATOM     27  C   UNL     1       3.701   5.829  17.661  0.00  0.00    +0.000 A 
ATOM     28  C   UNL     1       2.511   6.284  18.250  0.00  0.00    +0.000 A 
ATOM     29  C   UNL     1       1.570   5.319  18.640  0.00  0.00    +0.000 A 
ATOM     30  C   UNL     1       1.810   3.954  18.460  0.00  0.00    +0.000 A 
BRANCH  25  32
ATOM     31  C   UNL     1       3.864   1.414  18.968  0.00  0.00    +0.000 C 
ATOM     32  C   UNL     1       3.262   2.035  17.715  0.00  0.00    +0.000 C 
ENDBRANCH  25  32
ENDBRANCH  20  28
ENDBRANCH   1  23
TORSDOF 5
ENDMDL
MODEL 8
REMARK VINA RESULT:      -6.9      2.135      2.708
REMARK  Name = 
REMARK  9 active torsions:
REMARK  status: ('A' for Active; 'I' for Inactive)
REMARK    1  A    between atoms: C_1  and  C_2
REMARK    2  A    between atoms: C_2  and  C_3
REMARK    3  A    between atoms: C_6  and  C_7
REMARK    4  A    between atoms: C_10  and  C_11
REMARK    5  A    between atoms: N_13  and  C_14
REMARK    6  A    between atoms: N_13  and  C_15
REMARK    7  A    between atoms: C_24  and  N_25
REMARK    8  A    between atoms: N_25  and  C_26
REMARK    9  A    between atoms: N_25  and  C_27
REMARK                            x       y       z     vdW  Elec       q    Type
REMARK                         _______ _______ _______ _____ _____    ______ ____
ROOT
ATOM      1  C   UNL     1       1.489   8.326  20.624  0.00  0.00    +0.000 C 
ATOM      2  O   UNL     1       1.612   8.403  21.851  0.00  0.00    +0.000 OA
ATOM      3  N   UNL     1       0.857   9.393  19.939  0.00  0.00    +0.000 N 
ATOM      4  C   UNL     1       0.929   9.629  18.500  0.00  0.00    +0.000 C 
ENDROOT
BRANCH   3   5
ATOM      5  C   UNL     1       0.486  10.544  20.778  0.00  0.00    +0.000 C 
ATOM      6  C   UNL     1       1.256  11.787  20.320  0.00  0.00    +0.000 C 
ATOM      7  C   UNL     1       0.460  12.915  20.910  0.00  0.00    +0.000 C 
ATOM      8  N   UNL     1      -0.929  12.482  20.854  0.00  0.00    +0.000 N 
ATOM      9  C   UNL     1      -2.069  13.248  20.786  0.00  0.00    +0.000 C 
ATOM     10  O   UNL     1      -3.154  12.717  20.528  0.00  0.00    +0.000 OA
ATOM     11  N   UNL     1      -1.980  14.602  21.023  0.00  0.00    +0.000 N 
ATOM     12  C   UNL     1      -0.900  15.350  21.625  0.00  0.00    +0.000 C 
ATOM     13  C   UNL     1      -1.608  16.320  22.539  0.00  0.00    +0.000 C 
ATOM     14  C   UNL     1      -2.800  16.792  21.700  0.00  0.00    +0.000 C 
ATOM     15  C   UNL     1      -3.144  15.480  20.907  0.00  0.00    +0.000 C 
ATOM     16  C   UNL     1      -0.986  11.019  20.807  0.00  0.00    +0.000 C 
BRANCH  14  17
ATOM     17  N   UNL     1      -2.480  17.974  20.855  0.00  0.00    +0.000 NA
ATOM     18  C   UNL     1      -1.252  18.628  21.331  0.00  0.00    +0.000 C 
ATOM     19  C   UNL     1      -2.277  17.611  19.444  0.00  0.00    +0.000 C 
ENDBRANCH  14  17
ENDBRANCH   3   5
BRANCH   1  23
ATOM     20  C   UNL     1       3.240   5.768  18.230  0.00  0.00    +0.000 A 
ATOM     21  C   UNL     1       2.564   5.011  19.172  0.00  0.00    +0.000 A 
ATOM     22  C   UNL     1       1.904   5.803  20.159  0.00  0.00    +0.000 A 
ATOM     23  C   UNL     1       1.989   7.157  19.902  0.00  0.00    +0.000 A 
ATOM     24  S   UNL     1       2.953   7.436  18.500  0.00  0.00    +0.000 S 
BRANCH  20  28
ATOM     25  C   UNL     1       5.866   4.524  15.041  0.00  0.00    +0.000 A 
ATOM     26  C   UNL     1       5.276   3.570  15.876  0.00  0.00    +0.000 A 
ATOM     27  C   UNL     1       4.435   3.958  16.923  0.00  0.00    +0.000 A 
ATOM     28  C   UNL     1       4.153   5.313  17.164  0.00  0.00    +0.000 A 
ATOM     29  C   UNL     1       4.757   6.261  16.323  0.00  0.00    +0.000 A 
ATOM     30  C   UNL     1       5.598   5.874  15.277  0.00  0.00    +0.000 A 
BRANCH  25  32
ATOM     31  C   UNL     1       5.961   3.528  12.733  0.00  0.00    +0.000 C 
ATOM     32  C   UNL     1       6.753   4.116  13.892  0.00  0.00    +0.000 C 
ENDBRANCH  25  32
ENDBRANCH  20  28
ENDBRANCH   1  23
TORSDOF 5
ENDMDL
MODEL 9
REMARK VINA RESULT:      -6.8      1.950      2.803
REMARK  Name = 
REMARK  9 active torsions:
REMARK  status: ('A' for Active; 'I' for Inactive)
REMARK    1  A    between atoms: C_1  and  C_2
REMARK    2  A    between atoms: C_2  and  C_3
REMARK    3  A    between atoms: C_6  and  C_7
REMARK    4  A    between atoms: C_10  and  C_11
REMARK    5  A    between atoms: N_13  and  C_14
REMARK    6  A    between atoms: N_13  and  C_15
REMARK    7  A    between atoms: C_24  and  N_25
REMARK    8  A    between atoms: N_25  and  C_26
REMARK    9  A    between atoms: N_25  and  C_27
REMARK                            x       y       z     vdW  Elec       q    Type
REMARK                         _______ _______ _______ _____ _____    ______ ____
ROOT
ATOM      1  C   UNL     1       0.155  11.033  19.957  0.00  0.00    +0.000 C 
ATOM      2  O   UNL     1      -1.051  10.841  20.145  0.00  0.00    +0.000 OA
ATOM      3  N   UNL     1       0.715  12.270  20.364  0.00  0.00    +0.000 N 
ATOM      4  C   UNL     1       2.140  12.533  20.533  0.00  0.00    +0.000 C 
ENDROOT
BRANCH   3   5
ATOM      5  C   UNL     1      -0.210  13.176  21.064  0.00  0.00    +0.000 C 
ATOM      6  C   UNL     1      -1.283  13.674  20.090  0.00  0.00    +0.000 C 
ATOM      7  C   UNL     1      -2.368  14.164  21.004  0.00  0.00    +0.000 C 
ATOM      8  N   UNL     1      -2.350  13.264  22.148  0.00  0.00    +0.000 N 
ATOM      9  C   UNL     1      -3.376  12.933  23.002  0.00  0.00    +0.000 C 
ATOM     10  O   UNL     1      -3.244  11.991  23.788  0.00  0.00    +0.000 OA
ATOM     11  N   UNL     1      -4.536  13.676  22.971  0.00  0.00    +0.000 N 
ATOM     12  C   UNL     1      -4.774  14.967  22.367  0.00  0.00    +0.000 C 
ATOM     13  C   UNL     1      -5.600  15.695  23.400  0.00  0.00    +0.000 C 
ATOM     14  C   UNL     1      -6.584  14.625  23.884  0.00  0.00    +0.000 C 
ATOM     15  C   UNL     1      -5.686  13.338  23.810  0.00  0.00    +0.000 C 
ATOM     16  C   UNL     1      -1.028  12.645  22.265  0.00  0.00    +0.000 C 
BRANCH  14  17
ATOM     17  N   UNL     1      -7.828  14.574  23.069  0.00  0.00    +0.000 NA
ATOM     18  C   UNL     1      -7.896  15.730  22.163  0.00  0.00    +0.000 C 
ATOM     19  C   UNL     1      -7.906  13.355  22.248  0.00  0.00    +0.000 C 
ENDBRANCH  14  17
ENDBRANCH   3   5
BRANCH   1  23
ATOM     20  C   UNL     1       2.236   7.857  18.996  0.00  0.00    +0.000 A 
ATOM     21  C   UNL     1       2.225   8.664  17.871  0.00  0.00    +0.000 A 
ATOM     22  C   UNL     1       1.458   9.855  18.042  0.00  0.00    +0.000 A 
ATOM     23  C   UNL     1       0.980  10.002  19.329  0.00  0.00    +0.000 A 
ATOM     24  S   UNL     1       1.408   8.631  20.282  0.00  0.00    +0.000 S 
BRANCH  20  28
ATOM     25  C   UNL     1       3.840   3.865  19.322  0.00  0.00    +0.000 A 
ATOM     26  C   UNL     1       2.814   4.280  20.175  0.00  0.00    +0.000 A 
ATOM     27  C   UNL     1       2.294   5.576  20.092  0.00  0.00    +0.000 A 
ATOM     28  C   UNL     1       2.781   6.494  19.149  0.00  0.00    +0.000 A 
ATOM     29  C   UNL     1       3.816   6.069  18.302  0.00  0.00    +0.000 A 
ATOM     30  C   UNL     1       4.337   4.775  18.385  0.00  0.00    +0.000 A 
BRANCH  25  32
ATOM     31  C   UNL     1       3.641   1.509  18.464  0.00  0.00    +0.000 C 
ATOM     32  C   UNL     1       4.391   2.463  19.384  0.00  0.00    +0.000 C 
ENDBRANCH  25  32
ENDBRANCH  20  28
ENDBRANCH   1  23
TORSDOF 5
ENDMDL
