MODEL 1
REMARK VINA RESULT:      -8.7      0.000      0.000
REMARK  Name = 
REMARK  3 active torsions:
REMARK  status: ('A' for Active; 'I' for Inactive)
REMARK    1  A    between atoms: C_1  and  N_2
REMARK    2  A    between atoms: C_4  and  C_5
REMARK    3  A    between atoms: C_5  and  C_7
REMARK                            x       y       z     vdW  Elec       q    Type
REMARK                         _______ _______ _______ _____ _____    ______ ____
ROOT
ATOM      1  C   UNL     1       3.304   3.906  19.106  0.00  0.00    +0.000 A 
ATOM      2  N   UNL     1       3.118   3.171  20.232  0.00  0.00    +0.000 NA
ATOM      3  C   UNL     1       2.462   3.728  21.257  0.00  0.00    +0.000 A 
ATOM      4  C   UNL     1       1.999   5.025  21.240  0.00  0.00    +0.000 A 
ATOM      5  C   UNL     1       2.216   5.839  20.111  0.00  0.00    +0.000 A 
ATOM      6  C   UNL     1       2.889   5.262  19.004  0.00  0.00    +0.000 A 
ATOM      7  C   UNL     1       3.078   6.110  17.902  0.00  0.00    +0.000 A 
ATOM      8  N   UNL     1       2.681   7.399  17.824  0.00  0.00    +0.000 NA
ATOM      9  C   UNL     1       2.054   7.931  18.872  0.00  0.00    +0.000 A 
ATOM     10  C   UNL     1       1.663   9.258  18.767  0.00  0.00    +0.000 A 
ATOM     11  C   UNL     1       0.999   9.913  19.802  0.00  0.00    +0.000 A 
ATOM     12  C   UNL     1       0.719   9.227  20.972  0.00  0.00    +0.000 A 
ATOM     13  C   UNL     1       1.106   7.893  21.098  0.00  0.00    +0.000 A 
ATOM     14  C   UNL     1       1.783   7.209  20.052  0.00  0.00    +0.000 A 
ENDROOT
BRANCH   1  15
ATOM     15  C   UNL     1       3.995   3.171  17.980  0.00  0.00    +0.000 C 
ATOM     16  O   UNL     1       3.662   2.020  17.691  0.00  0.00    +0.000 OA
BRANCH  15  20
ATOM     17  C   UNL     1       5.910   3.912  13.560  0.00  0.00    +0.000 C 
ATOM     18  N   UNL     1       5.985   4.175  14.984  0.00  0.00    +0.000 N 
ATOM     19  C   UNL     1       5.043   3.628  15.843  0.00  0.00    +0.000 A 
ATOM     20  C   UNL     1       5.096   3.822  17.176  0.00  0.00    +0.000 A 
ATOM     21  C   UNL     1       6.211   4.580  17.708  0.00  0.00    +0.000 A 
ATOM     22  C   UNL     1       7.112   5.158  16.904  0.00  0.00    +0.000 A 
ATOM     23  C   UNL     1       7.031   4.977  15.435  0.00  0.00    +0.000 A 
ATOM     24  O   UNL     1       7.870   5.506  14.715  0.00  0.00    +0.000 OA
ENDBRANCH  15  20
ENDBRANCH   1  15
TORSDOF 2
ENDMDL
MODEL 2
REMARK VINA RESULT:      -8.1      0.725      1.466
REMARK  Name = 
REMARK  3 active torsions:
REMARK  status: ('A' for Active; 'I' for Inactive)
REMARK    1  A    between atoms: C_1  and  N_2
REMARK    2  A    between atoms: C_4  and  C_5
REMARK    3  A    between atoms: C_5  and  C_7
REMARK                            x       y       z     vdW  Elec       q    Type
REMARK                         _______ _______ _______ _____ _____    ______ ____
ROOT
ATOM      1  C   UNL     1       2.965   4.001  19.060  0.00  0.00    +0.000 A 
ATOM      2  N   UNL     1       2.850   3.237  20.176  0.00  0.00    +0.000 NA
ATOM      3  C   UNL     1       2.296   3.779  21.267  0.00  0.00    +0.000 A 
ATOM      4  C   UNL     1       1.870   5.087  21.325  0.00  0.00    +0.000 A 
ATOM      5  C   UNL     1       2.017   5.930  20.207  0.00  0.00    +0.000 A 
ATOM      6  C   UNL     1       2.581   5.370  19.032  0.00  0.00    +0.000 A 
ATOM      7  C   UNL     1       2.704   6.246  17.943  0.00  0.00    +0.000 A 
ATOM      8  N   UNL     1       2.338   7.547  17.935  0.00  0.00    +0.000 NA
ATOM      9  C   UNL     1       1.813   8.063  19.045  0.00  0.00    +0.000 A 
ATOM     10  C   UNL     1       1.453   9.402  19.012  0.00  0.00    +0.000 A 
ATOM     11  C   UNL     1       0.895  10.041  20.116  0.00  0.00    +0.000 A 
ATOM     12  C   UNL     1       0.692   9.327  21.285  0.00  0.00    +0.000 A 
ATOM     13  C   UNL     1       1.049   7.980  21.340  0.00  0.00    +0.000 A 
ATOM     14  C   UNL     1       1.620   7.311  20.222  0.00  0.00    +0.000 A 
ENDROOT
BRANCH   1  15
ATOM     15  C   UNL     1       3.540   3.283  17.860  0.00  0.00    +0.000 C 
ATOM     16  O   UNL     1       3.117   2.172  17.538  0.00  0.00    +0.000 OA
BRANCH  15  20
ATOM     17  C   UNL     1       7.681   5.854  17.834  0.00  0.00    +0.000 C 
ATOM     18  N   UNL     1       6.673   5.152  17.063  0.00  0.00    +0.000 N 
ATOM     19  C   UNL     1       5.606   4.542  17.705  0.00  0.00    +0.000 A 
ATOM     20  C   UNL     1       4.632   3.906  17.022  0.00  0.00    +0.000 A 
ATOM     21  C   UNL     1       4.695   3.924  15.574  0.00  0.00    +0.000 A 
ATOM     22  C   UNL     1       5.734   4.466  14.926  0.00  0.00    +0.000 A 
ATOM     23  C   UNL     1       6.824   5.130  15.678  0.00  0.00    +0.000 A 
ATOM     24  O   UNL     1       7.763   5.628  15.067  0.00  0.00    +0.000 OA
ENDBRANCH  15  20
ENDBRANCH   1  15
TORSDOF 2
ENDMDL
MODEL 3
REMARK VINA RESULT:      -8.1      4.784      8.427
REMARK  Name = 
REMARK  3 active torsions:
REMARK  status: ('A' for Active; 'I' for Inactive)
REMARK    1  A    between atoms: C_1  and  N_2
REMARK    2  A    between atoms: C_4  and  C_5
REMARK    3  A    between atoms: C_5  and  C_7
REMARK                            x       y       z     vdW  Elec       q    Type
REMARK                         _______ _______ _______ _____ _____    ______ ____
ROOT
ATOM      1  C   UNL     1       0.117  10.258  20.002  0.00  0.00    +0.000 A 
ATOM      2  N   UNL     1      -0.363   9.960  21.237  0.00  0.00    +0.000 NA
ATOM      3  C   UNL     1       0.103   8.868  21.855  0.00  0.00    +0.000 A 
ATOM      4  C   UNL     1       1.017   8.010  21.286  0.00  0.00    +0.000 A 
ATOM      5  C   UNL     1       1.502   8.254  19.986  0.00  0.00    +0.000 A 
ATOM      6  C   UNL     1       1.040   9.418  19.320  0.00  0.00    +0.000 A 
ATOM      7  C   UNL     1       1.554   9.622  18.031  0.00  0.00    +0.000 A 
ATOM      8  N   UNL     1       2.427   8.810  17.395  0.00  0.00    +0.000 NA
ATOM      9  C   UNL     1       2.851   7.718  18.028  0.00  0.00    +0.000 A 
ATOM     10  C   UNL     1       3.742   6.899  17.351  0.00  0.00    +0.000 A 
ATOM     11  C   UNL     1       4.248   5.733  17.920  0.00  0.00    +0.000 A 
ATOM     12  C   UNL     1       3.855   5.374  19.198  0.00  0.00    +0.000 A 
ATOM     13  C   UNL     1       2.959   6.182  19.896  0.00  0.00    +0.000 A 
ATOM     14  C   UNL     1       2.432   7.376  19.331  0.00  0.00    +0.000 A 
ENDROOT
BRANCH   1  15
ATOM     15  C   UNL     1      -0.416  11.544  19.412  0.00  0.00    +0.000 C 
ATOM     16  O   UNL     1       0.279  12.561  19.407  0.00  0.00    +0.000 OA
BRANCH  15  20
ATOM     17  C   UNL     1      -3.157  10.879  15.437  0.00  0.00    +0.000 C 
ATOM     18  N   UNL     1      -3.105  11.254  16.837  0.00  0.00    +0.000 N 
ATOM     19  C   UNL     1      -1.895  11.244  17.516  0.00  0.00    +0.000 A 
ATOM     20  C   UNL     1      -1.798  11.616  18.808  0.00  0.00    +0.000 A 
ATOM     21  C   UNL     1      -2.998  12.090  19.469  0.00  0.00    +0.000 A 
ATOM     22  C   UNL     1      -4.189  12.071  18.857  0.00  0.00    +0.000 A 
ATOM     23  C   UNL     1      -4.301  11.624  17.448  0.00  0.00    +0.000 A 
ATOM     24  O   UNL     1      -5.397  11.622  16.901  0.00  0.00    +0.000 OA
ENDBRANCH  15  20
ENDBRANCH   1  15
TORSDOF 2
ENDMDL
MODEL 4
REMARK VINA RESULT:      -8.0      4.764      8.511
REMARK  Name = 
REMARK  3 active torsions:
REMARK  status: ('A' for Active; 'I' for Inactive)
REMARK    1  A    between atoms: C_1  and  N_2
REMARK    2  A    between atoms: C_4  and  C_5
REMARK    3  A    between atoms: C_5  and  C_7
REMARK                            x       y       z     vdW  Elec       q    Type
REMARK                         _______ _______ _______ _____ _____    ______ ____
ROOT
ATOM      1  C   UNL     1       0.288   9.899  19.752  0.00  0.00    +0.000 A 
ATOM      2  N   UNL     1      -0.231   9.606  20.972  0.00  0.00    +0.000 NA
ATOM      3  C   UNL     1       0.242   8.538  21.626  0.00  0.00    +0.000 A 
ATOM      4  C   UNL     1       1.203   7.701  21.106  0.00  0.00    +0.000 A 
ATOM      5  C   UNL     1       1.732   7.939  19.822  0.00  0.00    +0.000 A 
ATOM      6  C   UNL     1       1.262   9.078  19.120  0.00  0.00    +0.000 A 
ATOM      7  C   UNL     1       1.819   9.278  17.848  0.00  0.00    +0.000 A 
ATOM      8  N   UNL     1       2.741   8.484  17.260  0.00  0.00    +0.000 NA
ATOM      9  C   UNL     1       3.172   7.414  17.928  0.00  0.00    +0.000 A 
ATOM     10  C   UNL     1       4.113   6.613  17.299  0.00  0.00    +0.000 A 
ATOM     11  C   UNL     1       4.632   5.472  17.906  0.00  0.00    +0.000 A 
ATOM     12  C   UNL     1       4.199   5.120  19.174  0.00  0.00    +0.000 A 
ATOM     13  C   UNL     1       3.252   5.912  19.823  0.00  0.00    +0.000 A 
ATOM     14  C   UNL     1       2.712   7.080  19.218  0.00  0.00    +0.000 A 
ENDROOT
BRANCH   1  15
ATOM     15  C   UNL     1      -0.260  11.160  19.121  0.00  0.00    +0.000 C 
ATOM     16  O   UNL     1       0.415  12.191  19.102  0.00  0.00    +0.000 OA
BRANCH  15  20
ATOM     17  C   UNL     1      -4.898  12.598  19.538  0.00  0.00    +0.000 C 
ATOM     18  N   UNL     1      -3.892  11.935  18.731  0.00  0.00    +0.000 N 
ATOM     19  C   UNL     1      -2.589  11.825  19.195  0.00  0.00    +0.000 A 
ATOM     20  C   UNL     1      -1.632  11.189  18.490  0.00  0.00    +0.000 A 
ATOM     21  C   UNL     1      -2.014  10.560  17.241  0.00  0.00    +0.000 A 
ATOM     22  C   UNL     1      -3.251  10.684  16.745  0.00  0.00    +0.000 A 
ATOM     23  C   UNL     1      -4.293  11.418  17.501  0.00  0.00    +0.000 A 
ATOM     24  O   UNL     1      -5.423  11.513  17.036  0.00  0.00    +0.000 OA
ENDBRANCH  15  20
ENDBRANCH   1  15
TORSDOF 2
ENDMDL
MODEL 5
REMARK VINA RESULT:      -7.9      3.241      5.543
REMARK  Name = 
REMARK  3 active torsions:
REMARK  status: ('A' for Active; 'I' for Inactive)
REMARK    1  A    between atoms: C_1  and  N_2
REMARK    2  A    between atoms: C_4  and  C_5
REMARK    3  A    between atoms: C_5  and  C_7
REMARK                            x       y       z     vdW  Elec       q    Type
REMARK                         _______ _______ _______ _____ _____    ______ ____
ROOT
ATOM      1  C   UNL     1       2.237   7.959  19.019  0.00  0.00    +0.000 A 
ATOM      2  N   UNL     1       2.349   8.537  17.795  0.00  0.00    +0.000 NA
ATOM      3  C   UNL     1       1.764   9.724  17.594  0.00  0.00    +0.000 A 
ATOM      4  C   UNL     1       1.022  10.372  18.557  0.00  0.00    +0.000 A 
ATOM      5  C   UNL     1       0.837   9.783  19.823  0.00  0.00    +0.000 A 
ATOM      6  C   UNL     1       1.467   8.536  20.066  0.00  0.00    +0.000 A 
ATOM      7  C   UNL     1       1.259   7.991  21.342  0.00  0.00    +0.000 A 
ATOM      8  N   UNL     1       0.519   8.551  22.325  0.00  0.00    +0.000 NA
ATOM      9  C   UNL     1      -0.071   9.721  22.084  0.00  0.00    +0.000 A 
ATOM     10  C   UNL     1      -0.828  10.270  23.108  0.00  0.00    +0.000 A 
ATOM     11  C   UNL     1      -1.487  11.488  22.963  0.00  0.00    +0.000 A 
ATOM     12  C   UNL     1      -1.388  12.177  21.766  0.00  0.00    +0.000 A 
ATOM     13  C   UNL     1      -0.632  11.641  20.723  0.00  0.00    +0.000 A 
ATOM     14  C   UNL     1       0.047  10.399  20.853  0.00  0.00    +0.000 A 
ENDROOT
BRANCH   1  15
ATOM     15  C   UNL     1       2.986   6.654  19.171  0.00  0.00    +0.000 C 
ATOM     16  O   UNL     1       4.190   6.654  19.432  0.00  0.00    +0.000 OA
BRANCH  15  20
ATOM     17  C   UNL     1       1.309   2.663  21.409  0.00  0.00    +0.000 C 
ATOM     18  N   UNL     1       1.459   3.395  20.167  0.00  0.00    +0.000 N 
ATOM     19  C   UNL     1       2.096   4.628  20.158  0.00  0.00    +0.000 A 
ATOM     20  C   UNL     1       2.284   5.325  19.020  0.00  0.00    +0.000 A 
ATOM     21  C   UNL     1       1.850   4.723  17.775  0.00  0.00    +0.000 A 
ATOM     22  C   UNL     1       1.193   3.556  17.754  0.00  0.00    +0.000 A 
ATOM     23  C   UNL     1       0.951   2.808  19.010  0.00  0.00    +0.000 A 
ATOM     24  O   UNL     1       0.357   1.737  18.970  0.00  0.00    +0.000 OA
ENDBRANCH  15  20
ENDBRANCH   1  15
TORSDOF 2
ENDMDL
MODEL 6
REMARK VINA RESULT:      -7.8      1.681      2.566
REMARK  Name = 
REMARK  3 active torsions:
REMARK  status: ('A' for Active; 'I' for Inactive)
REMARK    1  A    between atoms: C_1  and  N_2
REMARK    2  A    between atoms: C_4  and  C_5
REMARK    3  A    between atoms: C_5  and  C_7
REMARK                            x       y       z     vdW  Elec       q    Type
REMARK                         _______ _______ _______ _____ _____    ______ ____
ROOT
ATOM      1  C   UNL     1       2.226   5.789  18.927  0.00  0.00    +0.000 A 
ATOM      2  N   UNL     1       1.971   5.180  20.113  0.00  0.00    +0.000 NA
ATOM      3  C   UNL     1       1.502   5.922  21.123  0.00  0.00    +0.000 A 
ATOM      4  C   UNL     1       1.301   7.281  21.030  0.00  0.00    +0.000 A 
ATOM      5  C   UNL     1       1.602   7.961  19.834  0.00  0.00    +0.000 A 
ATOM      6  C   UNL     1       2.078   7.191  18.742  0.00  0.00    +0.000 A 
ATOM      7  C   UNL     1       2.359   7.910  17.571  0.00  0.00    +0.000 A 
ATOM      8  N   UNL     1       2.217   9.245  17.414  0.00  0.00    +0.000 NA
ATOM      9  C   UNL     1       1.773   9.958  18.448  0.00  0.00    +0.000 A 
ATOM     10  C   UNL     1       1.643  11.327  18.262  0.00  0.00    +0.000 A 
ATOM     11  C   UNL     1       1.187  12.166  19.276  0.00  0.00    +0.000 A 
ATOM     12  C   UNL     1       0.853  11.628  20.507  0.00  0.00    +0.000 A 
ATOM     13  C   UNL     1       0.978  10.254  20.714  0.00  0.00    +0.000 A 
ATOM     14  C   UNL     1       1.442   9.382  19.692  0.00  0.00    +0.000 A 
ENDROOT
BRANCH   1  15
ATOM     15  C   UNL     1       2.687   4.859  17.827  0.00  0.00    +0.000 C 
ATOM     16  O   UNL     1       1.867   4.198  17.186  0.00  0.00    +0.000 OA
BRANCH  15  20
ATOM     17  C   UNL     1       7.291   5.636  19.221  0.00  0.00    +0.000 C 
ATOM     18  N   UNL     1       6.392   5.105  18.215  0.00  0.00    +0.000 N 
ATOM     19  C   UNL     1       5.019   5.175  18.402  0.00  0.00    +0.000 A 
ATOM     20  C   UNL     1       4.149   4.722  17.477  0.00  0.00    +0.000 A 
ATOM     21  C   UNL     1       4.688   4.202  16.236  0.00  0.00    +0.000 A 
ATOM     22  C   UNL     1       6.008   4.080  16.042  0.00  0.00    +0.000 A 
ATOM     23  C   UNL     1       6.963   4.542  17.076  0.00  0.00    +0.000 A 
ATOM     24  O   UNL     1       8.168   4.431  16.878  0.00  0.00    +0.000 OA
ENDBRANCH  15  20
ENDBRANCH   1  15
TORSDOF 2
ENDMDL
MODEL 7
REMARK VINA RESULT:      -7.8      2.215      4.298
REMARK  Name = 
REMARK  3 active torsions:
REMARK  status: ('A' for Active; 'I' for Inactive)
REMARK    1  A    between atoms: C_1  and  N_2
REMARK    2  A    between atoms: C_4  and  C_5
REMARK    3  A    between atoms: C_5  and  C_7
REMARK                            x       y       z     vdW  Elec       q    Type
REMARK                         _______ _______ _______ _____ _____    ______ ____
ROOT
ATOM      1  C   UNL     1       4.767   6.307  17.485  0.00  0.00    +0.000 A 
ATOM      2  N   UNL     1       3.982   7.399  17.296  0.00  0.00    +0.000 NA
ATOM      3  C   UNL     1       2.866   7.515  18.025  0.00  0.00    +0.000 A 
ATOM      4  C   UNL     1       2.454   6.563  18.930  0.00  0.00    +0.000 A 
ATOM      5  C   UNL     1       3.212   5.391  19.119  0.00  0.00    +0.000 A 
ATOM      6  C   UNL     1       4.412   5.257  18.374  0.00  0.00    +0.000 A 
ATOM      7  C   UNL     1       5.135   4.076  18.599  0.00  0.00    +0.000 A 
ATOM      8  N   UNL     1       4.779   3.085  19.446  0.00  0.00    +0.000 NA
ATOM      9  C   UNL     1       3.648   3.220  20.137  0.00  0.00    +0.000 A 
ATOM     10  C   UNL     1       3.304   2.185  20.994  0.00  0.00    +0.000 A 
ATOM     11  C   UNL     1       2.144   2.224  21.764  0.00  0.00    +0.000 A 
ATOM     12  C   UNL     1       1.305   3.322  21.677  0.00  0.00    +0.000 A 
ATOM     13  C   UNL     1       1.633   4.372  20.820  0.00  0.00    +0.000 A 
ATOM     14  C   UNL     1       2.813   4.350  20.027  0.00  0.00    +0.000 A 
ENDROOT
BRANCH   1  15
ATOM     15  C   UNL     1       6.040   6.297  16.667  0.00  0.00    +0.000 C 
ATOM     16  O   UNL     1       7.010   6.970  17.017  0.00  0.00    +0.000 OA
BRANCH  15  20
ATOM     17  C   UNL     1       8.459   5.531  12.506  0.00  0.00    +0.000 C 
ATOM     18  N   UNL     1       7.393   5.111  13.395  0.00  0.00    +0.000 N 
ATOM     19  C   UNL     1       7.161   5.799  14.577  0.00  0.00    +0.000 A 
ATOM     20  C   UNL     1       6.161   5.461  15.415  0.00  0.00    +0.000 A 
ATOM     21  C   UNL     1       5.281   4.379  15.020  0.00  0.00    +0.000 A 
ATOM     22  C   UNL     1       5.503   3.667  13.908  0.00  0.00    +0.000 A 
ATOM     23  C   UNL     1       6.627   4.014  13.006  0.00  0.00    +0.000 A 
ATOM     24  O   UNL     1       6.809   3.357  11.988  0.00  0.00    +0.000 OA
ENDBRANCH  15  20
ENDBRANCH   1  15
TORSDOF 2
ENDMDL
MODEL 8
REMARK VINA RESULT:      -7.8      2.164      3.988
REMARK  Name = 
REMARK  3 active torsions:
REMARK  status: ('A' for Active; 'I' for Inactive)
REMARK    1  A    between atoms: C_1  and  N_2
REMARK    2  A    between atoms: C_4  and  C_5
REMARK    3  A    between atoms: C_5  and  C_7
REMARK                            x       y       z     vdW  Elec       q    Type
REMARK                         _______ _______ _______ _____ _____    ______ ____
ROOT
ATOM      1  C   UNL     1       2.398   7.320  18.910  0.00  0.00    +0.000 A 
ATOM      2  N   UNL     1       2.648   7.877  17.698  0.00  0.00    +0.000 NA
ATOM      3  C   UNL     1       2.248   9.136  17.479  0.00  0.00    +0.000 A 
ATOM      4  C   UNL     1       1.562   9.881  18.412  0.00  0.00    +0.000 A 
ATOM      5  C   UNL     1       1.237   9.324  19.664  0.00  0.00    +0.000 A 
ATOM      6  C   UNL     1       1.671   7.999  19.926  0.00  0.00    +0.000 A 
ATOM      7  C   UNL     1       1.328   7.489  21.187  0.00  0.00    +0.000 A 
ATOM      8  N   UNL     1       0.631   8.147  22.139  0.00  0.00    +0.000 NA
ATOM      9  C   UNL     1       0.225   9.389  21.880  0.00  0.00    +0.000 A 
ATOM     10  C   UNL     1      -0.494  10.040  22.872  0.00  0.00    +0.000 A 
ATOM     11  C   UNL     1      -0.965  11.340  22.706  0.00  0.00    +0.000 A 
ATOM     12  C   UNL     1      -0.714  12.008  21.520  0.00  0.00    +0.000 A 
ATOM     13  C   UNL     1       0.006  11.372  20.510  0.00  0.00    +0.000 A 
ATOM     14  C   UNL     1       0.494  10.045  20.661  0.00  0.00    +0.000 A 
ENDROOT
BRANCH   1  15
ATOM     15  C   UNL     1       2.946   5.922  19.086  0.00  0.00    +0.000 C 
ATOM     16  O   UNL     1       2.344   5.100  19.781  0.00  0.00    +0.000 OA
BRANCH  15  20
ATOM     17  C   UNL     1       7.808   5.718  19.352  0.00  0.00    +0.000 C 
ATOM     18  N   UNL     1       6.611   5.395  18.600  0.00  0.00    +0.000 N 
ATOM     19  C   UNL     1       5.363   5.745  19.096  0.00  0.00    +0.000 A 
ATOM     20  C   UNL     1       4.228   5.491  18.414  0.00  0.00    +0.000 A 
ATOM     21  C   UNL     1       4.345   4.886  17.102  0.00  0.00    +0.000 A 
ATOM     22  C   UNL     1       5.530   4.497  16.614  0.00  0.00    +0.000 A 
ATOM     23  C   UNL     1       6.774   4.741  17.382  0.00  0.00    +0.000 A 
ATOM     24  O   UNL     1       7.851   4.387  16.915  0.00  0.00    +0.000 OA
ENDBRANCH  15  20
ENDBRANCH   1  15
TORSDOF 2
ENDMDL
MODEL 9
REMARK VINA RESULT:      -7.7      2.367      4.265
REMARK  Name = 
REMARK  3 active torsions:
REMARK  status: ('A' for Active; 'I' for Inactive)
REMARK    1  A    between atoms: C_1  and  N_2
REMARK    2  A    between atoms: C_4  and  C_5
REMARK    3  A    between atoms: C_5  and  C_7
REMARK                            x       y       z     vdW  Elec       q    Type
REMARK                         _______ _______ _______ _____ _____    ______ ____
ROOT
ATOM      1  C   UNL     1       5.668   5.393  16.925  0.00  0.00    +0.000 A 
ATOM      2  N   UNL     1       5.405   6.688  16.617  0.00  0.00    +0.000 NA
ATOM      3  C   UNL     1       4.346   7.277  17.187  0.00  0.00    +0.000 A 
ATOM      4  C   UNL     1       3.489   6.621  18.041  0.00  0.00    +0.000 A 
ATOM      5  C   UNL     1       3.696   5.262  18.347  0.00  0.00    +0.000 A 
ATOM      6  C   UNL     1       4.825   4.624  17.773  0.00  0.00    +0.000 A 
ATOM      7  C   UNL     1       4.993   3.272  18.110  0.00  0.00    +0.000 A 
ATOM      8  N   UNL     1       4.177   2.555  18.914  0.00  0.00    +0.000 NA
ATOM      9  C   UNL     1       3.118   3.164  19.444  0.00  0.00    +0.000 A 
ATOM     10  C   UNL     1       2.294   2.403  20.261  0.00  0.00    +0.000 A 
ATOM     11  C   UNL     1       1.161   2.939  20.867  0.00  0.00    +0.000 A 
ATOM     12  C   UNL     1       0.839   4.269  20.652  0.00  0.00    +0.000 A 
ATOM     13  C   UNL     1       1.653   5.050  19.833  0.00  0.00    +0.000 A 
ATOM     14  C   UNL     1       2.814   4.520  19.206  0.00  0.00    +0.000 A 
ENDROOT
BRANCH   1  15
ATOM     15  C   UNL     1       6.921   4.835  16.287  0.00  0.00    +0.000 C 
ATOM     16  O   UNL     1       7.838   4.403  16.989  0.00  0.00    +0.000 OA
BRANCH  15  20
ATOM     17  C   UNL     1       5.448   2.799  12.112  0.00  0.00    +0.000 C 
ATOM     18  N   UNL     1       6.308   3.769  12.762  0.00  0.00    +0.000 N 
ATOM     19  C   UNL     1       6.274   3.915  14.141  0.00  0.00    +0.000 A 
ATOM     20  C   UNL     1       7.080   4.782  14.786  0.00  0.00    +0.000 A 
ATOM     21  C   UNL     1       8.040   5.530  13.999  0.00  0.00    +0.000 A 
ATOM     22  C   UNL     1       8.069   5.445  12.663  0.00  0.00    +0.000 A 
ATOM     23  C   UNL     1       7.155   4.521  11.951  0.00  0.00    +0.000 A 
ATOM     24  O   UNL     1       7.202   4.449  10.729  0.00  0.00    +0.000 OA
ENDBRANCH  15  20
ENDBRANCH   1  15
TORSDOF 2
ENDMDL
