MODEL 1
REMARK VINA RESULT:      -7.4      0.000      0.000
REMARK  Name = 
REMARK  13 active torsions:
REMARK  status: ('A' for Active; 'I' for Inactive)
REMARK    1  A    between atoms: C_1  and  O_2
REMARK    2  A    between atoms: O_2  and  C_3
REMARK    3  A    between atoms: C_3  and  C_5
REMARK    4  A    between atoms: C_5  and  N_6
REMARK    5  A    between atoms: C_7  and  C_9
REMARK    6  A    between atoms: C_9  and  C_10
REMARK    7  A    between atoms: C_9  and  N_11
REMARK    8  A    between atoms: C_12  and  C_14
REMARK    9  A    between atoms: C_19  and  C_21
REMARK   10  A    between atoms: C_21  and  N_22
REMARK   11  A    between atoms: C_23  and  C_25
REMARK   12  A    between atoms: C_25  and  C_26
REMARK   13  A    between atoms: C_25  and  N_27
REMARK                            x       y       z     vdW  Elec       q    Type
REMARK                         _______ _______ _______ _____ _____    ______ ____
ROOT
ATOM      1  C   UNL     1       1.638   3.391  19.258  0.00  0.00    +0.000 C 
ATOM      2  C   UNL     1       0.931   3.978  20.488  0.00  0.00    +0.000 C 
ATOM      3  C   UNL     1       1.352   3.029  21.601  0.00  0.00    +0.000 C 
ATOM      4  C   UNL     1       2.754   2.584  21.200  0.00  0.00    +0.000 C 
ATOM      5  N   UNL     1       2.943   3.013  19.818  0.00  0.00    +0.000 N 
ATOM      6  C   UNL     1       4.115   2.607  19.201  0.00  0.00    +0.000 C 
ATOM      7  O   UNL     1       4.991   2.023  19.850  0.00  0.00    +0.000 OA
ENDROOT
BRANCH   1   9
ATOM      8  N   UNL     1       2.230   5.590  18.259  0.00  0.00    +0.000 N 
ATOM      9  C   UNL     1       1.585   4.387  18.087  0.00  0.00    +0.000 C 
ATOM     10  O   UNL     1       0.937   4.181  17.062  0.00  0.00    +0.000 OA
ATOM     11  H   UNL     1       2.103   6.252  17.495  0.00  0.00    +0.000 HD
BRANCH   8  12
ATOM     12  C   UNL     1       2.754   6.140  19.516  0.00  0.00    +0.000 C 
ATOM     13  C   UNL     1       4.263   6.044  19.579  0.00  0.00    +0.000 C 
BRANCH  12  15
ATOM     14  N   UNL     1       1.926   7.832  21.069  0.00  0.00    +0.000 N 
ATOM     15  C   UNL     1       2.233   7.572  19.746  0.00  0.00    +0.000 C 
ATOM     16  O   UNL     1       2.063   8.373  18.832  0.00  0.00    +0.000 OA
ATOM     17  H   UNL     1       2.384   7.292  21.793  0.00  0.00    +0.000 HD
BRANCH  14  18
ATOM     18  C   UNL     1       1.359   9.109  21.477  0.00  0.00    +0.000 C 
BRANCH  18  19
ATOM     19  C   UNL     1      -0.157   9.024  21.495  0.00  0.00    +0.000 C 
ATOM     20  O   UNL     1      -0.788   8.013  21.787  0.00  0.00    +0.000 OA
BRANCH  19  22
ATOM     21  C   UNL     1       0.172  11.000  20.286  0.00  0.00    +0.000 C 
ATOM     22  O   UNL     1      -0.702  10.202  21.083  0.00  0.00    +0.000 OA
ENDBRANCH  19  22
ENDBRANCH  18  19
ENDBRANCH  14  18
ENDBRANCH  12  15
ENDBRANCH   8  12
ENDBRANCH   1   9
BRANCH   6  23
ATOM     23  C   UNL     1       4.403   2.973  17.747  0.00  0.00    +0.000 C 
BRANCH  23  24
ATOM     24  N   UNL     1       5.690   3.578  17.489  0.00  0.00    +0.000 N 
ATOM     25  C   UNL     1       5.748   4.672  16.641  0.00  0.00    +0.000 C 
ATOM     26  O   UNL     1       4.760   5.067  16.020  0.00  0.00    +0.000 OA
ATOM     27  H   UNL     1       6.426   3.452  18.175  0.00  0.00    +0.000 HD
BRANCH  25  28
ATOM     28  C   UNL     1       7.135   5.339  16.505  0.00  0.00    +0.000 C 
ATOM     29  C   UNL     1       7.232   6.631  17.304  0.00  0.00    +0.000 C 
BRANCH  28  30
ATOM     30  N   UNL     1       7.402   5.634  15.078  0.00  0.00    +0.000 NA
ATOM     31  H   UNL     1       7.844   6.557  15.035  0.00  0.00    +0.000 HD
ATOM     32  H   UNL     1       6.497   5.793  14.626  0.00  0.00    +0.000 HD
ENDBRANCH  28  30
ENDBRANCH  25  28
ENDBRANCH  23  24
ENDBRANCH   6  23
TORSDOF 10
ENDMDL
MODEL 2
REMARK VINA RESULT:      -7.3      1.939      2.575
REMARK  Name = 
REMARK  13 active torsions:
REMARK  status: ('A' for Active; 'I' for Inactive)
REMARK    1  A    between atoms: C_1  and  O_2
REMARK    2  A    between atoms: O_2  and  C_3
REMARK    3  A    between atoms: C_3  and  C_5
REMARK    4  A    between atoms: C_5  and  N_6
REMARK    5  A    between atoms: C_7  and  C_9
REMARK    6  A    between atoms: C_9  and  C_10
REMARK    7  A    between atoms: C_9  and  N_11
REMARK    8  A    between atoms: C_12  and  C_14
REMARK    9  A    between atoms: C_19  and  C_21
REMARK   10  A    between atoms: C_21  and  N_22
REMARK   11  A    between atoms: C_23  and  C_25
REMARK   12  A    between atoms: C_25  and  C_26
REMARK   13  A    between atoms: C_25  and  N_27
REMARK                            x       y       z     vdW  Elec       q    Type
REMARK                         _______ _______ _______ _____ _____    ______ ____
ROOT
ATOM      1  C   UNL     1       2.274   4.550  20.053  0.00  0.00    +0.000 C 
ATOM      2  C   UNL     1       2.296   3.995  21.485  0.00  0.00    +0.000 C 
ATOM      3  C   UNL     1       1.356   2.802  21.396  0.00  0.00    +0.000 C 
ATOM      4  C   UNL     1       1.544   2.285  19.974  0.00  0.00    +0.000 C 
ATOM      5  N   UNL     1       2.288   3.314  19.256  0.00  0.00    +0.000 N 
ATOM      6  C   UNL     1       2.472   3.110  17.898  0.00  0.00    +0.000 C 
ATOM      7  O   UNL     1       2.125   2.044  17.377  0.00  0.00    +0.000 OA
ENDROOT
BRANCH   1   9
ATOM      8  N   UNL     1       3.065   6.907  19.977  0.00  0.00    +0.000 N 
ATOM      9  C   UNL     1       3.402   5.578  19.862  0.00  0.00    +0.000 C 
ATOM     10  O   UNL     1       4.546   5.262  19.540  0.00  0.00    +0.000 OA
ATOM     11  H   UNL     1       3.820   7.556  19.764  0.00  0.00    +0.000 HD
BRANCH   8  12
ATOM     12  C   UNL     1       1.711   7.474  20.018  0.00  0.00    +0.000 C 
ATOM     13  C   UNL     1       1.318   7.878  21.422  0.00  0.00    +0.000 C 
BRANCH  12  15
ATOM     14  N   UNL     1       0.690   9.608  19.412  0.00  0.00    +0.000 N 
ATOM     15  C   UNL     1       1.568   8.622  19.000  0.00  0.00    +0.000 C 
ATOM     16  O   UNL     1       2.140   8.623  17.914  0.00  0.00    +0.000 OA
ATOM     17  H   UNL     1       0.522   9.730  20.403  0.00  0.00    +0.000 HD
BRANCH  14  18
ATOM     18  C   UNL     1       0.374  10.744  18.559  0.00  0.00    +0.000 C 
BRANCH  18  19
ATOM     19  C   UNL     1      -1.061  10.644  18.070  0.00  0.00    +0.000 C 
ATOM     20  O   UNL     1      -1.439   9.872  17.193  0.00  0.00    +0.000 OA
BRANCH  19  22
ATOM     21  C   UNL     1      -3.205  11.556  18.281  0.00  0.00    +0.000 C 
ATOM     22  O   UNL     1      -1.840  11.568  18.696  0.00  0.00    +0.000 OA
ENDBRANCH  19  22
ENDBRANCH  18  19
ENDBRANCH  14  18
ENDBRANCH  12  15
ENDBRANCH   8  12
ENDBRANCH   1   9
BRANCH   6  23
ATOM     23  C   UNL     1       3.209   4.137  17.043  0.00  0.00    +0.000 C 
BRANCH  23  24
ATOM     24  N   UNL     1       4.602   3.856  16.776  0.00  0.00    +0.000 N 
ATOM     25  C   UNL     1       5.409   4.886  16.325  0.00  0.00    +0.000 C 
ATOM     26  O   UNL     1       4.951   5.995  16.039  0.00  0.00    +0.000 OA
ATOM     27  H   UNL     1       5.032   3.070  17.250  0.00  0.00    +0.000 HD
BRANCH  25  28
ATOM     28  C   UNL     1       6.908   4.545  16.174  0.00  0.00    +0.000 C 
ATOM     29  C   UNL     1       7.648   4.609  17.502  0.00  0.00    +0.000 C 
BRANCH  28  30
ATOM     30  N   UNL     1       7.537   5.494  15.226  0.00  0.00    +0.000 NA
ATOM     31  H   UNL     1       7.581   6.405  15.691  0.00  0.00    +0.000 HD
ATOM     32  H   UNL     1       6.868   5.655  14.468  0.00  0.00    +0.000 HD
ENDBRANCH  28  30
ENDBRANCH  25  28
ENDBRANCH  23  24
ENDBRANCH   6  23
TORSDOF 10
ENDMDL
MODEL 3
REMARK VINA RESULT:      -7.3      1.938      2.738
REMARK  Name = 
REMARK  13 active torsions:
REMARK  status: ('A' for Active; 'I' for Inactive)
REMARK    1  A    between atoms: C_1  and  O_2
REMARK    2  A    between atoms: O_2  and  C_3
REMARK    3  A    between atoms: C_3  and  C_5
REMARK    4  A    between atoms: C_5  and  N_6
REMARK    5  A    between atoms: C_7  and  C_9
REMARK    6  A    between atoms: C_9  and  C_10
REMARK    7  A    between atoms: C_9  and  N_11
REMARK    8  A    between atoms: C_12  and  C_14
REMARK    9  A    between atoms: C_19  and  C_21
REMARK   10  A    between atoms: C_21  and  N_22
REMARK   11  A    between atoms: C_23  and  C_25
REMARK   12  A    between atoms: C_25  and  C_26
REMARK   13  A    between atoms: C_25  and  N_27
REMARK                            x       y       z     vdW  Elec       q    Type
REMARK                         _______ _______ _______ _____ _____    ______ ____
ROOT
ATOM      1  C   UNL     1       2.293   4.566  20.017  0.00  0.00    +0.000 C 
ATOM      2  C   UNL     1       2.320   4.021  21.452  0.00  0.00    +0.000 C 
ATOM      3  C   UNL     1       1.357   2.844  21.382  0.00  0.00    +0.000 C 
ATOM      4  C   UNL     1       1.521   2.314  19.962  0.00  0.00    +0.000 C 
ATOM      5  N   UNL     1       2.277   3.324  19.229  0.00  0.00    +0.000 N 
ATOM      6  C   UNL     1       2.444   3.107  17.871  0.00  0.00    +0.000 C 
ATOM      7  O   UNL     1       2.072   2.044  17.361  0.00  0.00    +0.000 OA
ENDROOT
BRANCH   1   9
ATOM      8  N   UNL     1       3.111   6.908  19.837  0.00  0.00    +0.000 N 
ATOM      9  C   UNL     1       3.438   5.572  19.807  0.00  0.00    +0.000 C 
ATOM     10  O   UNL     1       4.589   5.228  19.542  0.00  0.00    +0.000 OA
ATOM     11  H   UNL     1       3.880   7.537  19.613  0.00  0.00    +0.000 HD
BRANCH   8  12
ATOM     12  C   UNL     1       1.763   7.488  19.800  0.00  0.00    +0.000 C 
ATOM     13  C   UNL     1       1.268   7.837  21.186  0.00  0.00    +0.000 C 
BRANCH  12  15
ATOM     14  N   UNL     1       0.975   9.747  19.311  0.00  0.00    +0.000 N 
ATOM     15  C   UNL     1       1.706   8.680  18.824  0.00  0.00    +0.000 C 
ATOM     16  O   UNL     1       2.219   8.651  17.709  0.00  0.00    +0.000 OA
ATOM     17  H   UNL     1       0.873   9.854  20.313  0.00  0.00    +0.000 HD
BRANCH  14  18
ATOM     18  C   UNL     1       0.753  10.941  18.509  0.00  0.00    +0.000 C 
BRANCH  18  19
ATOM     19  C   UNL     1       1.815  11.982  18.819  0.00  0.00    +0.000 C 
ATOM     20  O   UNL     1       2.676  12.348  18.025  0.00  0.00    +0.000 OA
BRANCH  19  22
ATOM     21  C   UNL     1       1.893  13.799  20.292  0.00  0.00    +0.000 C 
ATOM     22  O   UNL     1       1.708  12.396  20.112  0.00  0.00    +0.000 OA
ENDBRANCH  19  22
ENDBRANCH  18  19
ENDBRANCH  14  18
ENDBRANCH  12  15
ENDBRANCH   8  12
ENDBRANCH   1   9
BRANCH   6  23
ATOM     23  C   UNL     1       3.191   4.114  17.002  0.00  0.00    +0.000 C 
BRANCH  23  24
ATOM     24  N   UNL     1       4.585   3.823  16.751  0.00  0.00    +0.000 N 
ATOM     25  C   UNL     1       5.416   4.860  16.361  0.00  0.00    +0.000 C 
ATOM     26  O   UNL     1       4.981   5.986  16.115  0.00  0.00    +0.000 OA
ATOM     27  H   UNL     1       4.994   3.011  17.199  0.00  0.00    +0.000 HD
BRANCH  25  28
ATOM     28  C   UNL     1       6.913   4.502  16.227  0.00  0.00    +0.000 C 
ATOM     29  C   UNL     1       7.652   4.613  17.553  0.00  0.00    +0.000 C 
BRANCH  28  30
ATOM     30  N   UNL     1       7.550   5.408  15.244  0.00  0.00    +0.000 NA
ATOM     31  H   UNL     1       6.799   5.890  14.741  0.00  0.00    +0.000 HD
ATOM     32  H   UNL     1       7.972   4.822  14.518  0.00  0.00    +0.000 HD
ENDBRANCH  28  30
ENDBRANCH  25  28
ENDBRANCH  23  24
ENDBRANCH   6  23
TORSDOF 10
ENDMDL
MODEL 4
REMARK VINA RESULT:      -7.3      1.107      1.167
REMARK  Name = 
REMARK  13 active torsions:
REMARK  status: ('A' for Active; 'I' for Inactive)
REMARK    1  A    between atoms: C_1  and  O_2
REMARK    2  A    between atoms: O_2  and  C_3
REMARK    3  A    between atoms: C_3  and  C_5
REMARK    4  A    between atoms: C_5  and  N_6
REMARK    5  A    between atoms: C_7  and  C_9
REMARK    6  A    between atoms: C_9  and  C_10
REMARK    7  A    between atoms: C_9  and  N_11
REMARK    8  A    between atoms: C_12  and  C_14
REMARK    9  A    between atoms: C_19  and  C_21
REMARK   10  A    between atoms: C_21  and  N_22
REMARK   11  A    between atoms: C_23  and  C_25
REMARK   12  A    between atoms: C_25  and  C_26
REMARK   13  A    between atoms: C_25  and  N_27
REMARK                            x       y       z     vdW  Elec       q    Type
REMARK                         _______ _______ _______ _____ _____    ______ ____
ROOT
ATOM      1  C   UNL     1       1.709   3.315  19.343  0.00  0.00    +0.000 C 
ATOM      2  C   UNL     1       0.933   3.945  20.509  0.00  0.00    +0.000 C 
ATOM      3  C   UNL     1       1.301   3.047  21.681  0.00  0.00    +0.000 C 
ATOM      4  C   UNL     1       2.725   2.599  21.374  0.00  0.00    +0.000 C 
ATOM      5  N   UNL     1       2.985   2.972  19.988  0.00  0.00    +0.000 N 
ATOM      6  C   UNL     1       4.191   2.552  19.451  0.00  0.00    +0.000 C 
ATOM      7  O   UNL     1       5.035   2.004  20.169  0.00  0.00    +0.000 OA
ENDROOT
BRANCH   1   9
ATOM      8  N   UNL     1       2.331   5.479  18.289  0.00  0.00    +0.000 N 
ATOM      9  C   UNL     1       1.712   4.261  18.130  0.00  0.00    +0.000 C 
ATOM     10  O   UNL     1       1.126   4.003  17.081  0.00  0.00    +0.000 OA
ATOM     11  H   UNL     1       2.241   6.107  17.491  0.00  0.00    +0.000 HD
BRANCH   8  12
ATOM     12  C   UNL     1       2.776   6.087  19.549  0.00  0.00    +0.000 C 
ATOM     13  C   UNL     1       4.280   6.250  19.589  0.00  0.00    +0.000 C 
BRANCH  12  15
ATOM     14  N   UNL     1       1.308   7.389  21.002  0.00  0.00    +0.000 N 
ATOM     15  C   UNL     1       2.021   7.404  19.818  0.00  0.00    +0.000 C 
ATOM     16  O   UNL     1       2.019   8.342  19.027  0.00  0.00    +0.000 OA
ATOM     17  H   UNL     1       1.602   6.766  21.743  0.00  0.00    +0.000 HD
BRANCH  14  18
ATOM     18  C   UNL     1       0.479   8.518  21.399  0.00  0.00    +0.000 C 
BRANCH  18  19
ATOM     19  C   UNL     1       1.145   9.280  22.532  0.00  0.00    +0.000 C 
ATOM     20  O   UNL     1       2.357   9.316  22.721  0.00  0.00    +0.000 OA
BRANCH  19  22
ATOM     21  C   UNL     1      -0.620  10.811  22.663  0.00  0.00    +0.000 C 
ATOM     22  O   UNL     1       0.205   9.858  23.331  0.00  0.00    +0.000 OA
ENDBRANCH  19  22
ENDBRANCH  18  19
ENDBRANCH  14  18
ENDBRANCH  12  15
ENDBRANCH   8  12
ENDBRANCH   1   9
BRANCH   6  23
ATOM     23  C   UNL     1       4.553   2.860  18.000  0.00  0.00    +0.000 C 
BRANCH  23  24
ATOM     24  N   UNL     1       5.616   3.820  17.803  0.00  0.00    +0.000 N 
ATOM     25  C   UNL     1       5.673   4.504  16.600  0.00  0.00    +0.000 C 
ATOM     26  O   UNL     1       4.919   4.237  15.663  0.00  0.00    +0.000 OA
ATOM     27  H   UNL     1       6.046   4.235  18.622  0.00  0.00    +0.000 HD
BRANCH  25  28
ATOM     28  C   UNL     1       6.760   5.598  16.504  0.00  0.00    +0.000 C 
ATOM     29  C   UNL     1       7.541   5.747  17.801  0.00  0.00    +0.000 C 
BRANCH  28  30
ATOM     30  N   UNL     1       6.127   6.895  16.171  0.00  0.00    +0.000 NA
ATOM     31  H   UNL     1       6.576   7.244  15.319  0.00  0.00    +0.000 HD
ATOM     32  H   UNL     1       6.425   7.570  16.880  0.00  0.00    +0.000 HD
ENDBRANCH  28  30
ENDBRANCH  25  28
ENDBRANCH  23  24
ENDBRANCH   6  23
TORSDOF 10
ENDMDL
MODEL 5
REMARK VINA RESULT:      -7.1      1.487      1.779
REMARK  Name = 
REMARK  13 active torsions:
REMARK  status: ('A' for Active; 'I' for Inactive)
REMARK    1  A    between atoms: C_1  and  O_2
REMARK    2  A    between atoms: O_2  and  C_3
REMARK    3  A    between atoms: C_3  and  C_5
REMARK    4  A    between atoms: C_5  and  N_6
REMARK    5  A    between atoms: C_7  and  C_9
REMARK    6  A    between atoms: C_9  and  C_10
REMARK    7  A    between atoms: C_9  and  N_11
REMARK    8  A    between atoms: C_12  and  C_14
REMARK    9  A    between atoms: C_19  and  C_21
REMARK   10  A    between atoms: C_21  and  N_22
REMARK   11  A    between atoms: C_23  and  C_25
REMARK   12  A    between atoms: C_25  and  C_26
REMARK   13  A    between atoms: C_25  and  N_27
REMARK                            x       y       z     vdW  Elec       q    Type
REMARK                         _______ _______ _______ _____ _____    ______ ____
ROOT
ATOM      1  C   UNL     1       1.552   3.500  19.290  0.00  0.00    +0.000 C 
ATOM      2  C   UNL     1       1.031   4.189  20.560  0.00  0.00    +0.000 C 
ATOM      3  C   UNL     1       1.497   3.253  21.665  0.00  0.00    +0.000 C 
ATOM      4  C   UNL     1       2.808   2.680  21.140  0.00  0.00    +0.000 C 
ATOM      5  N   UNL     1       2.878   3.038  19.727  0.00  0.00    +0.000 N 
ATOM      6  C   UNL     1       3.940   2.514  19.008  0.00  0.00    +0.000 C 
ATOM      7  O   UNL     1       4.834   1.887  19.588  0.00  0.00    +0.000 OA
ENDROOT
BRANCH   1   9
ATOM      8  N   UNL     1       2.072   5.672  18.198  0.00  0.00    +0.000 N 
ATOM      9  C   UNL     1       1.448   4.451  18.086  0.00  0.00    +0.000 C 
ATOM     10  O   UNL     1       0.779   4.194  17.087  0.00  0.00    +0.000 OA
ATOM     11  H   UNL     1       1.911   6.303  17.414  0.00  0.00    +0.000 HD
BRANCH   8  12
ATOM     12  C   UNL     1       2.616   6.278  19.419  0.00  0.00    +0.000 C 
ATOM     13  C   UNL     1       4.127   6.207  19.451  0.00  0.00    +0.000 C 
BRANCH  12  15
ATOM     14  N   UNL     1       1.971   8.410  18.420  0.00  0.00    +0.000 N 
ATOM     15  C   UNL     1       2.078   7.710  19.607  0.00  0.00    +0.000 C 
ATOM     16  O   UNL     1       1.824   8.185  20.710  0.00  0.00    +0.000 OA
ATOM     17  H   UNL     1       1.866   7.895  17.555  0.00  0.00    +0.000 HD
BRANCH  14  18
ATOM     18  C   UNL     1       1.542   9.801  18.398  0.00  0.00    +0.000 C 
BRANCH  18  19
ATOM     19  C   UNL     1       0.032   9.883  18.548  0.00  0.00    +0.000 C 
ATOM     20  O   UNL     1      -0.543  10.163  19.595  0.00  0.00    +0.000 OA
BRANCH  19  22
ATOM     21  C   UNL     1      -1.886  10.089  17.225  0.00  0.00    +0.000 C 
ATOM     22  O   UNL     1      -0.578   9.543  17.379  0.00  0.00    +0.000 OA
ENDBRANCH  19  22
ENDBRANCH  18  19
ENDBRANCH  14  18
ENDBRANCH  12  15
ENDBRANCH   8  12
ENDBRANCH   1   9
BRANCH   6  23
ATOM     23  C   UNL     1       4.095   2.799  17.517  0.00  0.00    +0.000 C 
BRANCH  23  24
ATOM     24  N   UNL     1       5.390   3.282  17.095  0.00  0.00    +0.000 N 
ATOM     25  C   UNL     1       5.476   4.552  16.548  0.00  0.00    +0.000 C 
ATOM     26  O   UNL     1       4.473   5.227  16.310  0.00  0.00    +0.000 OA
ATOM     27  H   UNL     1       6.216   2.877  17.521  0.00  0.00    +0.000 HD
BRANCH  25  28
ATOM     28  C   UNL     1       6.904   5.048  16.230  0.00  0.00    +0.000 C 
ATOM     29  C   UNL     1       7.237   4.930  14.750  0.00  0.00    +0.000 C 
BRANCH  28  30
ATOM     30  N   UNL     1       7.886   4.257  17.008  0.00  0.00    +0.000 NA
ATOM     31  H   UNL     1       8.227   4.856  17.766  0.00  0.00    +0.000 HD
ATOM     32  H   UNL     1       8.715   4.138  16.420  0.00  0.00    +0.000 HD
ENDBRANCH  28  30
ENDBRANCH  25  28
ENDBRANCH  23  24
ENDBRANCH   6  23
TORSDOF 10
ENDMDL
MODEL 6
REMARK VINA RESULT:      -6.9      1.220      1.492
REMARK  Name = 
REMARK  13 active torsions:
REMARK  status: ('A' for Active; 'I' for Inactive)
REMARK    1  A    between atoms: C_1  and  O_2
REMARK    2  A    between atoms: O_2  and  C_3
REMARK    3  A    between atoms: C_3  and  C_5
REMARK    4  A    between atoms: C_5  and  N_6
REMARK    5  A    between atoms: C_7  and  C_9
REMARK    6  A    between atoms: C_9  and  C_10
REMARK    7  A    between atoms: C_9  and  N_11
REMARK    8  A    between atoms: C_12  and  C_14
REMARK    9  A    between atoms: C_19  and  C_21
REMARK   10  A    between atoms: C_21  and  N_22
REMARK   11  A    between atoms: C_23  and  C_25
REMARK   12  A    between atoms: C_25  and  C_26
REMARK   13  A    between atoms: C_25  and  N_27
REMARK                            x       y       z     vdW  Elec       q    Type
REMARK                         _______ _______ _______ _____ _____    ______ ____
ROOT
ATOM      1  C   UNL     1       1.618   3.415  19.247  0.00  0.00    +0.000 C 
ATOM      2  C   UNL     1       0.897   3.971  20.483  0.00  0.00    +0.000 C 
ATOM      3  C   UNL     1       1.329   3.011  21.583  0.00  0.00    +0.000 C 
ATOM      4  C   UNL     1       2.739   2.594  21.181  0.00  0.00    +0.000 C 
ATOM      5  N   UNL     1       2.927   3.048  19.807  0.00  0.00    +0.000 N 
ATOM      6  C   UNL     1       4.107   2.669  19.187  0.00  0.00    +0.000 C 
ATOM      7  O   UNL     1       4.989   2.089  19.830  0.00  0.00    +0.000 OA
ENDROOT
BRANCH   1   9
ATOM      8  N   UNL     1       2.195   5.631  18.278  0.00  0.00    +0.000 N 
ATOM      9  C   UNL     1       1.554   4.428  18.091  0.00  0.00    +0.000 C 
ATOM     10  O   UNL     1       0.900   4.234  17.068  0.00  0.00    +0.000 OA
ATOM     11  H   UNL     1       2.061   6.303  17.524  0.00  0.00    +0.000 HD
BRANCH   8  12
ATOM     12  C   UNL     1       2.725   6.163  19.539  0.00  0.00    +0.000 C 
ATOM     13  C   UNL     1       4.221   6.385  19.466  0.00  0.00    +0.000 C 
BRANCH  12  15
ATOM     14  N   UNL     1       1.985   8.432  19.022  0.00  0.00    +0.000 N 
ATOM     15  C   UNL     1       1.952   7.425  19.969  0.00  0.00    +0.000 C 
ATOM     16  O   UNL     1       1.410   7.531  21.065  0.00  0.00    +0.000 OA
ATOM     17  H   UNL     1       2.137   8.187  18.052  0.00  0.00    +0.000 HD
BRANCH  14  18
ATOM     18  C   UNL     1       1.366   9.726  19.272  0.00  0.00    +0.000 C 
BRANCH  18  19
ATOM     19  C   UNL     1       0.257   9.975  18.264  0.00  0.00    +0.000 C 
ATOM     20  O   UNL     1      -0.028   9.210  17.348  0.00  0.00    +0.000 OA
BRANCH  19  22
ATOM     21  C   UNL     1      -1.188  11.216  19.622  0.00  0.00    +0.000 C 
ATOM     22  O   UNL     1      -0.322  11.187  18.488  0.00  0.00    +0.000 OA
ENDBRANCH  19  22
ENDBRANCH  18  19
ENDBRANCH  14  18
ENDBRANCH  12  15
ENDBRANCH   8  12
ENDBRANCH   1   9
BRANCH   6  23
ATOM     23  C   UNL     1       4.394   3.062  17.740  0.00  0.00    +0.000 C 
BRANCH  23  24
ATOM     24  N   UNL     1       5.684   3.665  17.492  0.00  0.00    +0.000 N 
ATOM     25  C   UNL     1       5.733   4.853  16.781  0.00  0.00    +0.000 C 
ATOM     26  O   UNL     1       4.728   5.343  16.263  0.00  0.00    +0.000 OA
ATOM     27  H   UNL     1       6.448   3.440  18.119  0.00  0.00    +0.000 HD
BRANCH  25  28
ATOM     28  C   UNL     1       7.129   5.501  16.656  0.00  0.00    +0.000 C 
ATOM     29  C   UNL     1       7.141   6.941  17.148  0.00  0.00    +0.000 C 
BRANCH  28  30
ATOM     30  N   UNL     1       7.561   5.472  15.240  0.00  0.00    +0.000 NA
ATOM     31  H   UNL     1       8.184   4.667  15.127  0.00  0.00    +0.000 HD
ATOM     32  H   UNL     1       8.188   6.269  15.097  0.00  0.00    +0.000 HD
ENDBRANCH  28  30
ENDBRANCH  25  28
ENDBRANCH  23  24
ENDBRANCH   6  23
TORSDOF 10
ENDMDL
MODEL 7
REMARK VINA RESULT:      -6.8      1.969      2.702
REMARK  Name = 
REMARK  13 active torsions:
REMARK  status: ('A' for Active; 'I' for Inactive)
REMARK    1  A    between atoms: C_1  and  O_2
REMARK    2  A    between atoms: O_2  and  C_3
REMARK    3  A    between atoms: C_3  and  C_5
REMARK    4  A    between atoms: C_5  and  N_6
REMARK    5  A    between atoms: C_7  and  C_9
REMARK    6  A    between atoms: C_9  and  C_10
REMARK    7  A    between atoms: C_9  and  N_11
REMARK    8  A    between atoms: C_12  and  C_14
REMARK    9  A    between atoms: C_19  and  C_21
REMARK   10  A    between atoms: C_21  and  N_22
REMARK   11  A    between atoms: C_23  and  C_25
REMARK   12  A    between atoms: C_25  and  C_26
REMARK   13  A    between atoms: C_25  and  N_27
REMARK                            x       y       z     vdW  Elec       q    Type
REMARK                         _______ _______ _______ _____ _____    ______ ____
ROOT
ATOM      1  C   UNL     1       2.291   4.561  20.173  0.00  0.00    +0.000 C 
ATOM      2  C   UNL     1       2.411   3.914  21.561  0.00  0.00    +0.000 C 
ATOM      3  C   UNL     1       1.442   2.744  21.469  0.00  0.00    +0.000 C 
ATOM      4  C   UNL     1       1.510   2.318  20.007  0.00  0.00    +0.000 C 
ATOM      5  N   UNL     1       2.218   3.380  19.301  0.00  0.00    +0.000 N 
ATOM      6  C   UNL     1       2.294   3.262  17.922  0.00  0.00    +0.000 C 
ATOM      7  O   UNL     1       1.887   2.237  17.362  0.00  0.00    +0.000 OA
ENDROOT
BRANCH   1   9
ATOM      8  N   UNL     1       3.068   6.911  19.933  0.00  0.00    +0.000 N 
ATOM      9  C   UNL     1       3.422   5.582  19.961  0.00  0.00    +0.000 C 
ATOM     10  O   UNL     1       4.586   5.253  19.743  0.00  0.00    +0.000 OA
ATOM     11  H   UNL     1       3.832   7.548  19.710  0.00  0.00    +0.000 HD
BRANCH   8  12
ATOM     12  C   UNL     1       1.711   7.463  19.834  0.00  0.00    +0.000 C 
ATOM     13  C   UNL     1       1.098   7.683  21.200  0.00  0.00    +0.000 C 
BRANCH  12  15
ATOM     14  N   UNL     1       1.117   9.818  19.584  0.00  0.00    +0.000 N 
ATOM     15  C   UNL     1       1.698   8.730  18.958  0.00  0.00    +0.000 C 
ATOM     16  O   UNL     1       2.115   8.746  17.804  0.00  0.00    +0.000 OA
ATOM     17  H   UNL     1       1.105   9.851  20.596  0.00  0.00    +0.000 HD
BRANCH  14  18
ATOM     18  C   UNL     1       0.953  11.089  18.895  0.00  0.00    +0.000 C 
BRANCH  18  19
ATOM     19  C   UNL     1       0.919  12.227  19.901  0.00  0.00    +0.000 C 
ATOM     20  O   UNL     1       1.535  12.227  20.963  0.00  0.00    +0.000 OA
BRANCH  19  22
ATOM     21  C   UNL     1       0.712  14.421  19.116  0.00  0.00    +0.000 C 
ATOM     22  O   UNL     1       0.066  13.203  19.483  0.00  0.00    +0.000 OA
ENDBRANCH  19  22
ENDBRANCH  18  19
ENDBRANCH  14  18
ENDBRANCH  12  15
ENDBRANCH   8  12
ENDBRANCH   1   9
BRANCH   6  23
ATOM     23  C   UNL     1       2.985   4.330  17.080  0.00  0.00    +0.000 C 
BRANCH  23  24
ATOM     24  N   UNL     1       4.413   4.180  16.913  0.00  0.00    +0.000 N 
ATOM     25  C   UNL     1       5.177   5.316  16.703  0.00  0.00    +0.000 C 
ATOM     26  O   UNL     1       4.665   6.425  16.543  0.00  0.00    +0.000 OA
ATOM     27  H   UNL     1       4.858   3.357  17.304  0.00  0.00    +0.000 HD
BRANCH  25  28
ATOM     28  C   UNL     1       6.705   5.094  16.652  0.00  0.00    +0.000 C 
ATOM     29  C   UNL     1       7.136   4.350  15.396  0.00  0.00    +0.000 C 
BRANCH  28  30
ATOM     30  N   UNL     1       7.132   4.320  17.840  0.00  0.00    +0.000 NA
ATOM     31  H   UNL     1       6.701   3.393  17.770  0.00  0.00    +0.000 HD
ATOM     32  H   UNL     1       6.664   4.729  18.653  0.00  0.00    +0.000 HD
ENDBRANCH  28  30
ENDBRANCH  25  28
ENDBRANCH  23  24
ENDBRANCH   6  23
TORSDOF 10
ENDMDL
MODEL 8
REMARK VINA RESULT:      -6.8      1.489      1.974
REMARK  Name = 
REMARK  13 active torsions:
REMARK  status: ('A' for Active; 'I' for Inactive)
REMARK    1  A    between atoms: C_1  and  O_2
REMARK    2  A    between atoms: O_2  and  C_3
REMARK    3  A    between atoms: C_3  and  C_5
REMARK    4  A    between atoms: C_5  and  N_6
REMARK    5  A    between atoms: C_7  and  C_9
REMARK    6  A    between atoms: C_9  and  C_10
REMARK    7  A    between atoms: C_9  and  N_11
REMARK    8  A    between atoms: C_12  and  C_14
REMARK    9  A    between atoms: C_19  and  C_21
REMARK   10  A    between atoms: C_21  and  N_22
REMARK   11  A    between atoms: C_23  and  C_25
REMARK   12  A    between atoms: C_25  and  C_26
REMARK   13  A    between atoms: C_25  and  N_27
REMARK                            x       y       z     vdW  Elec       q    Type
REMARK                         _______ _______ _______ _____ _____    ______ ____
ROOT
ATOM      1  C   UNL     1       1.545   3.279  19.383  0.00  0.00    +0.000 C 
ATOM      2  C   UNL     1       0.929   3.932  20.629  0.00  0.00    +0.000 C 
ATOM      3  C   UNL     1       1.375   3.003  21.749  0.00  0.00    +0.000 C 
ATOM      4  C   UNL     1       2.735   2.491  21.289  0.00  0.00    +0.000 C 
ATOM      5  N   UNL     1       2.865   2.868  19.886  0.00  0.00    +0.000 N 
ATOM      6  C   UNL     1       3.985   2.397  19.220  0.00  0.00    +0.000 C 
ATOM      7  O   UNL     1       4.872   1.800  19.841  0.00  0.00    +0.000 OA
ENDROOT
BRANCH   1   9
ATOM      8  N   UNL     1       2.164   5.421  18.281  0.00  0.00    +0.000 N 
ATOM      9  C   UNL     1       1.466   4.239  18.183  0.00  0.00    +0.000 C 
ATOM     10  O   UNL     1       0.757   4.025  17.203  0.00  0.00    +0.000 OA
ATOM     11  H   UNL     1       2.020   6.063  17.502  0.00  0.00    +0.000 HD
BRANCH   8  12
ATOM     12  C   UNL     1       2.775   5.989  19.489  0.00  0.00    +0.000 C 
ATOM     13  C   UNL     1       4.245   6.285  19.283  0.00  0.00    +0.000 C 
BRANCH  12  15
ATOM     14  N   UNL     1       1.906   8.227  19.043  0.00  0.00    +0.000 N 
ATOM     15  C   UNL     1       1.980   7.214  19.981  0.00  0.00    +0.000 C 
ATOM     16  O   UNL     1       1.510   7.291  21.112  0.00  0.00    +0.000 OA
ATOM     17  H   UNL     1       2.002   7.994  18.062  0.00  0.00    +0.000 HD
BRANCH  14  18
ATOM     18  C   UNL     1       1.251   9.492  19.345  0.00  0.00    +0.000 C 
BRANCH  18  19
ATOM     19  C   UNL     1       1.699  10.558  18.361  0.00  0.00    +0.000 C 
ATOM     20  O   UNL     1       2.392  10.338  17.372  0.00  0.00    +0.000 OA
BRANCH  19  22
ATOM     21  C   UNL     1       2.129  12.858  18.373  0.00  0.00    +0.000 C 
ATOM     22  O   UNL     1       1.275  11.786  18.768  0.00  0.00    +0.000 OA
ENDBRANCH  19  22
ENDBRANCH  18  19
ENDBRANCH  14  18
ENDBRANCH  12  15
ENDBRANCH   8  12
ENDBRANCH   1   9
BRANCH   6  23
ATOM     23  C   UNL     1       4.206   2.705  17.742  0.00  0.00    +0.000 C 
BRANCH  23  24
ATOM     24  N   UNL     1       5.487   3.281  17.399  0.00  0.00    +0.000 N 
ATOM     25  C   UNL     1       5.513   4.384  16.563  0.00  0.00    +0.000 C 
ATOM     26  O   UNL     1       4.493   4.812  16.018  0.00  0.00    +0.000 OA
ATOM     27  H   UNL     1       6.266   3.127  18.029  0.00  0.00    +0.000 HD
BRANCH  25  28
ATOM     28  C   UNL     1       6.902   5.019  16.336  0.00  0.00    +0.000 C 
ATOM     29  C   UNL     1       7.282   5.059  14.862  0.00  0.00    +0.000 C 
BRANCH  28  30
ATOM     30  N   UNL     1       7.925   4.244  17.075  0.00  0.00    +0.000 NA
ATOM     31  H   UNL     1       8.038   4.685  17.992  0.00  0.00    +0.000 HD
ATOM     32  H   UNL     1       8.827   4.422  16.623  0.00  0.00    +0.000 HD
ENDBRANCH  28  30
ENDBRANCH  25  28
ENDBRANCH  23  24
ENDBRANCH   6  23
TORSDOF 10
ENDMDL
MODEL 9
REMARK VINA RESULT:      -6.7      2.438      7.621
REMARK  Name = 
REMARK  13 active torsions:
REMARK  status: ('A' for Active; 'I' for Inactive)
REMARK    1  A    between atoms: C_1  and  O_2
REMARK    2  A    between atoms: O_2  and  C_3
REMARK    3  A    between atoms: C_3  and  C_5
REMARK    4  A    between atoms: C_5  and  N_6
REMARK    5  A    between atoms: C_7  and  C_9
REMARK    6  A    between atoms: C_9  and  C_10
REMARK    7  A    between atoms: C_9  and  N_11
REMARK    8  A    between atoms: C_12  and  C_14
REMARK    9  A    between atoms: C_19  and  C_21
REMARK   10  A    between atoms: C_21  and  N_22
REMARK   11  A    between atoms: C_23  and  C_25
REMARK   12  A    between atoms: C_25  and  C_26
REMARK   13  A    between atoms: C_25  and  N_27
REMARK                            x       y       z     vdW  Elec       q    Type
REMARK                         _______ _______ _______ _____ _____    ______ ____
ROOT
ATOM      1  C   UNL     1       3.985   5.133  18.130  0.00  0.00    +0.000 C 
ATOM      2  C   UNL     1       3.887   4.080  17.016  0.00  0.00    +0.000 C 
ATOM      3  C   UNL     1       3.367   2.857  17.757  0.00  0.00    +0.000 C 
ATOM      4  C   UNL     1       2.482   3.434  18.855  0.00  0.00    +0.000 C 
ATOM      5  N   UNL     1       2.760   4.866  18.898  0.00  0.00    +0.000 N 
ATOM      6  C   UNL     1       2.149   5.584  19.914  0.00  0.00    +0.000 C 
ATOM      7  O   UNL     1       1.319   5.038  20.649  0.00  0.00    +0.000 OA
ENDROOT
BRANCH   1   9
ATOM      8  N   UNL     1       5.496   6.897  17.243  0.00  0.00    +0.000 N 
ATOM      9  C   UNL     1       4.201   6.531  17.525  0.00  0.00    +0.000 C 
ATOM     10  O   UNL     1       3.287   7.337  17.363  0.00  0.00    +0.000 OA
ATOM     11  H   UNL     1       5.604   7.858  16.920  0.00  0.00    +0.000 HD
BRANCH   8  12
ATOM     12  C   UNL     1       6.722   6.215  17.677  0.00  0.00    +0.000 C 
ATOM     13  C   UNL     1       6.578   5.642  19.070  0.00  0.00    +0.000 C 
BRANCH  12  15
ATOM     14  N   UNL     1       6.587   5.357  15.395  0.00  0.00    +0.000 N 
ATOM     15  C   UNL     1       7.161   5.165  16.638  0.00  0.00    +0.000 C 
ATOM     16  O   UNL     1       7.904   4.227  16.913  0.00  0.00    +0.000 OA
ATOM     17  H   UNL     1       6.276   6.286  15.137  0.00  0.00    +0.000 HD
BRANCH  14  18
ATOM     18  C   UNL     1       6.829   4.431  14.298  0.00  0.00    +0.000 C 
BRANCH  18  19
ATOM     19  C   UNL     1       7.707   5.086  13.247  0.00  0.00    +0.000 C 
ATOM     20  O   UNL     1       8.578   5.915  13.494  0.00  0.00    +0.000 OA
BRANCH  19  22
ATOM     21  C   UNL     1       6.705   3.395  11.979  0.00  0.00    +0.000 C 
ATOM     22  O   UNL     1       7.346   4.668  12.002  0.00  0.00    +0.000 OA
ENDBRANCH  19  22
ENDBRANCH  18  19
ENDBRANCH  14  18
ENDBRANCH  12  15
ENDBRANCH   8  12
ENDBRANCH   1   9
BRANCH   6  23
ATOM     23  C   UNL     1       2.393   7.082  20.071  0.00  0.00    +0.000 C 
BRANCH  23  24
ATOM     24  N   UNL     1       1.644   7.740  21.119  0.00  0.00    +0.000 N 
ATOM     25  C   UNL     1       0.939   8.889  20.805  0.00  0.00    +0.000 C 
ATOM     26  O   UNL     1       1.024   9.423  19.697  0.00  0.00    +0.000 OA
ATOM     27  H   UNL     1       1.349   7.188  21.916  0.00  0.00    +0.000 HD
BRANCH  25  28
ATOM     28  C   UNL     1       0.068   9.470  21.940  0.00  0.00    +0.000 C 
ATOM     29  C   UNL     1      -0.553  10.808  21.562  0.00  0.00    +0.000 C 
BRANCH  28  30
ATOM     30  N   UNL     1       0.896   9.651  23.155  0.00  0.00    +0.000 NA
ATOM     31  H   UNL     1       1.741  10.157  22.875  0.00  0.00    +0.000 HD
ATOM     32  H   UNL     1       1.257   8.729  23.416  0.00  0.00    +0.000 HD
ENDBRANCH  28  30
ENDBRANCH  25  28
ENDBRANCH  23  24
ENDBRANCH   6  23
TORSDOF 10
ENDMDL
