MODEL 1
REMARK VINA RESULT:      -7.4      0.000      0.000
REMARK  Name = 
REMARK  7 active torsions:
REMARK  status: ('A' for Active; 'I' for Inactive)
REMARK    1  A    between atoms: C_1  and  C_2
REMARK    2  A    between atoms: C_2  and  C_3
REMARK    3  A    between atoms: C_3  and  C_4
REMARK    4  A    between atoms: C_4  and  O_5
REMARK    5  A    between atoms: O_5  and  C_6
REMARK    6  A    between atoms: C_6  and  C_7
REMARK    7  A    between atoms: N_12  and  C_13
REMARK                            x       y       z     vdW  Elec       q    Type
REMARK                         _______ _______ _______ _____ _____    ______ ____
ROOT
ATOM      1  C   UNL     1       6.880   4.776  14.523  0.00  0.00    +0.000 C 
ATOM      2  O   UNL     1       7.775   5.577  14.254  0.00  0.00    +0.000 OA
ATOM      3  N   UNL     1       6.017   4.945  15.592  0.00  0.00    +0.000 N 
ATOM      4  C   UNL     1       6.118   6.155  16.428  0.00  0.00    +0.000 C 
ATOM      5  C   UNL     1       4.729   6.648  16.893  0.00  0.00    +0.000 C 
ATOM      6  N   UNL     1       4.054   5.502  17.508  0.00  0.00    +0.000 N 
ATOM      7  C   UNL     1       3.789   4.408  16.573  0.00  0.00    +0.000 C 
ATOM      8  C   UNL     1       5.158   3.869  16.121  0.00  0.00    +0.000 C 
ENDROOT
BRANCH   6   9
ATOM      9  C   UNL     1       3.269   5.690  18.632  0.00  0.00    +0.000 A 
ATOM     10  N   UNL     1       2.757   6.925  18.867  0.00  0.00    +0.000 NA
ATOM     11  N   UNL     1       2.005   7.180  19.974  0.00  0.00    +0.000 NA
ATOM     12  C   UNL     1       1.776   6.186  20.852  0.00  0.00    +0.000 A 
ATOM     13  C   UNL     1       2.271   4.900  20.694  0.00  0.00    +0.000 A 
ATOM     14  C   UNL     1       2.025   3.887  21.641  0.00  0.00    +0.000 A 
ATOM     15  C   UNL     1       2.563   2.611  21.487  0.00  0.00    +0.000 A 
ATOM     16  C   UNL     1       3.377   2.334  20.399  0.00  0.00    +0.000 A 
ATOM     17  C   UNL     1       3.631   3.343  19.467  0.00  0.00    +0.000 A 
ATOM     18  C   UNL     1       3.061   4.637  19.563  0.00  0.00    +0.000 A 
ENDBRANCH   6   9
BRANCH   1  19
ATOM     19  C   UNL     1       6.600   3.573  13.613  0.00  0.00    +0.000 C 
BRANCH  19  20
ATOM     20  O   UNL     1       6.340   3.919  12.251  0.00  0.00    +0.000 OA
BRANCH  20  21
ATOM     21  C   UNL     1       4.947   4.015  11.928  0.00  0.00    +0.000 C 
BRANCH  21  22
ATOM     22  C   UNL     1       4.444   2.727  11.290  0.00  0.00    +0.000 C 
BRANCH  22  24
ATOM     23  C   UNL     1       3.137   4.243   9.815  0.00  0.00    +0.000 C 
ATOM     24  C   UNL     1       3.131   2.907  10.542  0.00  0.00    +0.000 C 
ENDBRANCH  22  24
ENDBRANCH  21  22
ENDBRANCH  20  21
ENDBRANCH  19  20
ENDBRANCH   1  19
TORSDOF 6
ENDMDL
MODEL 2
REMARK VINA RESULT:      -7.2      1.069      1.512
REMARK  Name = 
REMARK  7 active torsions:
REMARK  status: ('A' for Active; 'I' for Inactive)
REMARK    1  A    between atoms: C_1  and  C_2
REMARK    2  A    between atoms: C_2  and  C_3
REMARK    3  A    between atoms: C_3  and  C_4
REMARK    4  A    between atoms: C_4  and  O_5
REMARK    5  A    between atoms: O_5  and  C_6
REMARK    6  A    between atoms: C_6  and  C_7
REMARK    7  A    between atoms: N_12  and  C_13
REMARK                            x       y       z     vdW  Elec       q    Type
REMARK                         _______ _______ _______ _____ _____    ______ ____
ROOT
ATOM      1  C   UNL     1       6.973   4.848  14.620  0.00  0.00    +0.000 C 
ATOM      2  O   UNL     1       7.904   5.623  14.406  0.00  0.00    +0.000 OA
ATOM      3  N   UNL     1       6.093   5.004  15.678  0.00  0.00    +0.000 N 
ATOM      4  C   UNL     1       6.223   6.171  16.569  0.00  0.00    +0.000 C 
ATOM      5  C   UNL     1       4.844   6.697  17.026  0.00  0.00    +0.000 C 
ATOM      6  N   UNL     1       4.111   5.554  17.575  0.00  0.00    +0.000 N 
ATOM      7  C   UNL     1       3.826   4.513  16.587  0.00  0.00    +0.000 C 
ATOM      8  C   UNL     1       5.182   3.940  16.141  0.00  0.00    +0.000 C 
ENDROOT
BRANCH   6   9
ATOM      9  C   UNL     1       3.309   5.723  18.690  0.00  0.00    +0.000 A 
ATOM     10  N   UNL     1       2.773   6.948  18.923  0.00  0.00    +0.000 NA
ATOM     11  N   UNL     1       2.002   7.186  20.022  0.00  0.00    +0.000 NA
ATOM     12  C   UNL     1       1.780   6.184  20.893  0.00  0.00    +0.000 A 
ATOM     13  C   UNL     1       2.299   4.908  20.736  0.00  0.00    +0.000 A 
ATOM     14  C   UNL     1       2.058   3.886  21.677  0.00  0.00    +0.000 A 
ATOM     15  C   UNL     1       2.620   2.621  21.524  0.00  0.00    +0.000 A 
ATOM     16  C   UNL     1       3.453   2.363  20.446  0.00  0.00    +0.000 A 
ATOM     17  C   UNL     1       3.701   3.380  19.521  0.00  0.00    +0.000 A 
ATOM     18  C   UNL     1       3.108   4.663  19.614  0.00  0.00    +0.000 A 
ENDBRANCH   6   9
BRANCH   1  19
ATOM     19  C   UNL     1       6.667   3.697  13.652  0.00  0.00    +0.000 C 
BRANCH  19  20
ATOM     20  O   UNL     1       5.439   3.847  12.937  0.00  0.00    +0.000 OA
BRANCH  20  21
ATOM     21  C   UNL     1       5.369   3.076  11.731  0.00  0.00    +0.000 C 
BRANCH  21  22
ATOM     22  C   UNL     1       6.351   1.913  11.768  0.00  0.00    +0.000 C 
BRANCH  22  24
ATOM     23  C   UNL     1       6.225  -0.544  11.411  0.00  0.00    +0.000 C 
ATOM     24  C   UNL     1       6.014   0.817  10.767  0.00  0.00    +0.000 C 
ENDBRANCH  22  24
ENDBRANCH  21  22
ENDBRANCH  20  21
ENDBRANCH  19  20
ENDBRANCH   1  19
TORSDOF 6
ENDMDL
MODEL 3
REMARK VINA RESULT:      -7.1      1.513      2.383
REMARK  Name = 
REMARK  7 active torsions:
REMARK  status: ('A' for Active; 'I' for Inactive)
REMARK    1  A    between atoms: C_1  and  C_2
REMARK    2  A    between atoms: C_2  and  C_3
REMARK    3  A    between atoms: C_3  and  C_4
REMARK    4  A    between atoms: C_4  and  O_5
REMARK    5  A    between atoms: O_5  and  C_6
REMARK    6  A    between atoms: C_6  and  C_7
REMARK    7  A    between atoms: N_12  and  C_13
REMARK                            x       y       z     vdW  Elec       q    Type
REMARK                         _______ _______ _______ _____ _____    ______ ____
ROOT
ATOM      1  C   UNL     1       7.343   4.940  13.940  0.00  0.00    +0.000 C 
ATOM      2  O   UNL     1       8.421   5.533  13.952  0.00  0.00    +0.000 OA
ATOM      3  N   UNL     1       6.582   4.741  15.080  0.00  0.00    +0.000 N 
ATOM      4  C   UNL     1       7.033   5.302  16.366  0.00  0.00    +0.000 C 
ATOM      5  C   UNL     1       5.847   5.800  17.221  0.00  0.00    +0.000 C 
ATOM      6  N   UNL     1       4.890   4.694  17.309  0.00  0.00    +0.000 N 
ATOM      7  C   UNL     1       4.312   4.317  16.018  0.00  0.00    +0.000 C 
ATOM      8  C   UNL     1       5.467   3.778  15.155  0.00  0.00    +0.000 C 
ENDROOT
BRANCH   6   9
ATOM      9  C   UNL     1       4.210   4.466  18.492  0.00  0.00    +0.000 A 
ATOM     10  N   UNL     1       4.316   3.245  19.075  0.00  0.00    +0.000 NA
ATOM     11  N   UNL     1       3.642   2.948  20.223  0.00  0.00    +0.000 NA
ATOM     12  C   UNL     1       2.852   3.886  20.777  0.00  0.00    +0.000 A 
ATOM     13  C   UNL     1       2.679   5.152  20.240  0.00  0.00    +0.000 A 
ATOM     14  C   UNL     1       1.830   6.105  20.839  0.00  0.00    +0.000 A 
ATOM     15  C   UNL     1       1.637   7.359  20.264  0.00  0.00    +0.000 A 
ATOM     16  C   UNL     1       2.265   7.672  19.069  0.00  0.00    +0.000 A 
ATOM     17  C   UNL     1       3.096   6.723  18.468  0.00  0.00    +0.000 A 
ATOM     18  C   UNL     1       3.357   5.457  19.048  0.00  0.00    +0.000 A 
ENDBRANCH   6   9
BRANCH   1  19
ATOM     19  C   UNL     1       6.721   4.463  12.622  0.00  0.00    +0.000 C 
BRANCH  19  20
ATOM     20  O   UNL     1       6.636   3.042  12.496  0.00  0.00    +0.000 OA
BRANCH  20  21
ATOM     21  C   UNL     1       5.633   2.596  11.576  0.00  0.00    +0.000 C 
BRANCH  21  22
ATOM     22  C   UNL     1       4.414   3.507  11.614  0.00  0.00    +0.000 C 
BRANCH  22  24
ATOM     23  C   UNL     1       3.104   4.025   9.565  0.00  0.00    +0.000 C 
ATOM     24  C   UNL     1       3.289   3.034  10.704  0.00  0.00    +0.000 C 
ENDBRANCH  22  24
ENDBRANCH  21  22
ENDBRANCH  20  21
ENDBRANCH  19  20
ENDBRANCH   1  19
TORSDOF 6
ENDMDL
MODEL 4
REMARK VINA RESULT:      -7.0      5.004      7.537
REMARK  Name = 
REMARK  7 active torsions:
REMARK  status: ('A' for Active; 'I' for Inactive)
REMARK    1  A    between atoms: C_1  and  C_2
REMARK    2  A    between atoms: C_2  and  C_3
REMARK    3  A    between atoms: C_3  and  C_4
REMARK    4  A    between atoms: C_4  and  O_5
REMARK    5  A    between atoms: O_5  and  C_6
REMARK    6  A    between atoms: C_6  and  C_7
REMARK    7  A    between atoms: N_12  and  C_13
REMARK                            x       y       z     vdW  Elec       q    Type
REMARK                         _______ _______ _______ _____ _____    ______ ____
ROOT
ATOM      1  C   UNL     1       3.399   6.705  18.710  0.00  0.00    +0.000 C 
ATOM      2  O   UNL     1       3.615   5.846  19.565  0.00  0.00    +0.000 OA
ATOM      3  N   UNL     1       2.395   7.650  18.833  0.00  0.00    +0.000 N 
ATOM      4  C   UNL     1       1.570   7.685  20.053  0.00  0.00    +0.000 C 
ATOM      5  C   UNL     1       1.210   9.132  20.460  0.00  0.00    +0.000 C 
ATOM      6  N   UNL     1       0.629   9.775  19.279  0.00  0.00    +0.000 N 
ATOM      7  C   UNL     1       1.566   9.902  18.161  0.00  0.00    +0.000 C 
ATOM      8  C   UNL     1       1.913   8.474  17.708  0.00  0.00    +0.000 C 
ENDROOT
BRANCH   6   9
ATOM      9  C   UNL     1      -0.434  10.648  19.425  0.00  0.00    +0.000 A 
ATOM     10  N   UNL     1      -0.478  11.437  20.528  0.00  0.00    +0.000 NA
ATOM     11  N   UNL     1      -1.517  12.292  20.745  0.00  0.00    +0.000 NA
ATOM     12  C   UNL     1      -2.519  12.344  19.849  0.00  0.00    +0.000 A 
ATOM     13  C   UNL     1      -2.558  11.565  18.702  0.00  0.00    +0.000 A 
ATOM     14  C   UNL     1      -3.631  11.634  17.792  0.00  0.00    +0.000 A 
ATOM     15  C   UNL     1      -3.673  10.815  16.665  0.00  0.00    +0.000 A 
ATOM     16  C   UNL     1      -2.659   9.896  16.445  0.00  0.00    +0.000 A 
ATOM     17  C   UNL     1      -1.602   9.819  17.355  0.00  0.00    +0.000 A 
ATOM     18  C   UNL     1      -1.498  10.669  18.483  0.00  0.00    +0.000 A 
ENDBRANCH   6   9
BRANCH   1  19
ATOM     19  C   UNL     1       4.310   6.842  17.484  0.00  0.00    +0.000 C 
BRANCH  19  20
ATOM     20  O   UNL     1       4.878   5.609  17.036  0.00  0.00    +0.000 OA
BRANCH  20  21
ATOM     21  C   UNL     1       6.310   5.601  17.013  0.00  0.00    +0.000 C 
BRANCH  21  22
ATOM     22  C   UNL     1       6.869   6.993  17.267  0.00  0.00    +0.000 C 
BRANCH  22  24
ATOM     23  C   UNL     1       7.803   5.775  19.223  0.00  0.00    +0.000 C 
ATOM     24  C   UNL     1       7.931   7.019  18.357  0.00  0.00    +0.000 C 
ENDBRANCH  22  24
ENDBRANCH  21  22
ENDBRANCH  20  21
ENDBRANCH  19  20
ENDBRANCH   1  19
TORSDOF 6
ENDMDL
MODEL 5
REMARK VINA RESULT:      -6.9      4.843      6.921
REMARK  Name = 
REMARK  7 active torsions:
REMARK  status: ('A' for Active; 'I' for Inactive)
REMARK    1  A    between atoms: C_1  and  C_2
REMARK    2  A    between atoms: C_2  and  C_3
REMARK    3  A    between atoms: C_3  and  C_4
REMARK    4  A    between atoms: C_4  and  O_5
REMARK    5  A    between atoms: O_5  and  C_6
REMARK    6  A    between atoms: C_6  and  C_7
REMARK    7  A    between atoms: N_12  and  C_13
REMARK                            x       y       z     vdW  Elec       q    Type
REMARK                         _______ _______ _______ _____ _____    ______ ____
ROOT
ATOM      1  C   UNL     1       3.395   6.474  18.825  0.00  0.00    +0.000 C 
ATOM      2  O   UNL     1       3.574   5.608  19.681  0.00  0.00    +0.000 OA
ATOM      3  N   UNL     1       2.421   7.452  18.936  0.00  0.00    +0.000 N 
ATOM      4  C   UNL     1       1.584   7.514  20.148  0.00  0.00    +0.000 C 
ATOM      5  C   UNL     1       1.267   8.971  20.550  0.00  0.00    +0.000 C 
ATOM      6  N   UNL     1       0.721   9.632  19.363  0.00  0.00    +0.000 N 
ATOM      7  C   UNL     1       1.674   9.730  18.257  0.00  0.00    +0.000 C 
ATOM      8  C   UNL     1       1.979   8.291  17.806  0.00  0.00    +0.000 C 
ENDROOT
BRANCH   6   9
ATOM      9  C   UNL     1      -0.315  10.540  19.498  0.00  0.00    +0.000 A 
ATOM     10  N   UNL     1      -0.348  11.327  20.603  0.00  0.00    +0.000 NA
ATOM     11  N   UNL     1      -1.361  12.216  20.809  0.00  0.00    +0.000 NA
ATOM     12  C   UNL     1      -2.349  12.303  19.899  0.00  0.00    +0.000 A 
ATOM     13  C   UNL     1      -2.397  11.529  18.750  0.00  0.00    +0.000 A 
ATOM     14  C   UNL     1      -3.455  11.636  17.825  0.00  0.00    +0.000 A 
ATOM     15  C   UNL     1      -3.508  10.822  16.696  0.00  0.00    +0.000 A 
ATOM     16  C   UNL     1      -2.523   9.870  16.486  0.00  0.00    +0.000 A 
ATOM     17  C   UNL     1      -1.481   9.756  17.410  0.00  0.00    +0.000 A 
ATOM     18  C   UNL     1      -1.365  10.599  18.542  0.00  0.00    +0.000 A 
ENDBRANCH   6   9
BRANCH   1  19
ATOM     19  C   UNL     1       4.324   6.582  17.609  0.00  0.00    +0.000 C 
BRANCH  19  20
ATOM     20  O   UNL     1       5.633   6.051  17.825  0.00  0.00    +0.000 OA
BRANCH  20  21
ATOM     21  C   UNL     1       5.892   4.830  17.120  0.00  0.00    +0.000 C 
BRANCH  21  22
ATOM     22  C   UNL     1       5.558   4.972  15.641  0.00  0.00    +0.000 C 
BRANCH  22  24
ATOM     23  C   UNL     1       6.012   3.822  13.485  0.00  0.00    +0.000 C 
ATOM     24  C   UNL     1       6.646   4.421  14.730  0.00  0.00    +0.000 C 
ENDBRANCH  22  24
ENDBRANCH  21  22
ENDBRANCH  20  21
ENDBRANCH  19  20
ENDBRANCH   1  19
TORSDOF 6
ENDMDL
MODEL 6
REMARK VINA RESULT:      -6.9      1.560      2.719
REMARK  Name = 
REMARK  7 active torsions:
REMARK  status: ('A' for Active; 'I' for Inactive)
REMARK    1  A    between atoms: C_1  and  C_2
REMARK    2  A    between atoms: C_2  and  C_3
REMARK    3  A    between atoms: C_3  and  C_4
REMARK    4  A    between atoms: C_4  and  O_5
REMARK    5  A    between atoms: O_5  and  C_6
REMARK    6  A    between atoms: C_6  and  C_7
REMARK    7  A    between atoms: N_12  and  C_13
REMARK                            x       y       z     vdW  Elec       q    Type
REMARK                         _______ _______ _______ _____ _____    ______ ____
ROOT
ATOM      1  C   UNL     1       6.996   4.797  14.008  0.00  0.00    +0.000 C 
ATOM      2  O   UNL     1       7.758   5.683  13.623  0.00  0.00    +0.000 OA
ATOM      3  N   UNL     1       6.185   4.935  15.122  0.00  0.00    +0.000 N 
ATOM      4  C   UNL     1       6.175   6.208  15.865  0.00  0.00    +0.000 C 
ATOM      5  C   UNL     1       4.764   6.552  16.392  0.00  0.00    +0.000 C 
ATOM      6  N   UNL     1       4.286   5.380  17.129  0.00  0.00    +0.000 N 
ATOM      7  C   UNL     1       4.113   4.192  16.292  0.00  0.00    +0.000 C 
ATOM      8  C   UNL     1       5.512   3.801  15.782  0.00  0.00    +0.000 C 
ENDROOT
BRANCH   6   9
ATOM      9  C   UNL     1       3.553   5.550  18.290  0.00  0.00    +0.000 A 
ATOM     10  N   UNL     1       3.451   4.506  19.152  0.00  0.00    +0.000 NA
ATOM     11  N   UNL     1       2.714   4.601  20.295  0.00  0.00    +0.000 NA
ATOM     12  C   UNL     1       2.071   5.752  20.564  0.00  0.00    +0.000 A 
ATOM     13  C   UNL     1       2.113   6.861  19.732  0.00  0.00    +0.000 A 
ATOM     14  C   UNL     1       1.413   8.046  20.037  0.00  0.00    +0.000 A 
ATOM     15  C   UNL     1       1.434   9.137  19.170  0.00  0.00    +0.000 A 
ATOM     16  C   UNL     1       2.129   9.053  17.974  0.00  0.00    +0.000 A 
ATOM     17  C   UNL     1       2.812   7.873  17.666  0.00  0.00    +0.000 A 
ATOM     18  C   UNL     1       2.856   6.762  18.544  0.00  0.00    +0.000 A 
ENDBRANCH   6   9
BRANCH   1  19
ATOM     19  C   UNL     1       6.824   3.502  13.204  0.00  0.00    +0.000 C 
BRANCH  19  20
ATOM     20  O   UNL     1       6.205   3.684  11.929  0.00  0.00    +0.000 OA
BRANCH  20  21
ATOM     21  C   UNL     1       5.038   2.876  11.727  0.00  0.00    +0.000 C 
BRANCH  21  22
ATOM     22  C   UNL     1       3.830   3.738  11.386  0.00  0.00    +0.000 C 
BRANCH  22  24
ATOM     23  C   UNL     1       2.757   4.580   9.308  0.00  0.00    +0.000 C 
ATOM     24  C   UNL     1       3.160   3.334  10.081  0.00  0.00    +0.000 C 
ENDBRANCH  22  24
ENDBRANCH  21  22
ENDBRANCH  20  21
ENDBRANCH  19  20
ENDBRANCH   1  19
TORSDOF 6
ENDMDL
MODEL 7
REMARK VINA RESULT:      -6.8      5.077      7.391
REMARK  Name = 
REMARK  7 active torsions:
REMARK  status: ('A' for Active; 'I' for Inactive)
REMARK    1  A    between atoms: C_1  and  C_2
REMARK    2  A    between atoms: C_2  and  C_3
REMARK    3  A    between atoms: C_3  and  C_4
REMARK    4  A    between atoms: C_4  and  O_5
REMARK    5  A    between atoms: O_5  and  C_6
REMARK    6  A    between atoms: C_6  and  C_7
REMARK    7  A    between atoms: N_12  and  C_13
REMARK                            x       y       z     vdW  Elec       q    Type
REMARK                         _______ _______ _______ _____ _____    ______ ____
ROOT
ATOM      1  C   UNL     1       0.309  10.446  19.899  0.00  0.00    +0.000 C 
ATOM      2  O   UNL     1      -0.048  10.615  21.064  0.00  0.00    +0.000 OA
ATOM      3  N   UNL     1       1.176   9.437  19.517  0.00  0.00    +0.000 N 
ATOM      4  C   UNL     1       1.666   8.476  20.522  0.00  0.00    +0.000 C 
ATOM      5  C   UNL     1       1.802   7.053  19.935  0.00  0.00    +0.000 C 
ATOM      6  N   UNL     1       2.609   7.170  18.719  0.00  0.00    +0.000 N 
ATOM      7  C   UNL     1       1.974   7.967  17.669  0.00  0.00    +0.000 C 
ATOM      8  C   UNL     1       1.860   9.403  18.211  0.00  0.00    +0.000 C 
ENDROOT
BRANCH   6   9
ATOM      9  C   UNL     1       3.534   6.187  18.410  0.00  0.00    +0.000 A 
ATOM     10  N   UNL     1       4.822   6.554  18.194  0.00  0.00    +0.000 NA
ATOM     11  N   UNL     1       5.772   5.637  17.853  0.00  0.00    +0.000 NA
ATOM     12  C   UNL     1       5.416   4.346  17.722  0.00  0.00    +0.000 A 
ATOM     13  C   UNL     1       4.120   3.889  17.913  0.00  0.00    +0.000 A 
ATOM     14  C   UNL     1       3.779   2.532  17.751  0.00  0.00    +0.000 A 
ATOM     15  C   UNL     1       2.465   2.096  17.908  0.00  0.00    +0.000 A 
ATOM     16  C   UNL     1       1.467   3.013  18.201  0.00  0.00    +0.000 A 
ATOM     17  C   UNL     1       1.803   4.360  18.348  0.00  0.00    +0.000 A 
ATOM     18  C   UNL     1       3.135   4.833  18.247  0.00  0.00    +0.000 A 
ENDBRANCH   6   9
BRANCH   1  19
ATOM     19  C   UNL     1      -0.275  11.298  18.765  0.00  0.00    +0.000 C 
BRANCH  19  20
ATOM     20  O   UNL     1      -1.089  10.568  17.844  0.00  0.00    +0.000 OA
BRANCH  20  21
ATOM     21  C   UNL     1      -2.472  10.502  18.213  0.00  0.00    +0.000 C 
BRANCH  21  22
ATOM     22  C   UNL     1      -3.351  10.258  16.994  0.00  0.00    +0.000 C 
BRANCH  22  24
ATOM     23  C   UNL     1      -3.062  10.005  14.538  0.00  0.00    +0.000 C 
ATOM     24  C   UNL     1      -2.813  10.915  15.731  0.00  0.00    +0.000 C 
ENDBRANCH  22  24
ENDBRANCH  21  22
ENDBRANCH  20  21
ENDBRANCH  19  20
ENDBRANCH   1  19
TORSDOF 6
ENDMDL
MODEL 8
REMARK VINA RESULT:      -6.7      5.033      7.249
REMARK  Name = 
REMARK  7 active torsions:
REMARK  status: ('A' for Active; 'I' for Inactive)
REMARK    1  A    between atoms: C_1  and  C_2
REMARK    2  A    between atoms: C_2  and  C_3
REMARK    3  A    between atoms: C_3  and  C_4
REMARK    4  A    between atoms: C_4  and  O_5
REMARK    5  A    between atoms: O_5  and  C_6
REMARK    6  A    between atoms: C_6  and  C_7
REMARK    7  A    between atoms: N_12  and  C_13
REMARK                            x       y       z     vdW  Elec       q    Type
REMARK                         _______ _______ _______ _____ _____    ______ ____
ROOT
ATOM      1  C   UNL     1       3.359   6.861  18.777  0.00  0.00    +0.000 C 
ATOM      2  O   UNL     1       3.544   5.977  19.612  0.00  0.00    +0.000 OA
ATOM      3  N   UNL     1       2.332   7.784  18.875  0.00  0.00    +0.000 N 
ATOM      4  C   UNL     1       1.441   7.763  20.049  0.00  0.00    +0.000 C 
ATOM      5  C   UNL     1       1.032   9.189  20.483  0.00  0.00    +0.000 C 
ATOM      6  N   UNL     1       0.504   9.861  19.293  0.00  0.00    +0.000 N 
ATOM      7  C   UNL     1       1.498  10.044  18.235  0.00  0.00    +0.000 C 
ATOM      8  C   UNL     1       1.896   8.638  17.753  0.00  0.00    +0.000 C 
ENDROOT
BRANCH   6   9
ATOM      9  C   UNL     1      -0.582  10.711  19.410  0.00  0.00    +0.000 A 
ATOM     10  N   UNL     1      -0.672  11.502  20.509  0.00  0.00    +0.000 NA
ATOM     11  N   UNL     1      -1.735  12.335  20.697  0.00  0.00    +0.000 NA
ATOM     12  C   UNL     1      -2.715  12.361  19.775  0.00  0.00    +0.000 A 
ATOM     13  C   UNL     1      -2.707  11.577  18.631  0.00  0.00    +0.000 A 
ATOM     14  C   UNL     1      -3.759  11.618  17.694  0.00  0.00    +0.000 A 
ATOM     15  C   UNL     1      -3.754  10.795  16.570  0.00  0.00    +0.000 A 
ATOM     16  C   UNL     1      -2.714   9.898  16.379  0.00  0.00    +0.000 A 
ATOM     17  C   UNL     1      -1.678   9.849  17.315  0.00  0.00    +0.000 A 
ATOM     18  C   UNL     1      -1.622  10.705  18.442  0.00  0.00    +0.000 A 
ENDBRANCH   6   9
BRANCH   1  19
ATOM     19  C   UNL     1       4.333   7.056  17.608  0.00  0.00    +0.000 C 
BRANCH  19  20
ATOM     20  O   UNL     1       5.308   6.019  17.480  0.00  0.00    +0.000 OA
BRANCH  20  21
ATOM     21  C   UNL     1       5.159   5.221  16.299  0.00  0.00    +0.000 C 
BRANCH  21  22
ATOM     22  C   UNL     1       4.849   3.773  16.655  0.00  0.00    +0.000 C 
BRANCH  22  24
ATOM     23  C   UNL     1       3.313   2.332  17.975  0.00  0.00    +0.000 C 
ATOM     24  C   UNL     1       3.405   3.562  17.086  0.00  0.00    +0.000 C 
ENDBRANCH  22  24
ENDBRANCH  21  22
ENDBRANCH  20  21
ENDBRANCH  19  20
ENDBRANCH   1  19
TORSDOF 6
ENDMDL
MODEL 9
REMARK VINA RESULT:      -6.7      4.923      7.304
REMARK  Name = 
REMARK  7 active torsions:
REMARK  status: ('A' for Active; 'I' for Inactive)
REMARK    1  A    between atoms: C_1  and  C_2
REMARK    2  A    between atoms: C_2  and  C_3
REMARK    3  A    between atoms: C_3  and  C_4
REMARK    4  A    between atoms: C_4  and  O_5
REMARK    5  A    between atoms: O_5  and  C_6
REMARK    6  A    between atoms: C_6  and  C_7
REMARK    7  A    between atoms: N_12  and  C_13
REMARK                            x       y       z     vdW  Elec       q    Type
REMARK                         _______ _______ _______ _____ _____    ______ ____
ROOT
ATOM      1  C   UNL     1       3.138   6.175  19.387  0.00  0.00    +0.000 C 
ATOM      2  O   UNL     1       3.166   5.356  20.305  0.00  0.00    +0.000 OA
ATOM      3  N   UNL     1       2.286   7.266  19.378  0.00  0.00    +0.000 N 
ATOM      4  C   UNL     1       1.401   7.511  20.532  0.00  0.00    +0.000 C 
ATOM      5  C   UNL     1       1.244   9.020  20.822  0.00  0.00    +0.000 C 
ATOM      6  N   UNL     1       0.843   9.656  19.565  0.00  0.00    +0.000 N 
ATOM      7  C   UNL     1       1.856   9.563  18.512  0.00  0.00    +0.000 C 
ATOM      8  C   UNL     1       2.007   8.069  18.173  0.00  0.00    +0.000 C 
ENDROOT
BRANCH   6   9
ATOM      9  C   UNL     1      -0.080  10.687  19.580  0.00  0.00    +0.000 A 
ATOM     10  N   UNL     1       0.050  11.660  20.517  0.00  0.00    +0.000 NA
ATOM     11  N   UNL     1      -0.848  12.682  20.604  0.00  0.00    +0.000 NA
ATOM     12  C   UNL     1      -1.885  12.717  19.748  0.00  0.00    +0.000 A 
ATOM     13  C   UNL     1      -2.098  11.757  18.770  0.00  0.00    +0.000 A 
ATOM     14  C   UNL     1      -3.204  11.815  17.899  0.00  0.00    +0.000 A 
ATOM     15  C   UNL     1      -3.425  10.821  16.948  0.00  0.00    +0.000 A 
ATOM     16  C   UNL     1      -2.561   9.740  16.870  0.00  0.00    +0.000 A 
ATOM     17  C   UNL     1      -1.472   9.676  17.742  0.00  0.00    +0.000 A 
ATOM     18  C   UNL     1      -1.186  10.692  18.687  0.00  0.00    +0.000 A 
ENDBRANCH   6   9
BRANCH   1  19
ATOM     19  C   UNL     1       4.134   6.087  18.223  0.00  0.00    +0.000 C 
BRANCH  19  20
ATOM     20  O   UNL     1       3.710   5.239  17.154  0.00  0.00    +0.000 OA
BRANCH  20  21
ATOM     21  C   UNL     1       4.033   3.856  17.343  0.00  0.00    +0.000 C 
BRANCH  21  22
ATOM     22  C   UNL     1       2.799   2.979  17.179  0.00  0.00    +0.000 C 
BRANCH  22  24
ATOM     23  C   UNL     1       1.013   2.715  18.887  0.00  0.00    +0.000 C 
ATOM     24  C   UNL     1       2.402   2.264  18.462  0.00  0.00    +0.000 C 
ENDBRANCH  22  24
ENDBRANCH  21  22
ENDBRANCH  20  21
ENDBRANCH  19  20
ENDBRANCH   1  19
TORSDOF 6
ENDMDL
