MODEL 1
REMARK VINA RESULT:      -6.6      0.000      0.000
REMARK  Name = 
REMARK  19 active torsions:
REMARK  status: ('A' for Active; 'I' for Inactive)
REMARK    1  A    between atoms: C_1  and  C_2
REMARK    2  A    between atoms: C_2  and  O_3
REMARK    3  A    between atoms: O_3  and  P_4
REMARK    4  A    between atoms: P_4  and  C_6
REMARK    5  A    between atoms: P_4  and  O_30
REMARK    6  A    between atoms: C_6  and  C_7
REMARK    7  A    between atoms: C_7  and  C_8
REMARK    8  A    between atoms: C_8  and  C_9
REMARK    9  A    between atoms: C_9  and  N_10
REMARK   10  A    between atoms: C_12  and  C_13
REMARK   11  A    between atoms: C_13  and  O_14
REMARK   12  A    between atoms: O_14  and  C_15
REMARK   13  A    between atoms: C_15  and  C_16
REMARK   14  A    between atoms: C_16  and  N_17
REMARK   15  A    between atoms: C_23  and  C_24
REMARK   16  A    between atoms: C_25  and  C_26
REMARK   17  A    between atoms: C_25  and  C_27
REMARK   18  A    between atoms: O_30  and  C_31
REMARK   19  A    between atoms: C_31  and  C_32
REMARK                            x       y       z     vdW  Elec       q    Type
REMARK                         _______ _______ _______ _____ _____    ______ ____
ROOT
ATOM      1  N   UNL     1       2.472   3.524  19.762  0.00  0.00    +0.000 N 
ATOM      2  C   UNL     1       2.940   4.794  19.880  0.00  0.00    +0.000 A 
ATOM      3  C   UNL     1       1.850   5.508  20.318  0.00  0.00    +0.000 A 
ATOM      4  N   UNL     1       0.782   4.659  20.454  0.00  0.00    +0.000 NA
ATOM      5  N   UNL     1       1.179   3.438  20.111  0.00  0.00    +0.000 NA
ENDROOT
BRANCH   1   6
ATOM      6  C   UNL     1       3.235   2.352  19.390  0.00  0.00    +0.000 C 
BRANCH   6   7
ATOM      7  C   UNL     1       3.444   2.322  17.882  0.00  0.00    +0.000 C 
BRANCH   7   8
ATOM      8  C   UNL     1       4.806   2.858  17.459  0.00  0.00    +0.000 C 
BRANCH   8   9
ATOM      9  C   UNL     1       4.619   4.168  16.698  0.00  0.00    +0.000 C 
BRANCH   9  10
ATOM     10  P   UNL     1       5.984   4.747  15.699  0.00  0.00    +0.000 P 
ATOM     11  O   UNL     1       5.742   6.131  15.173  0.00  0.00    +0.000 OA
BRANCH  10  12
ATOM     12  O   UNL     1       6.137   3.629  14.539  0.00  0.00    +0.000 OA
BRANCH  12  14
ATOM     13  C   UNL     1       5.858   3.195  12.168  0.00  0.00    +0.000 C 
ATOM     14  C   UNL     1       6.533   4.042  13.237  0.00  0.00    +0.000 C 
ENDBRANCH  12  14
ENDBRANCH  10  12
BRANCH  10  15
ATOM     15  O   UNL     1       7.344   4.662  16.555  0.00  0.00    +0.000 OA
BRANCH  15  16
ATOM     16  C   UNL     1       7.497   5.013  17.912  0.00  0.00    +0.000 C 
ATOM     17  C   UNL     1       7.579   6.532  18.026  0.00  0.00    +0.000 C 
ENDBRANCH  15  16
ENDBRANCH  10  15
ENDBRANCH   9  10
ENDBRANCH   8   9
ENDBRANCH   7   8
ENDBRANCH   6   7
ENDBRANCH   1   6
BRANCH   3  18
ATOM     18  C   UNL     1       1.733   6.968  20.527  0.00  0.00    +0.000 C 
BRANCH  18  19
ATOM     19  O   UNL     1       2.581   7.729  19.652  0.00  0.00    +0.000 OA
BRANCH  19  20
ATOM     20  C   UNL     1       2.118   7.807  18.298  0.00  0.00    +0.000 C 
BRANCH  20  21
ATOM     21  C   UNL     1       1.961   9.252  17.813  0.00  0.00    +0.000 C 
BRANCH  21  22
ATOM     22  N   UNL     1       0.596   9.724  18.003  0.00  0.00    +0.000 NA
ATOM     23  C   UNL     1       0.389  10.791  18.692  0.00  0.00    +0.000 C 
ATOM     24  C   UNL     1       1.385  11.670  19.423  0.00  0.00    +0.000 C 
ATOM     25  C   UNL     1       0.394  12.725  19.982  0.00  0.00    +0.000 C 
ATOM     26  C   UNL     1      -0.069  13.594  18.782  0.00  0.00    +0.000 C 
ATOM     27  C   UNL     1      -0.995  12.640  18.001  0.00  0.00    +0.000 C 
ATOM     28  C   UNL     1      -1.014  11.364  18.880  0.00  0.00    +0.000 C 
ATOM     29  C   UNL     1      -2.144  10.406  18.578  0.00  0.00    +0.000 C 
ATOM     30  C   UNL     1      -0.883  11.905  20.331  0.00  0.00    +0.000 C 
ATOM     31  C   UNL     1      -0.658  10.829  21.409  0.00  0.00    +0.000 C 
ATOM     32  C   UNL     1      -2.083  12.756  20.794  0.00  0.00    +0.000 C 
ENDBRANCH  21  22
ENDBRANCH  20  21
ENDBRANCH  19  20
ENDBRANCH  18  19
ENDBRANCH   3  18
TORSDOF 14
ENDMDL
MODEL 2
REMARK VINA RESULT:      -6.5      4.874      8.058
REMARK  Name = 
REMARK  19 active torsions:
REMARK  status: ('A' for Active; 'I' for Inactive)
REMARK    1  A    between atoms: C_1  and  C_2
REMARK    2  A    between atoms: C_2  and  O_3
REMARK    3  A    between atoms: O_3  and  P_4
REMARK    4  A    between atoms: P_4  and  C_6
REMARK    5  A    between atoms: P_4  and  O_30
REMARK    6  A    between atoms: C_6  and  C_7
REMARK    7  A    between atoms: C_7  and  C_8
REMARK    8  A    between atoms: C_8  and  C_9
REMARK    9  A    between atoms: C_9  and  N_10
REMARK   10  A    between atoms: C_12  and  C_13
REMARK   11  A    between atoms: C_13  and  O_14
REMARK   12  A    between atoms: O_14  and  C_15
REMARK   13  A    between atoms: C_15  and  C_16
REMARK   14  A    between atoms: C_16  and  N_17
REMARK   15  A    between atoms: C_23  and  C_24
REMARK   16  A    between atoms: C_25  and  C_26
REMARK   17  A    between atoms: C_25  and  C_27
REMARK   18  A    between atoms: O_30  and  C_31
REMARK   19  A    between atoms: C_31  and  C_32
REMARK                            x       y       z     vdW  Elec       q    Type
REMARK                         _______ _______ _______ _____ _____    ______ ____
ROOT
ATOM      1  N   UNL     1       1.585  11.044  18.580  0.00  0.00    +0.000 N 
ATOM      2  C   UNL     1       2.477  11.772  17.859  0.00  0.00    +0.000 A 
ATOM      3  C   UNL     1       2.650  12.913  18.606  0.00  0.00    +0.000 A 
ATOM      4  N   UNL     1       1.877  12.833  19.735  0.00  0.00    +0.000 NA
ATOM      5  N   UNL     1       1.227  11.675  19.709  0.00  0.00    +0.000 NA
ENDROOT
BRANCH   1   6
ATOM      6  C   UNL     1       1.100   9.716  18.269  0.00  0.00    +0.000 C 
BRANCH   6   7
ATOM      7  C   UNL     1       2.245   8.846  17.770  0.00  0.00    +0.000 C 
BRANCH   7   8
ATOM      8  C   UNL     1       2.648   7.763  18.764  0.00  0.00    +0.000 C 
BRANCH   8   9
ATOM      9  C   UNL     1       2.655   6.409  18.060  0.00  0.00    +0.000 C 
BRANCH   9  10
ATOM     10  P   UNL     1       4.220   5.807  17.438  0.00  0.00    +0.000 P 
ATOM     11  O   UNL     1       4.744   6.664  16.324  0.00  0.00    +0.000 OA
BRANCH  10  12
ATOM     12  O   UNL     1       3.917   4.280  16.996  0.00  0.00    +0.000 OA
BRANCH  12  14
ATOM     13  C   UNL     1       2.577   2.373  17.675  0.00  0.00    +0.000 C 
ATOM     14  C   UNL     1       3.741   3.296  18.008  0.00  0.00    +0.000 C 
ENDBRANCH  12  14
ENDBRANCH  10  12
BRANCH  10  15
ATOM     15  O   UNL     1       5.269   5.699  18.654  0.00  0.00    +0.000 OA
BRANCH  15  16
ATOM     16  C   UNL     1       6.604   5.252  18.565  0.00  0.00    +0.000 C 
ATOM     17  C   UNL     1       7.523   6.461  18.430  0.00  0.00    +0.000 C 
ENDBRANCH  15  16
ENDBRANCH  10  15
ENDBRANCH   9  10
ENDBRANCH   8   9
ENDBRANCH   7   8
ENDBRANCH   6   7
ENDBRANCH   1   6
BRANCH   3  18
ATOM     18  C   UNL     1       3.436  14.121  18.268  0.00  0.00    +0.000 C 
BRANCH  18  19
ATOM     19  O   UNL     1       4.824  13.836  18.028  0.00  0.00    +0.000 OA
BRANCH  19  20
ATOM     20  C   UNL     1       5.676  14.989  18.046  0.00  0.00    +0.000 C 
BRANCH  20  21
ATOM     21  C   UNL     1       6.819  14.860  19.058  0.00  0.00    +0.000 C 
BRANCH  21  22
ATOM     22  N   UNL     1       7.913  14.066  18.515  0.00  0.00    +0.000 NA
ATOM     23  C   UNL     1       8.708  13.454  19.321  0.00  0.00    +0.000 C 
ATOM     24  C   UNL     1       8.723  13.455  20.838  0.00  0.00    +0.000 C 
ATOM     25  C   UNL     1       9.929  12.503  21.056  0.00  0.00    +0.000 C 
ATOM     26  C   UNL     1       9.453  11.074  20.683  0.00  0.00    +0.000 C 
ATOM     27  C   UNL     1       9.343  11.135  19.146  0.00  0.00    +0.000 C 
ATOM     28  C   UNL     1       9.839  12.564  18.812  0.00  0.00    +0.000 C 
ATOM     29  C   UNL     1      10.220  12.778  17.364  0.00  0.00    +0.000 C 
ATOM     30  C   UNL     1      10.911  12.856  19.899  0.00  0.00    +0.000 C 
ATOM     31  C   UNL     1      11.423  14.307  19.936  0.00  0.00    +0.000 C 
ATOM     32  C   UNL     1      12.153  11.946  19.815  0.00  0.00    +0.000 C 
ENDBRANCH  21  22
ENDBRANCH  20  21
ENDBRANCH  19  20
ENDBRANCH  18  19
ENDBRANCH   3  18
TORSDOF 14
ENDMDL
MODEL 3
REMARK VINA RESULT:      -6.4      3.303      8.574
REMARK  Name = 
REMARK  19 active torsions:
REMARK  status: ('A' for Active; 'I' for Inactive)
REMARK    1  A    between atoms: C_1  and  C_2
REMARK    2  A    between atoms: C_2  and  O_3
REMARK    3  A    between atoms: O_3  and  P_4
REMARK    4  A    between atoms: P_4  and  C_6
REMARK    5  A    between atoms: P_4  and  O_30
REMARK    6  A    between atoms: C_6  and  C_7
REMARK    7  A    between atoms: C_7  and  C_8
REMARK    8  A    between atoms: C_8  and  C_9
REMARK    9  A    between atoms: C_9  and  N_10
REMARK   10  A    between atoms: C_12  and  C_13
REMARK   11  A    between atoms: C_13  and  O_14
REMARK   12  A    between atoms: O_14  and  C_15
REMARK   13  A    between atoms: C_15  and  C_16
REMARK   14  A    between atoms: C_16  and  N_17
REMARK   15  A    between atoms: C_23  and  C_24
REMARK   16  A    between atoms: C_25  and  C_26
REMARK   17  A    between atoms: C_25  and  C_27
REMARK   18  A    between atoms: O_30  and  C_31
REMARK   19  A    between atoms: C_31  and  C_32
REMARK                            x       y       z     vdW  Elec       q    Type
REMARK                         _______ _______ _______ _____ _____    ______ ____
ROOT
ATOM      1  N   UNL     1       1.821   5.583  20.521  0.00  0.00    +0.000 N 
ATOM      2  C   UNL     1       1.329   4.643  19.672  0.00  0.00    +0.000 A 
ATOM      3  C   UNL     1       1.534   3.458  20.339  0.00  0.00    +0.000 A 
ATOM      4  N   UNL     1       2.126   3.719  21.548  0.00  0.00    +0.000 NA
ATOM      5  N   UNL     1       2.295   5.032  21.650  0.00  0.00    +0.000 NA
ENDROOT
BRANCH   1   6
ATOM      6  C   UNL     1       1.797   7.017  20.332  0.00  0.00    +0.000 C 
BRANCH   6   7
ATOM      7  C   UNL     1       2.338   7.371  18.953  0.00  0.00    +0.000 C 
BRANCH   7   8
ATOM      8  C   UNL     1       1.661   8.592  18.343  0.00  0.00    +0.000 C 
BRANCH   8   9
ATOM      9  C   UNL     1       1.464   9.653  19.423  0.00  0.00    +0.000 C 
BRANCH   9  10
ATOM     10  P   UNL     1       0.018  10.698  19.304  0.00  0.00    +0.000 P 
ATOM     11  O   UNL     1       0.388  12.146  19.170  0.00  0.00    +0.000 OA
BRANCH  10  12
ATOM     12  O   UNL     1      -0.830  10.365  20.641  0.00  0.00    +0.000 OA
BRANCH  12  14
ATOM     13  C   UNL     1      -0.981  11.980  22.446  0.00  0.00    +0.000 C 
ATOM     14  C   UNL     1      -0.292  10.736  21.904  0.00  0.00    +0.000 C 
ENDBRANCH  12  14
ENDBRANCH  10  12
BRANCH  10  15
ATOM     15  O   UNL     1      -0.899  10.199  18.080  0.00  0.00    +0.000 OA
BRANCH  15  16
ATOM     16  C   UNL     1      -2.293  10.379  17.957  0.00  0.00    +0.000 C 
ATOM     17  C   UNL     1      -2.717  10.013  16.538  0.00  0.00    +0.000 C 
ENDBRANCH  15  16
ENDBRANCH  10  15
ENDBRANCH   9  10
ENDBRANCH   8   9
ENDBRANCH   7   8
ENDBRANCH   6   7
ENDBRANCH   1   6
BRANCH   3  18
ATOM     18  C   UNL     1       1.287   2.080  19.857  0.00  0.00    +0.000 C 
BRANCH  18  19
ATOM     19  O   UNL     1       1.626   1.902  18.473  0.00  0.00    +0.000 OA
BRANCH  19  20
ATOM     20  C   UNL     1       2.975   1.475  18.243  0.00  0.00    +0.000 C 
BRANCH  20  21
ATOM     21  C   UNL     1       3.702   2.351  17.217  0.00  0.00    +0.000 C 
BRANCH  21  22
ATOM     22  N   UNL     1       4.164   3.594  17.821  0.00  0.00    +0.000 NA
ATOM     23  C   UNL     1       4.985   4.342  17.172  0.00  0.00    +0.000 C 
ATOM     24  C   UNL     1       5.626   4.113  15.817  0.00  0.00    +0.000 C 
ATOM     25  C   UNL     1       6.449   5.425  15.727  0.00  0.00    +0.000 C 
ATOM     26  C   UNL     1       5.439   6.578  15.479  0.00  0.00    +0.000 C 
ATOM     27  C   UNL     1       4.729   6.717  16.840  0.00  0.00    +0.000 C 
ATOM     28  C   UNL     1       5.462   5.681  17.730  0.00  0.00    +0.000 C 
ATOM     29  C   UNL     1       5.256   5.866  19.216  0.00  0.00    +0.000 C 
ATOM     30  C   UNL     1       6.920   5.685  17.189  0.00  0.00    +0.000 C 
ATOM     31  C   UNL     1       7.828   4.579  17.757  0.00  0.00    +0.000 C 
ATOM     32  C   UNL     1       7.661   7.021  17.395  0.00  0.00    +0.000 C 
ENDBRANCH  21  22
ENDBRANCH  20  21
ENDBRANCH  19  20
ENDBRANCH  18  19
ENDBRANCH   3  18
TORSDOF 14
ENDMDL
MODEL 4
REMARK VINA RESULT:      -6.4      4.273     10.154
REMARK  Name = 
REMARK  19 active torsions:
REMARK  status: ('A' for Active; 'I' for Inactive)
REMARK    1  A    between atoms: C_1  and  C_2
REMARK    2  A    between atoms: C_2  and  O_3
REMARK    3  A    between atoms: O_3  and  P_4
REMARK    4  A    between atoms: P_4  and  C_6
REMARK    5  A    between atoms: P_4  and  O_30
REMARK    6  A    between atoms: C_6  and  C_7
REMARK    7  A    between atoms: C_7  and  C_8
REMARK    8  A    between atoms: C_8  and  C_9
REMARK    9  A    between atoms: C_9  and  N_10
REMARK   10  A    between atoms: C_12  and  C_13
REMARK   11  A    between atoms: C_13  and  O_14
REMARK   12  A    between atoms: O_14  and  C_15
REMARK   13  A    between atoms: C_15  and  C_16
REMARK   14  A    between atoms: C_16  and  N_17
REMARK   15  A    between atoms: C_23  and  C_24
REMARK   16  A    between atoms: C_25  and  C_26
REMARK   17  A    between atoms: C_25  and  C_27
REMARK   18  A    between atoms: O_30  and  C_31
REMARK   19  A    between atoms: C_31  and  C_32
REMARK                            x       y       z     vdW  Elec       q    Type
REMARK                         _______ _______ _______ _____ _____    ______ ____
ROOT
ATOM      1  N   UNL     1       0.758   9.749  18.625  0.00  0.00    +0.000 N 
ATOM      2  C   UNL     1       1.806   9.386  17.840  0.00  0.00    +0.000 A 
ATOM      3  C   UNL     1       2.426   8.390  18.556  0.00  0.00    +0.000 A 
ATOM      4  N   UNL     1       1.740   8.184  19.726  0.00  0.00    +0.000 NA
ATOM      5  N   UNL     1       0.713   9.026  19.755  0.00  0.00    +0.000 NA
ENDROOT
BRANCH   1   6
ATOM      6  C   UNL     1      -0.262  10.725  18.311  0.00  0.00    +0.000 C 
BRANCH   6   7
ATOM      7  C   UNL     1      -1.404  10.062  17.553  0.00  0.00    +0.000 C 
BRANCH   7   8
ATOM      8  C   UNL     1      -2.401  11.063  16.981  0.00  0.00    +0.000 C 
BRANCH   8   9
ATOM      9  C   UNL     1      -3.811  10.488  17.088  0.00  0.00    +0.000 C 
BRANCH   9  10
ATOM     10  P   UNL     1      -5.009  11.406  18.046  0.00  0.00    +0.000 P 
ATOM     11  O   UNL     1      -6.073  10.512  18.613  0.00  0.00    +0.000 OA
BRANCH  10  12
ATOM     12  O   UNL     1      -5.576  12.521  17.019  0.00  0.00    +0.000 OA
BRANCH  12  14
ATOM     13  C   UNL     1      -7.030  14.359  16.388  0.00  0.00    +0.000 C 
ATOM     14  C   UNL     1      -6.785  13.198  17.342  0.00  0.00    +0.000 C 
ENDBRANCH  12  14
ENDBRANCH  10  12
BRANCH  10  15
ATOM     15  O   UNL     1      -4.249  12.234  19.197  0.00  0.00    +0.000 OA
BRANCH  15  16
ATOM     16  C   UNL     1      -4.702  12.435  20.517  0.00  0.00    +0.000 C 
ATOM     17  C   UNL     1      -4.503  13.899  20.893  0.00  0.00    +0.000 C 
ENDBRANCH  15  16
ENDBRANCH  10  15
ENDBRANCH   9  10
ENDBRANCH   8   9
ENDBRANCH   7   8
ENDBRANCH   6   7
ENDBRANCH   1   6
BRANCH   3  18
ATOM     18  C   UNL     1       3.687   7.683  18.243  0.00  0.00    +0.000 C 
BRANCH  18  19
ATOM     19  O   UNL     1       3.627   6.951  17.008  0.00  0.00    +0.000 OA
BRANCH  19  20
ATOM     20  C   UNL     1       4.739   6.074  16.784  0.00  0.00    +0.000 C 
BRANCH  20  21
ATOM     21  C   UNL     1       4.301   4.654  16.413  0.00  0.00    +0.000 C 
BRANCH  21  22
ATOM     22  N   UNL     1       4.252   3.795  17.590  0.00  0.00    +0.000 NA
ATOM     23  C   UNL     1       3.142   3.662  18.226  0.00  0.00    +0.000 C 
ATOM     24  C   UNL     1       1.802   4.324  17.967  0.00  0.00    +0.000 C 
ATOM     25  C   UNL     1       0.994   3.663  19.115  0.00  0.00    +0.000 C 
ATOM     26  C   UNL     1       0.767   2.180  18.717  0.00  0.00    +0.000 C 
ATOM     27  C   UNL     1       2.168   1.558  18.887  0.00  0.00    +0.000 C 
ATOM     28  C   UNL     1       3.015   2.735  19.433  0.00  0.00    +0.000 C 
ATOM     29  C   UNL     1       4.325   2.329  20.069  0.00  0.00    +0.000 C 
ATOM     30  C   UNL     1       2.012   3.556  20.289  0.00  0.00    +0.000 C 
ATOM     31  C   UNL     1       2.538   4.916  20.784  0.00  0.00    +0.000 C 
ATOM     32  C   UNL     1       1.483   2.805  21.528  0.00  0.00    +0.000 C 
ENDBRANCH  21  22
ENDBRANCH  20  21
ENDBRANCH  19  20
ENDBRANCH  18  19
ENDBRANCH   3  18
TORSDOF 14
ENDMDL
MODEL 5
REMARK VINA RESULT:      -6.4      2.738      5.112
REMARK  Name = 
REMARK  19 active torsions:
REMARK  status: ('A' for Active; 'I' for Inactive)
REMARK    1  A    between atoms: C_1  and  C_2
REMARK    2  A    between atoms: C_2  and  O_3
REMARK    3  A    between atoms: O_3  and  P_4
REMARK    4  A    between atoms: P_4  and  C_6
REMARK    5  A    between atoms: P_4  and  O_30
REMARK    6  A    between atoms: C_6  and  C_7
REMARK    7  A    between atoms: C_7  and  C_8
REMARK    8  A    between atoms: C_8  and  C_9
REMARK    9  A    between atoms: C_9  and  N_10
REMARK   10  A    between atoms: C_12  and  C_13
REMARK   11  A    between atoms: C_13  and  O_14
REMARK   12  A    between atoms: O_14  and  C_15
REMARK   13  A    between atoms: C_15  and  C_16
REMARK   14  A    between atoms: C_16  and  N_17
REMARK   15  A    between atoms: C_23  and  C_24
REMARK   16  A    between atoms: C_25  and  C_26
REMARK   17  A    between atoms: C_25  and  C_27
REMARK   18  A    between atoms: O_30  and  C_31
REMARK   19  A    between atoms: C_31  and  C_32
REMARK                            x       y       z     vdW  Elec       q    Type
REMARK                         _______ _______ _______ _____ _____    ______ ____
ROOT
ATOM      1  N   UNL     1       2.353   7.469  18.845  0.00  0.00    +0.000 N 
ATOM      2  C   UNL     1       1.716   8.395  19.609  0.00  0.00    +0.000 A 
ATOM      3  C   UNL     1       1.599   9.484  18.777  0.00  0.00    +0.000 A 
ATOM      4  N   UNL     1       2.153   9.181  17.560  0.00  0.00    +0.000 NA
ATOM      5  N   UNL     1       2.612   7.935  17.613  0.00  0.00    +0.000 NA
ENDROOT
BRANCH   1   6
ATOM      6  C   UNL     1       2.672   6.108  19.221  0.00  0.00    +0.000 C 
BRANCH   6   7
ATOM      7  C   UNL     1       4.088   5.764  18.782  0.00  0.00    +0.000 C 
BRANCH   7   8
ATOM      8  C   UNL     1       4.168   5.307  17.330  0.00  0.00    +0.000 C 
BRANCH   8   9
ATOM      9  C   UNL     1       5.341   4.343  17.168  0.00  0.00    +0.000 C 
BRANCH   9  10
ATOM     10  P   UNL     1       6.822   4.967  16.384  0.00  0.00    +0.000 P 
ATOM     11  O   UNL     1       8.050   4.251  16.864  0.00  0.00    +0.000 OA
BRANCH  10  12
ATOM     12  O   UNL     1       6.819   6.550  16.720  0.00  0.00    +0.000 OA
BRANCH  12  14
ATOM     13  C   UNL     1       7.960   8.466  17.678  0.00  0.00    +0.000 C 
ATOM     14  C   UNL     1       7.548   7.011  17.851  0.00  0.00    +0.000 C 
ENDBRANCH  12  14
ENDBRANCH  10  12
BRANCH  10  15
ATOM     15  O   UNL     1       6.659   4.870  14.786  0.00  0.00    +0.000 OA
BRANCH  15  16
ATOM     16  C   UNL     1       5.788   4.008  14.088  0.00  0.00    +0.000 C 
ATOM     17  C   UNL     1       6.405   3.667  12.736  0.00  0.00    +0.000 C 
ENDBRANCH  15  16
ENDBRANCH  10  15
ENDBRANCH   9  10
ENDBRANCH   8   9
ENDBRANCH   7   8
ENDBRANCH   6   7
ENDBRANCH   1   6
BRANCH   3  18
ATOM     18  C   UNL     1       1.076  10.831  19.097  0.00  0.00    +0.000 C 
BRANCH  18  19
ATOM     19  O   UNL     1       0.955  11.063  20.509  0.00  0.00    +0.000 OA
BRANCH  19  20
ATOM     20  C   UNL     1      -0.040  12.031  20.867  0.00  0.00    +0.000 C 
BRANCH  20  21
ATOM     21  C   UNL     1      -1.061  11.482  21.869  0.00  0.00    +0.000 C 
BRANCH  21  22
ATOM     22  N   UNL     1      -1.413  12.486  22.864  0.00  0.00    +0.000 NA
ATOM     23  C   UNL     1      -2.610  12.956  22.889  0.00  0.00    +0.000 C 
ATOM     24  C   UNL     1      -3.779  12.652  21.971  0.00  0.00    +0.000 C 
ATOM     25  C   UNL     1      -4.838  13.572  22.635  0.00  0.00    +0.000 C 
ATOM     26  C   UNL     1      -5.232  12.910  23.984  0.00  0.00    +0.000 C 
ATOM     27  C   UNL     1      -3.985  13.141  24.861  0.00  0.00    +0.000 C 
ATOM     28  C   UNL     1      -3.053  13.970  23.942  0.00  0.00    +0.000 C 
ATOM     29  C   UNL     1      -1.928  14.681  24.659  0.00  0.00    +0.000 C 
ATOM     30  C   UNL     1      -4.029  14.825  23.087  0.00  0.00    +0.000 C 
ATOM     31  C   UNL     1      -3.375  15.596  21.926  0.00  0.00    +0.000 C 
ATOM     32  C   UNL     1      -4.842  15.851  23.902  0.00  0.00    +0.000 C 
ENDBRANCH  21  22
ENDBRANCH  20  21
ENDBRANCH  19  20
ENDBRANCH  18  19
ENDBRANCH   3  18
TORSDOF 14
ENDMDL
MODEL 6
REMARK VINA RESULT:      -6.4      4.884      9.013
REMARK  Name = 
REMARK  19 active torsions:
REMARK  status: ('A' for Active; 'I' for Inactive)
REMARK    1  A    between atoms: C_1  and  C_2
REMARK    2  A    between atoms: C_2  and  O_3
REMARK    3  A    between atoms: O_3  and  P_4
REMARK    4  A    between atoms: P_4  and  C_6
REMARK    5  A    between atoms: P_4  and  O_30
REMARK    6  A    between atoms: C_6  and  C_7
REMARK    7  A    between atoms: C_7  and  C_8
REMARK    8  A    between atoms: C_8  and  C_9
REMARK    9  A    between atoms: C_9  and  N_10
REMARK   10  A    between atoms: C_12  and  C_13
REMARK   11  A    between atoms: C_13  and  O_14
REMARK   12  A    between atoms: O_14  and  C_15
REMARK   13  A    between atoms: C_15  and  C_16
REMARK   14  A    between atoms: C_16  and  N_17
REMARK   15  A    between atoms: C_23  and  C_24
REMARK   16  A    between atoms: C_25  and  C_26
REMARK   17  A    between atoms: C_25  and  C_27
REMARK   18  A    between atoms: O_30  and  C_31
REMARK   19  A    between atoms: C_31  and  C_32
REMARK                            x       y       z     vdW  Elec       q    Type
REMARK                         _______ _______ _______ _____ _____    ______ ____
ROOT
ATOM      1  N   UNL     1       4.189   5.595  18.669  0.00  0.00    +0.000 N 
ATOM      2  C   UNL     1       5.135   6.453  18.205  0.00  0.00    +0.000 A 
ATOM      3  C   UNL     1       6.313   5.763  18.369  0.00  0.00    +0.000 A 
ATOM      4  N   UNL     1       6.043   4.533  18.911  0.00  0.00    +0.000 NA
ATOM      5  N   UNL     1       4.729   4.441  19.088  0.00  0.00    +0.000 NA
ENDROOT
BRANCH   1   6
ATOM      6  C   UNL     1       2.757   5.804  18.668  0.00  0.00    +0.000 C 
BRANCH   6   7
ATOM      7  C   UNL     1       2.413   7.061  17.882  0.00  0.00    +0.000 C 
BRANCH   7   8
ATOM      8  C   UNL     1       2.050   8.242  18.774  0.00  0.00    +0.000 C 
BRANCH   8   9
ATOM      9  C   UNL     1       1.152   9.203  18.000  0.00  0.00    +0.000 C 
BRANCH   9  10
ATOM     10  P   UNL     1       0.309  10.478  18.928  0.00  0.00    +0.000 P 
ATOM     11  O   UNL     1      -0.208   9.963  20.239  0.00  0.00    +0.000 OA
BRANCH  10  12
ATOM     12  O   UNL     1      -0.853  11.001  17.931  0.00  0.00    +0.000 OA
BRANCH  12  14
ATOM     13  C   UNL     1      -2.961   9.850  17.582  0.00  0.00    +0.000 C 
ATOM     14  C   UNL     1      -2.208  10.922  18.357  0.00  0.00    +0.000 C 
ENDBRANCH  12  14
ENDBRANCH  10  12
BRANCH  10  15
ATOM     15  O   UNL     1       1.297  11.733  19.127  0.00  0.00    +0.000 OA
BRANCH  15  16
ATOM     16  C   UNL     1       0.994  13.083  18.854  0.00  0.00    +0.000 C 
ATOM     17  C   UNL     1       0.165  13.647  20.002  0.00  0.00    +0.000 C 
ENDBRANCH  15  16
ENDBRANCH  10  15
ENDBRANCH   9  10
ENDBRANCH   8   9
ENDBRANCH   7   8
ENDBRANCH   6   7
ENDBRANCH   1   6
BRANCH   3  18
ATOM     18  C   UNL     1       7.695   6.237  18.130  0.00  0.00    +0.000 C 
BRANCH  18  19
ATOM     19  O   UNL     1       7.774   7.235  17.099  0.00  0.00    +0.000 OA
BRANCH  19  20
ATOM     20  C   UNL     1       7.539   8.575  17.553  0.00  0.00    +0.000 C 
BRANCH  20  21
ATOM     21  C   UNL     1       8.628   9.071  18.510  0.00  0.00    +0.000 C 
BRANCH  21  22
ATOM     22  N   UNL     1       9.176  10.345  18.066  0.00  0.00    +0.000 NA
ATOM     23  C   UNL     1       9.834  11.072  18.899  0.00  0.00    +0.000 C 
ATOM     24  C   UNL     1      10.117  10.830  20.369  0.00  0.00    +0.000 C 
ATOM     25  C   UNL     1      10.950  12.107  20.657  0.00  0.00    +0.000 C 
ATOM     26  C   UNL     1      12.328  11.915  19.969  0.00  0.00    +0.000 C 
ATOM     27  C   UNL     1      11.992  12.060  18.471  0.00  0.00    +0.000 C 
ATOM     28  C   UNL     1      10.478  12.391  18.478  0.00  0.00    +0.000 C 
ATOM     29  C   UNL     1       9.953  12.977  17.187  0.00  0.00    +0.000 C 
ATOM     30  C   UNL     1      10.277  13.208  19.785  0.00  0.00    +0.000 C 
ATOM     31  C   UNL     1       8.810  13.490  20.158  0.00  0.00    +0.000 C 
ATOM     32  C   UNL     1      11.008  14.566  19.794  0.00  0.00    +0.000 C 
ENDBRANCH  21  22
ENDBRANCH  20  21
ENDBRANCH  19  20
ENDBRANCH  18  19
ENDBRANCH   3  18
TORSDOF 14
ENDMDL
MODEL 7
REMARK VINA RESULT:      -6.3      2.163      4.123
REMARK  Name = 
REMARK  19 active torsions:
REMARK  status: ('A' for Active; 'I' for Inactive)
REMARK    1  A    between atoms: C_1  and  C_2
REMARK    2  A    between atoms: C_2  and  O_3
REMARK    3  A    between atoms: O_3  and  P_4
REMARK    4  A    between atoms: P_4  and  C_6
REMARK    5  A    between atoms: P_4  and  O_30
REMARK    6  A    between atoms: C_6  and  C_7
REMARK    7  A    between atoms: C_7  and  C_8
REMARK    8  A    between atoms: C_8  and  C_9
REMARK    9  A    between atoms: C_9  and  N_10
REMARK   10  A    between atoms: C_12  and  C_13
REMARK   11  A    between atoms: C_13  and  O_14
REMARK   12  A    between atoms: O_14  and  C_15
REMARK   13  A    between atoms: C_15  and  C_16
REMARK   14  A    between atoms: C_16  and  N_17
REMARK   15  A    between atoms: C_23  and  C_24
REMARK   16  A    between atoms: C_25  and  C_26
REMARK   17  A    between atoms: C_25  and  C_27
REMARK   18  A    between atoms: O_30  and  C_31
REMARK   19  A    between atoms: C_31  and  C_32
REMARK                            x       y       z     vdW  Elec       q    Type
REMARK                         _______ _______ _______ _____ _____    ______ ____
ROOT
ATOM      1  N   UNL     1       2.566   6.877  18.667  0.00  0.00    +0.000 N 
ATOM      2  C   UNL     1       2.186   8.116  18.260  0.00  0.00    +0.000 A 
ATOM      3  C   UNL     1       1.610   8.668  19.380  0.00  0.00    +0.000 A 
ATOM      4  N   UNL     1       1.667   7.762  20.408  0.00  0.00    +0.000 NA
ATOM      5  N   UNL     1       2.261   6.663  19.956  0.00  0.00    +0.000 NA
ENDROOT
BRANCH   1   6
ATOM      6  C   UNL     1       3.282   5.891  17.886  0.00  0.00    +0.000 C 
BRANCH   6   7
ATOM      7  C   UNL     1       3.425   4.599  18.679  0.00  0.00    +0.000 C 
BRANCH   7   8
ATOM      8  C   UNL     1       4.877   4.197  18.905  0.00  0.00    +0.000 C 
BRANCH   8   9
ATOM      9  C   UNL     1       5.548   3.949  17.556  0.00  0.00    +0.000 C 
BRANCH   9  10
ATOM     10  P   UNL     1       6.971   4.949  17.143  0.00  0.00    +0.000 P 
ATOM     11  O   UNL     1       8.256   4.205  17.359  0.00  0.00    +0.000 OA
BRANCH  10  12
ATOM     12  O   UNL     1       6.819   6.267  18.070  0.00  0.00    +0.000 OA
BRANCH  12  14
ATOM     13  C   UNL     1       8.103   8.314  17.850  0.00  0.00    +0.000 C 
ATOM     14  C   UNL     1       6.851   7.547  17.451  0.00  0.00    +0.000 C 
ENDBRANCH  12  14
ENDBRANCH  10  12
BRANCH  10  15
ATOM     15  O   UNL     1       6.831   5.475  15.629  0.00  0.00    +0.000 OA
BRANCH  15  16
ATOM     16  C   UNL     1       5.812   5.128  14.717  0.00  0.00    +0.000 C 
ATOM     17  C   UNL     1       6.266   3.922  13.901  0.00  0.00    +0.000 C 
ENDBRANCH  15  16
ENDBRANCH  10  15
ENDBRANCH   9  10
ENDBRANCH   8   9
ENDBRANCH   7   8
ENDBRANCH   6   7
ENDBRANCH   1   6
BRANCH   3  18
ATOM     18  C   UNL     1       0.922   9.972  19.510  0.00  0.00    +0.000 C 
BRANCH  18  19
ATOM     19  O   UNL     1       0.286  10.393  18.293  0.00  0.00    +0.000 OA
BRANCH  19  20
ATOM     20  C   UNL     1      -1.097  10.744  18.439  0.00  0.00    +0.000 C 
BRANCH  20  21
ATOM     21  C   UNL     1      -1.321  12.260  18.439  0.00  0.00    +0.000 C 
BRANCH  21  22
ATOM     22  N   UNL     1      -0.829  12.864  19.670  0.00  0.00    +0.000 NA
ATOM     23  C   UNL     1      -1.627  12.996  20.670  0.00  0.00    +0.000 C 
ATOM     24  C   UNL     1      -3.099  12.646  20.776  0.00  0.00    +0.000 C 
ATOM     25  C   UNL     1      -3.332  13.075  22.248  0.00  0.00    +0.000 C 
ATOM     26  C   UNL     1      -2.627  12.023  23.146  0.00  0.00    +0.000 C 
ATOM     27  C   UNL     1      -1.131  12.334  22.935  0.00  0.00    +0.000 C 
ATOM     28  C   UNL     1      -1.154  13.572  22.003  0.00  0.00    +0.000 C 
ATOM     29  C   UNL     1       0.146  14.342  21.944  0.00  0.00    +0.000 C 
ATOM     30  C   UNL     1      -2.438  14.338  22.427  0.00  0.00    +0.000 C 
ATOM     31  C   UNL     1      -2.827  15.513  21.510  0.00  0.00    +0.000 C 
ATOM     32  C   UNL     1      -2.392  14.892  23.865  0.00  0.00    +0.000 C 
ENDBRANCH  21  22
ENDBRANCH  20  21
ENDBRANCH  19  20
ENDBRANCH  18  19
ENDBRANCH   3  18
TORSDOF 14
ENDMDL
MODEL 8
REMARK VINA RESULT:      -6.3      1.725      2.637
REMARK  Name = 
REMARK  19 active torsions:
REMARK  status: ('A' for Active; 'I' for Inactive)
REMARK    1  A    between atoms: C_1  and  C_2
REMARK    2  A    between atoms: C_2  and  O_3
REMARK    3  A    between atoms: O_3  and  P_4
REMARK    4  A    between atoms: P_4  and  C_6
REMARK    5  A    between atoms: P_4  and  O_30
REMARK    6  A    between atoms: C_6  and  C_7
REMARK    7  A    between atoms: C_7  and  C_8
REMARK    8  A    between atoms: C_8  and  C_9
REMARK    9  A    between atoms: C_9  and  N_10
REMARK   10  A    between atoms: C_12  and  C_13
REMARK   11  A    between atoms: C_13  and  O_14
REMARK   12  A    between atoms: O_14  and  C_15
REMARK   13  A    between atoms: C_15  and  C_16
REMARK   14  A    between atoms: C_16  and  N_17
REMARK   15  A    between atoms: C_23  and  C_24
REMARK   16  A    between atoms: C_25  and  C_26
REMARK   17  A    between atoms: C_25  and  C_27
REMARK   18  A    between atoms: O_30  and  C_31
REMARK   19  A    between atoms: C_31  and  C_32
REMARK                            x       y       z     vdW  Elec       q    Type
REMARK                         _______ _______ _______ _____ _____    ______ ____
ROOT
ATOM      1  N   UNL     1       2.304   4.929  18.572  0.00  0.00    +0.000 N 
ATOM      2  C   UNL     1       2.323   6.286  18.520  0.00  0.00    +0.000 A 
ATOM      3  C   UNL     1       1.999   6.670  19.799  0.00  0.00    +0.000 A 
ATOM      4  N   UNL     1       1.805   5.552  20.569  0.00  0.00    +0.000 NA
ATOM      5  N   UNL     1       2.000   4.485  19.802  0.00  0.00    +0.000 NA
ENDROOT
BRANCH   1   6
ATOM      6  C   UNL     1       2.638   4.016  17.500  0.00  0.00    +0.000 C 
BRANCH   6   7
ATOM      7  C   UNL     1       3.868   3.200  17.872  0.00  0.00    +0.000 C 
BRANCH   7   8
ATOM      8  C   UNL     1       5.118   4.053  18.048  0.00  0.00    +0.000 C 
BRANCH   8   9
ATOM      9  C   UNL     1       5.902   4.076  16.737  0.00  0.00    +0.000 C 
BRANCH   9  10
ATOM     10  P   UNL     1       6.129   5.658  15.936  0.00  0.00    +0.000 P 
ATOM     11  O   UNL     1       4.918   6.534  16.079  0.00  0.00    +0.000 OA
BRANCH  10  12
ATOM     12  O   UNL     1       6.483   5.285  14.402  0.00  0.00    +0.000 OA
BRANCH  12  14
ATOM     13  C   UNL     1       6.662   3.797  12.493  0.00  0.00    +0.000 C 
ATOM     14  C   UNL     1       6.208   3.970  13.935  0.00  0.00    +0.000 C 
ENDBRANCH  12  14
ENDBRANCH  10  12
BRANCH  10  15
ATOM     15  O   UNL     1       7.451   6.366  16.520  0.00  0.00    +0.000 OA
BRANCH  15  16
ATOM     16  C   UNL     1       7.595   6.932  17.804  0.00  0.00    +0.000 C 
ATOM     17  C   UNL     1       7.918   8.415  17.659  0.00  0.00    +0.000 C 
ENDBRANCH  15  16
ENDBRANCH  10  15
ENDBRANCH   9  10
ENDBRANCH   8   9
ENDBRANCH   7   8
ENDBRANCH   6   7
ENDBRANCH   1   6
BRANCH   3  18
ATOM     18  C   UNL     1       1.768   8.038  20.316  0.00  0.00    +0.000 C 
BRANCH  18  19
ATOM     19  O   UNL     1       1.346   8.958  19.297  0.00  0.00    +0.000 OA
BRANCH  19  20
ATOM     20  C   UNL     1       1.034  10.272  19.778  0.00  0.00    +0.000 C 
BRANCH  20  21
ATOM     21  C   UNL     1      -0.422  10.666  19.510  0.00  0.00    +0.000 C 
BRANCH  21  22
ATOM     22  N   UNL     1      -1.109  11.014  20.746  0.00  0.00    +0.000 NA
ATOM     23  C   UNL     1      -1.569  12.206  20.896  0.00  0.00    +0.000 C 
ATOM     24  C   UNL     1      -1.475  13.396  19.962  0.00  0.00    +0.000 C 
ATOM     25  C   UNL     1      -2.258  14.425  20.819  0.00  0.00    +0.000 C 
ATOM     26  C   UNL     1      -3.755  14.017  20.763  0.00  0.00    +0.000 C 
ATOM     27  C   UNL     1      -3.801  12.746  21.634  0.00  0.00    +0.000 C 
ATOM     28  C   UNL     1      -2.345  12.615  22.147  0.00  0.00    +0.000 C 
ATOM     29  C   UNL     1      -2.174  11.696  23.336  0.00  0.00    +0.000 C 
ATOM     30  C   UNL     1      -1.860  14.085  22.286  0.00  0.00    +0.000 C 
ATOM     31  C   UNL     1      -0.358  14.251  22.579  0.00  0.00    +0.000 C 
ATOM     32  C   UNL     1      -2.616  14.896  23.358  0.00  0.00    +0.000 C 
ENDBRANCH  21  22
ENDBRANCH  20  21
ENDBRANCH  19  20
ENDBRANCH  18  19
ENDBRANCH   3  18
TORSDOF 14
ENDMDL
MODEL 9
REMARK VINA RESULT:      -6.3      3.437      8.402
REMARK  Name = 
REMARK  19 active torsions:
REMARK  status: ('A' for Active; 'I' for Inactive)
REMARK    1  A    between atoms: C_1  and  C_2
REMARK    2  A    between atoms: C_2  and  O_3
REMARK    3  A    between atoms: O_3  and  P_4
REMARK    4  A    between atoms: P_4  and  C_6
REMARK    5  A    between atoms: P_4  and  O_30
REMARK    6  A    between atoms: C_6  and  C_7
REMARK    7  A    between atoms: C_7  and  C_8
REMARK    8  A    between atoms: C_8  and  C_9
REMARK    9  A    between atoms: C_9  and  N_10
REMARK   10  A    between atoms: C_12  and  C_13
REMARK   11  A    between atoms: C_13  and  O_14
REMARK   12  A    between atoms: O_14  and  C_15
REMARK   13  A    between atoms: C_15  and  C_16
REMARK   14  A    between atoms: C_16  and  N_17
REMARK   15  A    between atoms: C_23  and  C_24
REMARK   16  A    between atoms: C_25  and  C_26
REMARK   17  A    between atoms: C_25  and  C_27
REMARK   18  A    between atoms: O_30  and  C_31
REMARK   19  A    between atoms: C_31  and  C_32
REMARK                            x       y       z     vdW  Elec       q    Type
REMARK                         _______ _______ _______ _____ _____    ______ ____
ROOT
ATOM      1  N   UNL     1       1.761   5.608  20.749  0.00  0.00    +0.000 N 
ATOM      2  C   UNL     1       0.964   4.971  19.852  0.00  0.00    +0.000 A 
ATOM      3  C   UNL     1       1.145   3.639  20.138  0.00  0.00    +0.000 A 
ATOM      4  N   UNL     1       2.025   3.519  21.183  0.00  0.00    +0.000 NA
ATOM      5  N   UNL     1       2.395   4.740  21.553  0.00  0.00    +0.000 NA
ENDROOT
BRANCH   1   6
ATOM      6  C   UNL     1       1.897   7.038  20.923  0.00  0.00    +0.000 C 
BRANCH   6   7
ATOM      7  C   UNL     1       0.547   7.718  20.738  0.00  0.00    +0.000 C 
BRANCH   7   8
ATOM      8  C   UNL     1       0.509   9.132  21.303  0.00  0.00    +0.000 C 
BRANCH   8   9
ATOM      9  C   UNL     1       0.921  10.122  20.216  0.00  0.00    +0.000 C 
BRANCH   9  10
ATOM     10  P   UNL     1      -0.197  11.470  19.857  0.00  0.00    +0.000 P 
ATOM     11  O   UNL     1      -1.266  11.601  20.903  0.00  0.00    +0.000 OA
BRANCH  10  12
ATOM     12  O   UNL     1      -0.768  11.137  18.381  0.00  0.00    +0.000 OA
BRANCH  12  14
ATOM     13  C   UNL     1      -2.227  10.020  16.795  0.00  0.00    +0.000 C 
ATOM     14  C   UNL     1      -1.837  10.207  18.254  0.00  0.00    +0.000 C 
ENDBRANCH  12  14
ENDBRANCH  10  12
BRANCH  10  15
ATOM     15  O   UNL     1       0.646  12.831  19.691  0.00  0.00    +0.000 OA
BRANCH  15  16
ATOM     16  C   UNL     1       1.070  13.405  18.475  0.00  0.00    +0.000 C 
ATOM     17  C   UNL     1       2.558  13.723  18.567  0.00  0.00    +0.000 C 
ENDBRANCH  15  16
ENDBRANCH  10  15
ENDBRANCH   9  10
ENDBRANCH   8   9
ENDBRANCH   7   8
ENDBRANCH   6   7
ENDBRANCH   1   6
BRANCH   3  18
ATOM     18  C   UNL     1       0.606   2.464  19.418  0.00  0.00    +0.000 C 
BRANCH  18  19
ATOM     19  O   UNL     1       1.284   2.209  18.177  0.00  0.00    +0.000 OA
BRANCH  19  20
ATOM     20  C   UNL     1       2.563   1.578  18.320  0.00  0.00    +0.000 C 
BRANCH  20  21
ATOM     21  C   UNL     1       3.641   2.232  17.449  0.00  0.00    +0.000 C 
BRANCH  21  22
ATOM     22  N   UNL     1       4.135   3.460  18.057  0.00  0.00    +0.000 NA
ATOM     23  C   UNL     1       4.852   4.266  17.356  0.00  0.00    +0.000 C 
ATOM     24  C   UNL     1       5.336   4.123  15.926  0.00  0.00    +0.000 C 
ATOM     25  C   UNL     1       6.104   5.466  15.808  0.00  0.00    +0.000 C 
ATOM     26  C   UNL     1       5.039   6.594  15.738  0.00  0.00    +0.000 C 
ATOM     27  C   UNL     1       4.490   6.643  17.178  0.00  0.00    +0.000 C 
ATOM     28  C   UNL     1       5.352   5.593  17.922  0.00  0.00    +0.000 C 
ATOM     29  C   UNL     1       5.317   5.701  19.430  0.00  0.00    +0.000 C 
ATOM     30  C   UNL     1       6.735   5.672  17.217  0.00  0.00    +0.000 C 
ATOM     31  C   UNL     1       7.736   4.573  17.619  0.00  0.00    +0.000 C 
ATOM     32  C   UNL     1       7.457   7.022  17.403  0.00  0.00    +0.000 C 
ENDBRANCH  21  22
ENDBRANCH  20  21
ENDBRANCH  19  20
ENDBRANCH  18  19
ENDBRANCH   3  18
TORSDOF 14
ENDMDL
