MODEL 1
REMARK VINA RESULT:      -7.8      0.000      0.000
REMARK  Name = 
REMARK  3 active torsions:
REMARK  status: ('A' for Active; 'I' for Inactive)
REMARK    1  A    between atoms: C_2  and  C_3
REMARK    2  A    between atoms: N_10  and  C_11
REMARK    3  A    between atoms: C_13  and  C_14
REMARK                            x       y       z     vdW  Elec       q    Type
REMARK                         _______ _______ _______ _____ _____    ______ ____
ROOT
ATOM      1  C   UNL     1       2.586   5.316  20.232  0.00  0.00    +0.000 A 
ATOM      2  C   UNL     1       3.772   5.695  19.600  0.00  0.00    +0.000 A 
ATOM      3  C   UNL     1       4.742   4.737  19.228  0.00  0.00    +0.000 A 
ATOM      4  C   UNL     1       4.508   3.393  19.550  0.00  0.00    +0.000 A 
ATOM      5  C   UNL     1       3.301   2.987  20.099  0.00  0.00    +0.000 A 
ATOM      6  C   UNL     1       2.326   3.946  20.444  0.00  0.00    +0.000 A 
ATOM      7 CL   UNL     1       0.816   3.362  21.012  0.00  0.00    +0.000 Cl
ENDROOT
BRANCH   1  15
ATOM      8  C   UNL     1       0.766  10.945  21.054  0.00  0.00    +0.000 C 
ATOM      9  C   UNL     1      -0.124  10.771  22.293  0.00  0.00    +0.000 C 
ATOM     10  C   UNL     1       0.063   9.386  22.921  0.00  0.00    +0.000 C 
ATOM     11  C   UNL     1      -0.133   8.264  21.903  0.00  0.00    +0.000 C 
ATOM     12  N   UNL     1       0.724   8.466  20.731  0.00  0.00    +0.000 N 
ATOM     13  C   UNL     1       1.617   7.562  20.164  0.00  0.00    +0.000 C 
ATOM     14  O   UNL     1       2.298   7.862  19.188  0.00  0.00    +0.000 OA
ATOM     15  N   UNL     1       1.681   6.307  20.747  0.00  0.00    +0.000 N 
ATOM     16  C   UNL     1       0.551   9.781  20.077  0.00  0.00    +0.000 C 
ATOM     17  H   UNL     1       0.796   5.954  21.078  0.00  0.00    +0.000 HD
BRANCH   8  19
ATOM     18  N   UNL     1       0.252  13.249  19.885  0.00  0.00    +0.000 NA
ATOM     19  C   UNL     1       0.487  12.230  20.396  0.00  0.00    +0.000 C 
ENDBRANCH   8  19
ENDBRANCH   1  15
BRANCH   3  20
ATOM     20  C   UNL     1       6.057   5.170  18.661  0.00  0.00    +0.000 C 
ATOM     21  O   UNL     1       7.028   5.160  19.411  0.00  0.00    +0.000 OA
ATOM     22  N   UNL     1       6.173   5.478  17.304  0.00  0.00    +0.000 N 
ATOM     23  C   UNL     1       7.498   5.658  16.705  0.00  0.00    +0.000 C 
ATOM     24  C   UNL     1       7.546   4.954  15.343  0.00  0.00    +0.000 C 
ATOM     25  O   UNL     1       6.520   5.456  14.466  0.00  0.00    +0.000 OA
ATOM     26  C   UNL     1       5.214   5.268  15.037  0.00  0.00    +0.000 C 
ATOM     27  C   UNL     1       5.100   5.950  16.409  0.00  0.00    +0.000 C 
ENDBRANCH   3  20
TORSDOF 3
ENDMDL
MODEL 2
REMARK VINA RESULT:      -7.4      4.502      9.728
REMARK  Name = 
REMARK  3 active torsions:
REMARK  status: ('A' for Active; 'I' for Inactive)
REMARK    1  A    between atoms: C_2  and  C_3
REMARK    2  A    between atoms: N_10  and  C_11
REMARK    3  A    between atoms: C_13  and  C_14
REMARK                            x       y       z     vdW  Elec       q    Type
REMARK                         _______ _______ _______ _____ _____    ______ ____
ROOT
ATOM      1  C   UNL     1      -0.168  10.547  19.037  0.00  0.00    +0.000 A 
ATOM      2  C   UNL     1      -1.426  10.348  18.463  0.00  0.00    +0.000 A 
ATOM      3  C   UNL     1      -2.297  11.434  18.214  0.00  0.00    +0.000 A 
ATOM      4  C   UNL     1      -1.888  12.717  18.600  0.00  0.00    +0.000 A 
ATOM      5  C   UNL     1      -0.612  12.946  19.092  0.00  0.00    +0.000 A 
ATOM      6  C   UNL     1       0.263  11.861  19.313  0.00  0.00    +0.000 A 
ATOM      7 CL   UNL     1       1.862  12.230  19.813  0.00  0.00    +0.000 Cl
ENDROOT
BRANCH   1  15
ATOM      8  C   UNL     1       3.144   5.711  17.888  0.00  0.00    +0.000 C 
ATOM      9  C   UNL     1       3.055   4.987  19.239  0.00  0.00    +0.000 C 
ATOM     10  C   UNL     1       1.986   5.617  20.138  0.00  0.00    +0.000 C 
ATOM     11  C   UNL     1       2.189   7.123  20.298  0.00  0.00    +0.000 C 
ATOM     12  N   UNL     1       2.278   7.780  18.992  0.00  0.00    +0.000 N 
ATOM     13  C   UNL     1       1.541   8.869  18.536  0.00  0.00    +0.000 C 
ATOM     14  O   UNL     1       1.696   9.317  17.403  0.00  0.00    +0.000 OA
ATOM     15  N   UNL     1       0.643   9.427  19.430  0.00  0.00    +0.000 N 
ATOM     16  C   UNL     1       3.320   7.221  18.104  0.00  0.00    +0.000 C 
ATOM     17  H   UNL     1       0.958   9.436  20.388  0.00  0.00    +0.000 HD
BRANCH   8  19
ATOM     18  N   UNL     1       5.121   4.728  16.451  0.00  0.00    +0.000 NA
ATOM     19  C   UNL     1       4.252   5.171  17.086  0.00  0.00    +0.000 C 
ENDBRANCH   8  19
ENDBRANCH   1  15
BRANCH   3  20
ATOM     20  C   UNL     1      -3.685  11.191  17.712  0.00  0.00    +0.000 C 
ATOM     21  O   UNL     1      -3.807  10.595  16.646  0.00  0.00    +0.000 OA
ATOM     22  N   UNL     1      -4.788  11.552  18.488  0.00  0.00    +0.000 N 
ATOM     23  C   UNL     1      -6.128  11.093  18.113  0.00  0.00    +0.000 C 
ATOM     24  C   UNL     1      -6.882  10.630  19.367  0.00  0.00    +0.000 C 
ATOM     25  O   UNL     1      -6.962  11.687  20.341  0.00  0.00    +0.000 OA
ATOM     26  C   UNL     1      -5.651  12.132  20.729  0.00  0.00    +0.000 C 
ATOM     27  C   UNL     1      -4.840  12.609  19.515  0.00  0.00    +0.000 C 
ENDBRANCH   3  20
TORSDOF 3
ENDMDL
MODEL 3
REMARK VINA RESULT:      -7.3      3.155      4.892
REMARK  Name = 
REMARK  3 active torsions:
REMARK  status: ('A' for Active; 'I' for Inactive)
REMARK    1  A    between atoms: C_2  and  C_3
REMARK    2  A    between atoms: N_10  and  C_11
REMARK    3  A    between atoms: C_13  and  C_14
REMARK                            x       y       z     vdW  Elec       q    Type
REMARK                         _______ _______ _______ _____ _____    ______ ____
ROOT
ATOM      1  C   UNL     1       0.985   9.477  19.444  0.00  0.00    +0.000 A 
ATOM      2  C   UNL     1       1.730   8.715  18.540  0.00  0.00    +0.000 A 
ATOM      3  C   UNL     1       2.302   7.480  18.921  0.00  0.00    +0.000 A 
ATOM      4  C   UNL     1       2.145   7.054  20.246  0.00  0.00    +0.000 A 
ATOM      5  C   UNL     1       1.339   7.752  21.133  0.00  0.00    +0.000 A 
ATOM      6  C   UNL     1       0.749   8.971  20.739  0.00  0.00    +0.000 A 
ATOM      7 CL   UNL     1      -0.325   9.720  21.848  0.00  0.00    +0.000 Cl
ENDROOT
BRANCH   1  15
ATOM      8  C   UNL     1       1.809  15.351  18.746  0.00  0.00    +0.000 C 
ATOM      9  C   UNL     1       0.358  15.846  18.822  0.00  0.00    +0.000 C 
ATOM     10  C   UNL     1      -0.582  14.739  19.309  0.00  0.00    +0.000 C 
ATOM     11  C   UNL     1      -0.445  13.464  18.478  0.00  0.00    +0.000 C 
ATOM     12  N   UNL     1       0.953  13.026  18.421  0.00  0.00    +0.000 N 
ATOM     13  C   UNL     1       1.463  11.768  18.729  0.00  0.00    +0.000 C 
ATOM     14  O   UNL     1       2.666  11.531  18.661  0.00  0.00    +0.000 OA
ATOM     15  N   UNL     1       0.543  10.800  19.097  0.00  0.00    +0.000 N 
ATOM     16  C   UNL     1       1.889  14.057  17.925  0.00  0.00    +0.000 C 
ATOM     17  H   UNL     1      -0.334  10.847  18.601  0.00  0.00    +0.000 HD
BRANCH   8  19
ATOM     18  N   UNL     1       3.373  17.193  17.696  0.00  0.00    +0.000 NA
ATOM     19  C   UNL     1       2.677  16.387  18.165  0.00  0.00    +0.000 C 
ENDBRANCH   8  19
ENDBRANCH   1  15
BRANCH   3  20
ATOM     20  C   UNL     1       3.196   6.737  17.979  0.00  0.00    +0.000 C 
ATOM     21  O   UNL     1       4.165   7.336  17.524  0.00  0.00    +0.000 OA
ATOM     22  N   UNL     1       2.972   5.384  17.715  0.00  0.00    +0.000 N 
ATOM     23  C   UNL     1       3.982   4.602  16.998  0.00  0.00    +0.000 C 
ATOM     24  C   UNL     1       4.146   3.233  17.672  0.00  0.00    +0.000 C 
ATOM     25  O   UNL     1       2.893   2.525  17.715  0.00  0.00    +0.000 OA
ATOM     26  C   UNL     1       1.899   3.277  18.433  0.00  0.00    +0.000 C 
ATOM     27  C   UNL     1       1.688   4.665  17.808  0.00  0.00    +0.000 C 
ENDBRANCH   3  20
TORSDOF 3
ENDMDL
MODEL 4
REMARK VINA RESULT:      -7.2      4.036      9.119
REMARK  Name = 
REMARK  3 active torsions:
REMARK  status: ('A' for Active; 'I' for Inactive)
REMARK    1  A    between atoms: C_2  and  C_3
REMARK    2  A    between atoms: N_10  and  C_11
REMARK    3  A    between atoms: C_13  and  C_14
REMARK                            x       y       z     vdW  Elec       q    Type
REMARK                         _______ _______ _______ _____ _____    ______ ____
ROOT
ATOM      1  C   UNL     1       0.500  10.980  19.141  0.00  0.00    +0.000 A 
ATOM      2  C   UNL     1       1.266  12.144  19.232  0.00  0.00    +0.000 A 
ATOM      3  C   UNL     1       0.813  13.363  18.679  0.00  0.00    +0.000 A 
ATOM      4  C   UNL     1      -0.408  13.370  17.992  0.00  0.00    +0.000 A 
ATOM      5  C   UNL     1      -1.222  12.247  17.964  0.00  0.00    +0.000 A 
ATOM      6  C   UNL     1      -0.776  11.040  18.541  0.00  0.00    +0.000 A 
ATOM      7 CL   UNL     1      -1.880   9.727  18.571  0.00  0.00    +0.000 Cl
ENDROOT
BRANCH   1  15
ATOM      8  C   UNL     1       2.531   5.454  18.133  0.00  0.00    +0.000 C 
ATOM      9  C   UNL     1       2.319   4.824  19.517  0.00  0.00    +0.000 C 
ATOM     10  C   UNL     1       1.463   5.725  20.412  0.00  0.00    +0.000 C 
ATOM     11  C   UNL     1       2.022   7.144  20.499  0.00  0.00    +0.000 C 
ATOM     12  N   UNL     1       2.218   7.711  19.162  0.00  0.00    +0.000 N 
ATOM     13  C   UNL     1       1.744   8.926  18.675  0.00  0.00    +0.000 C 
ATOM     14  O   UNL     1       1.961   9.280  17.519  0.00  0.00    +0.000 OA
ATOM     15  N   UNL     1       1.036   9.715  19.565  0.00  0.00    +0.000 N 
ATOM     16  C   UNL     1       3.066   6.886  18.276  0.00  0.00    +0.000 C 
ATOM     17  H   UNL     1       1.377   9.686  20.513  0.00  0.00    +0.000 HD
BRANCH   8  19
ATOM     18  N   UNL     1       4.182   3.978  16.706  0.00  0.00    +0.000 NA
ATOM     19  C   UNL     1       3.451   4.636  17.329  0.00  0.00    +0.000 C 
ENDBRANCH   8  19
ENDBRANCH   1  15
BRANCH   3  20
ATOM     20  C   UNL     1       1.697  14.570  18.679  0.00  0.00    +0.000 C 
ATOM     21  O   UNL     1       2.906  14.389  18.570  0.00  0.00    +0.000 OA
ATOM     22  N   UNL     1       1.141  15.851  18.706  0.00  0.00    +0.000 N 
ATOM     23  C   UNL     1       1.988  17.021  18.456  0.00  0.00    +0.000 C 
ATOM     24  C   UNL     1       1.251  17.999  17.532  0.00  0.00    +0.000 C 
ATOM     25  O   UNL     1      -0.010  18.398  18.101  0.00  0.00    +0.000 OA
ATOM     26  C   UNL     1      -0.855  17.258  18.334  0.00  0.00    +0.000 C 
ATOM     27  C   UNL     1      -0.173  16.234  19.254  0.00  0.00    +0.000 C 
ENDBRANCH   3  20
TORSDOF 3
ENDMDL
MODEL 5
REMARK VINA RESULT:      -7.0      3.098      4.963
REMARK  Name = 
REMARK  3 active torsions:
REMARK  status: ('A' for Active; 'I' for Inactive)
REMARK    1  A    between atoms: C_2  and  C_3
REMARK    2  A    between atoms: N_10  and  C_11
REMARK    3  A    between atoms: C_13  and  C_14
REMARK                            x       y       z     vdW  Elec       q    Type
REMARK                         _______ _______ _______ _____ _____    ______ ____
ROOT
ATOM      1  C   UNL     1       1.602   9.454  19.784  0.00  0.00    +0.000 A 
ATOM      2  C   UNL     1       1.710   8.188  20.367  0.00  0.00    +0.000 A 
ATOM      3  C   UNL     1       2.077   7.059  19.599  0.00  0.00    +0.000 A 
ATOM      4  C   UNL     1       2.286   7.227  18.224  0.00  0.00    +0.000 A 
ATOM      5  C   UNL     1       2.266   8.487  17.645  0.00  0.00    +0.000 A 
ATOM      6  C   UNL     1       1.925   9.614  18.421  0.00  0.00    +0.000 A 
ATOM      7 CL   UNL     1       2.033  11.151  17.666  0.00  0.00    +0.000 Cl
ENDROOT
BRANCH   1  15
ATOM      8  C   UNL     1      -2.721  12.277  22.788  0.00  0.00    +0.000 C 
ATOM      9  C   UNL     1      -2.233  13.728  22.678  0.00  0.00    +0.000 C 
ATOM     10  C   UNL     1      -1.092  13.856  21.663  0.00  0.00    +0.000 C 
ATOM     11  C   UNL     1       0.047  12.880  21.956  0.00  0.00    +0.000 C 
ATOM     12  N   UNL     1      -0.456  11.507  22.063  0.00  0.00    +0.000 N 
ATOM     13  C   UNL     1      -0.002  10.380  21.384  0.00  0.00    +0.000 C 
ATOM     14  O   UNL     1      -0.525   9.281  21.546  0.00  0.00    +0.000 OA
ATOM     15  N   UNL     1       1.077  10.562  20.534  0.00  0.00    +0.000 N 
ATOM     16  C   UNL     1      -1.538  11.336  23.055  0.00  0.00    +0.000 C 
ATOM     17  H   UNL     1       1.762  11.224  20.865  0.00  0.00    +0.000 HD
BRANCH   8  19
ATOM     18  N   UNL     1      -4.541  12.065  24.681  0.00  0.00    +0.000 NA
ATOM     19  C   UNL     1      -3.731  12.152  23.849  0.00  0.00    +0.000 C 
ENDBRANCH   8  19
ENDBRANCH   1  15
BRANCH   3  20
ATOM     20  C   UNL     1       2.072   5.694  20.211  0.00  0.00    +0.000 C 
ATOM     21  O   UNL     1       1.062   5.347  20.816  0.00  0.00    +0.000 OA
ATOM     22  N   UNL     1       3.147   4.826  20.008  0.00  0.00    +0.000 N 
ATOM     23  C   UNL     1       3.033   3.417  20.392  0.00  0.00    +0.000 C 
ATOM     24  C   UNL     1       3.635   2.534  19.291  0.00  0.00    +0.000 C 
ATOM     25  O   UNL     1       5.011   2.883  19.044  0.00  0.00    +0.000 OA
ATOM     26  C   UNL     1       5.132   4.260  18.649  0.00  0.00    +0.000 C 
ATOM     27  C   UNL     1       4.542   5.201  19.711  0.00  0.00    +0.000 C 
ENDBRANCH   3  20
TORSDOF 3
ENDMDL
MODEL 6
REMARK VINA RESULT:      -7.0      3.724      9.649
REMARK  Name = 
REMARK  3 active torsions:
REMARK  status: ('A' for Active; 'I' for Inactive)
REMARK    1  A    between atoms: C_2  and  C_3
REMARK    2  A    between atoms: N_10  and  C_11
REMARK    3  A    between atoms: C_13  and  C_14
REMARK                            x       y       z     vdW  Elec       q    Type
REMARK                         _______ _______ _______ _____ _____    ______ ____
ROOT
ATOM      1  C   UNL     1      -0.028  10.200  19.785  0.00  0.00    +0.000 A 
ATOM      2  C   UNL     1       0.038  11.017  20.916  0.00  0.00    +0.000 A 
ATOM      3  C   UNL     1      -0.614  12.271  20.952  0.00  0.00    +0.000 A 
ATOM      4  C   UNL     1      -1.295  12.700  19.805  0.00  0.00    +0.000 A 
ATOM      5  C   UNL     1      -1.444  11.868  18.705  0.00  0.00    +0.000 A 
ATOM      6  C   UNL     1      -0.812  10.607  18.686  0.00  0.00    +0.000 A 
ATOM      7 CL   UNL     1      -1.134   9.587  17.344  0.00  0.00    +0.000 Cl
ENDROOT
BRANCH   1  15
ATOM      8  C   UNL     1       3.723   6.494  16.981  0.00  0.00    +0.000 C 
ATOM      9  C   UNL     1       3.436   5.187  17.732  0.00  0.00    +0.000 C 
ATOM     10  C   UNL     1       2.187   5.314  18.610  0.00  0.00    +0.000 C 
ATOM     11  C   UNL     1       2.265   6.518  19.547  0.00  0.00    +0.000 C 
ATOM     12  N   UNL     1       2.549   7.745  18.798  0.00  0.00    +0.000 N 
ATOM     13  C   UNL     1       1.841   8.944  18.830  0.00  0.00    +0.000 C 
ATOM     14  O   UNL     1       2.171   9.900  18.133  0.00  0.00    +0.000 OA
ATOM     15  N   UNL     1       0.765   9.004  19.699  0.00  0.00    +0.000 N 
ATOM     16  C   UNL     1       3.765   7.674  17.961  0.00  0.00    +0.000 C 
ATOM     17  H   UNL     1       0.901   8.511  20.568  0.00  0.00    +0.000 HD
BRANCH   8  19
ATOM     18  N   UNL     1       5.999   6.316  15.664  0.00  0.00    +0.000 NA
ATOM     19  C   UNL     1       4.988   6.394  16.237  0.00  0.00    +0.000 C 
ENDBRANCH   8  19
ENDBRANCH   1  15
BRANCH   3  20
ATOM     20  C   UNL     1      -0.434  13.185  22.122  0.00  0.00    +0.000 C 
ATOM     21  O   UNL     1       0.609  13.828  22.185  0.00  0.00    +0.000 OA
ATOM     22  N   UNL     1      -1.467  13.358  23.046  0.00  0.00    +0.000 N 
ATOM     23  C   UNL     1      -1.386  14.431  24.041  0.00  0.00    +0.000 C 
ATOM     24  C   UNL     1      -2.748  15.126  24.160  0.00  0.00    +0.000 C 
ATOM     25  O   UNL     1      -3.779  14.184  24.513  0.00  0.00    +0.000 OA
ATOM     26  C   UNL     1      -3.879  13.136  23.533  0.00  0.00    +0.000 C 
ATOM     27  C   UNL     1      -2.541  12.400  23.363  0.00  0.00    +0.000 C 
ENDBRANCH   3  20
TORSDOF 3
ENDMDL
MODEL 7
REMARK VINA RESULT:      -7.0      3.673      8.385
REMARK  Name = 
REMARK  3 active torsions:
REMARK  status: ('A' for Active; 'I' for Inactive)
REMARK    1  A    between atoms: C_2  and  C_3
REMARK    2  A    between atoms: N_10  and  C_11
REMARK    3  A    between atoms: C_13  and  C_14
REMARK                            x       y       z     vdW  Elec       q    Type
REMARK                         _______ _______ _______ _____ _____    ______ ____
ROOT
ATOM      1  C   UNL     1       0.346  11.011  19.524  0.00  0.00    +0.000 A 
ATOM      2  C   UNL     1       0.929  12.170  20.043  0.00  0.00    +0.000 A 
ATOM      3  C   UNL     1       0.542  13.450  19.587  0.00  0.00    +0.000 A 
ATOM      4  C   UNL     1      -0.413  13.533  18.564  0.00  0.00    +0.000 A 
ATOM      5  C   UNL     1      -1.064  12.401  18.098  0.00  0.00    +0.000 A 
ATOM      6  C   UNL     1      -0.692  11.128  18.576  0.00  0.00    +0.000 A 
ATOM      7 CL   UNL     1      -1.617   9.785  18.040  0.00  0.00    +0.000 Cl
ENDROOT
BRANCH   1  15
ATOM      8  C   UNL     1       2.525   5.610  18.203  0.00  0.00    +0.000 C 
ATOM      9  C   UNL     1       2.194   4.853  19.496  0.00  0.00    +0.000 C 
ATOM     10  C   UNL     1       1.248   5.663  20.388  0.00  0.00    +0.000 C 
ATOM     11  C   UNL     1       1.780   7.070  20.657  0.00  0.00    +0.000 C 
ATOM     12  N   UNL     1       2.093   7.759  19.403  0.00  0.00    +0.000 N 
ATOM     13  C   UNL     1       1.652   9.013  18.988  0.00  0.00    +0.000 C 
ATOM     14  O   UNL     1       1.971   9.474  17.895  0.00  0.00    +0.000 OA
ATOM     15  N   UNL     1       0.855   9.714  19.878  0.00  0.00    +0.000 N 
ATOM     16  C   UNL     1       3.028   7.023  18.526  0.00  0.00    +0.000 C 
ATOM     17  H   UNL     1       1.108   9.598  20.847  0.00  0.00    +0.000 HD
BRANCH   8  19
ATOM     18  N   UNL     1       4.327   4.302  16.794  0.00  0.00    +0.000 NA
ATOM     19  C   UNL     1       3.525   4.872  17.415  0.00  0.00    +0.000 C 
ENDBRANCH   8  19
ENDBRANCH   1  15
BRANCH   3  20
ATOM     20  C   UNL     1       1.260  14.673  20.064  0.00  0.00    +0.000 C 
ATOM     21  O   UNL     1       0.796  15.261  21.036  0.00  0.00    +0.000 OA
ATOM     22  N   UNL     1       2.464  15.059  19.472  0.00  0.00    +0.000 N 
ATOM     23  C   UNL     1       3.286  16.099  20.096  0.00  0.00    +0.000 C 
ATOM     24  C   UNL     1       4.761  15.680  20.058  0.00  0.00    +0.000 C 
ATOM     25  O   UNL     1       5.194  15.435  18.707  0.00  0.00    +0.000 OA
ATOM     26  C   UNL     1       4.405  14.403  18.091  0.00  0.00    +0.000 C 
ATOM     27  C   UNL     1       2.911  14.761  18.099  0.00  0.00    +0.000 C 
ENDBRANCH   3  20
TORSDOF 3
ENDMDL
MODEL 8
REMARK VINA RESULT:      -6.9      3.271      8.158
REMARK  Name = 
REMARK  3 active torsions:
REMARK  status: ('A' for Active; 'I' for Inactive)
REMARK    1  A    between atoms: C_2  and  C_3
REMARK    2  A    between atoms: N_10  and  C_11
REMARK    3  A    between atoms: C_13  and  C_14
REMARK                            x       y       z     vdW  Elec       q    Type
REMARK                         _______ _______ _______ _____ _____    ______ ____
ROOT
ATOM      1  C   UNL     1       0.269   9.351  20.944  0.00  0.00    +0.000 A 
ATOM      2  C   UNL     1      -0.035  10.010  19.750  0.00  0.00    +0.000 A 
ATOM      3  C   UNL     1      -0.692  11.262  19.753  0.00  0.00    +0.000 A 
ATOM      4  C   UNL     1      -1.076  11.811  20.983  0.00  0.00    +0.000 A 
ATOM      5  C   UNL     1      -0.709  11.214  22.180  0.00  0.00    +0.000 A 
ATOM      6  C   UNL     1      -0.030   9.978  22.172  0.00  0.00    +0.000 A 
ATOM      7 CL   UNL     1       0.494   9.358  23.684  0.00  0.00    +0.000 Cl
ENDROOT
BRANCH   1  15
ATOM      8  C   UNL     1       2.819   4.665  18.260  0.00  0.00    +0.000 C 
ATOM      9  C   UNL     1       2.380   3.534  19.200  0.00  0.00    +0.000 C 
ATOM     10  C   UNL     1       1.305   4.012  20.181  0.00  0.00    +0.000 C 
ATOM     11  C   UNL     1       1.741   5.264  20.941  0.00  0.00    +0.000 C 
ATOM     12  N   UNL     1       2.161   6.319  20.015  0.00  0.00    +0.000 N 
ATOM     13  C   UNL     1       1.714   7.636  19.966  0.00  0.00    +0.000 C 
ATOM     14  O   UNL     1       2.132   8.423  19.121  0.00  0.00    +0.000 OA
ATOM     15  N   UNL     1       0.792   8.012  20.929  0.00  0.00    +0.000 N 
ATOM     16  C   UNL     1       3.220   5.905  19.070  0.00  0.00    +0.000 C 
ATOM     17  H   UNL     1       0.940   7.596  21.835  0.00  0.00    +0.000 HD
BRANCH   8  19
ATOM     18  N   UNL     1       4.802   3.867  16.718  0.00  0.00    +0.000 NA
ATOM     19  C   UNL     1       3.932   4.223  17.406  0.00  0.00    +0.000 C 
ENDBRANCH   8  19
ENDBRANCH   1  15
BRANCH   3  20
ATOM     20  C   UNL     1      -1.117  11.896  18.466  0.00  0.00    +0.000 C 
ATOM     21  O   UNL     1      -0.463  12.851  18.060  0.00  0.00    +0.000 OA
ATOM     22  N   UNL     1      -2.163  11.346  17.721  0.00  0.00    +0.000 N 
ATOM     23  C   UNL     1      -2.411  11.812  16.355  0.00  0.00    +0.000 C 
ATOM     24  C   UNL     1      -2.698  10.610  15.446  0.00  0.00    +0.000 C 
ATOM     25  O   UNL     1      -3.819   9.849  15.934  0.00  0.00    +0.000 OA
ATOM     26  C   UNL     1      -3.578   9.371  17.269  0.00  0.00    +0.000 C 
ATOM     27  C   UNL     1      -3.280  10.531  18.232  0.00  0.00    +0.000 C 
ENDBRANCH   3  20
TORSDOF 3
ENDMDL
MODEL 9
REMARK VINA RESULT:      -6.9      3.762      9.122
REMARK  Name = 
REMARK  3 active torsions:
REMARK  status: ('A' for Active; 'I' for Inactive)
REMARK    1  A    between atoms: C_2  and  C_3
REMARK    2  A    between atoms: N_10  and  C_11
REMARK    3  A    between atoms: C_13  and  C_14
REMARK                            x       y       z     vdW  Elec       q    Type
REMARK                         _______ _______ _______ _____ _____    ______ ____
ROOT
ATOM      1  C   UNL     1       0.550  10.980  19.276  0.00  0.00    +0.000 A 
ATOM      2  C   UNL     1       1.313  12.131  19.489  0.00  0.00    +0.000 A 
ATOM      3  C   UNL     1       0.906  13.383  18.974  0.00  0.00    +0.000 A 
ATOM      4  C   UNL     1      -0.262  13.438  18.201  0.00  0.00    +0.000 A 
ATOM      5  C   UNL     1      -1.075  12.325  18.050  0.00  0.00    +0.000 A 
ATOM      6  C   UNL     1      -0.677  11.084  18.589  0.00  0.00    +0.000 A 
ATOM      7 CL   UNL     1      -1.786   9.780  18.463  0.00  0.00    +0.000 Cl
ENDROOT
BRANCH   1  15
ATOM      8  C   UNL     1       2.509   5.459  18.112  0.00  0.00    +0.000 C 
ATOM      9  C   UNL     1       2.242   4.779  19.462  0.00  0.00    +0.000 C 
ATOM     10  C   UNL     1       1.375   5.660  20.366  0.00  0.00    +0.000 C 
ATOM     11  C   UNL     1       1.957   7.064  20.527  0.00  0.00    +0.000 C 
ATOM     12  N   UNL     1       2.206   7.679  19.220  0.00  0.00    +0.000 N 
ATOM     13  C   UNL     1       1.771   8.921  18.767  0.00  0.00    +0.000 C 
ATOM     14  O   UNL     1       2.031   9.316  17.634  0.00  0.00    +0.000 OA
ATOM     15  N   UNL     1       1.049   9.689  19.666  0.00  0.00    +0.000 N 
ATOM     16  C   UNL     1       3.066   6.872  18.328  0.00  0.00    +0.000 C 
ATOM     17  H   UNL     1       1.360   9.616  20.622  0.00  0.00    +0.000 HD
BRANCH   8  19
ATOM     18  N   UNL     1       4.185   4.017  16.679  0.00  0.00    +0.000 NA
ATOM     19  C   UNL     1       3.438   4.654  17.304  0.00  0.00    +0.000 C 
ENDBRANCH   8  19
ENDBRANCH   1  15
BRANCH   3  20
ATOM     20  C   UNL     1       1.792  14.581  19.108  0.00  0.00    +0.000 C 
ATOM     21  O   UNL     1       2.489  14.882  18.144  0.00  0.00    +0.000 OA
ATOM     22  N   UNL     1       1.742  15.369  20.260  0.00  0.00    +0.000 N 
ATOM     23  C   UNL     1       2.419  16.668  20.286  0.00  0.00    +0.000 C 
ATOM     24  C   UNL     1       1.512  17.706  20.959  0.00  0.00    +0.000 C 
ATOM     25  O   UNL     1       1.153  17.294  22.291  0.00  0.00    +0.000 OA
ATOM     26  C   UNL     1       0.472  16.027  22.274  0.00  0.00    +0.000 C 
ATOM     27  C   UNL     1       1.329  14.940  21.608  0.00  0.00    +0.000 C 
ENDBRANCH   3  20
TORSDOF 3
ENDMDL
