MODEL 1
REMARK VINA RESULT:      -9.0      0.000      0.000
REMARK  Name = 
REMARK  4 active torsions:
REMARK  status: ('A' for Active; 'I' for Inactive)
REMARK    1  A    between atoms: C_6  and  S_7
REMARK    2  A    between atoms: S_7  and  N_10
REMARK    3  A    between atoms: N_10  and  C_11
REMARK    4  A    between atoms: C_15  and  N_16
REMARK                            x       y       z     vdW  Elec       q    Type
REMARK                         _______ _______ _______ _____ _____    ______ ____
ROOT
ATOM      1  S   UNL     1       5.862   6.318  16.148  0.00  0.00    +0.000 S 
ATOM      2  O   UNL     1       5.273   6.898  14.960  0.00  0.00    +0.000 OA
ATOM      3  O   UNL     1       6.624   7.130  17.078  0.00  0.00    +0.000 OA
ENDROOT
BRANCH   1   9
ATOM      4  O   UNL     1       0.657   1.604  19.054  0.00  0.00    +0.000 OA
ATOM      5  C   UNL     1       1.443   2.466  18.710  0.00  0.00    +0.000 C 
ATOM      6  C   UNL     1       2.478   2.348  17.568  0.00  0.00    +0.000 C 
ATOM      7  C   UNL     1       3.132   3.700  17.575  0.00  0.00    +0.000 A 
ATOM      8  C   UNL     1       4.149   4.229  16.805  0.00  0.00    +0.000 A 
ATOM      9  C   UNL     1       4.550   5.551  17.086  0.00  0.00    +0.000 A 
ATOM     10  C   UNL     1       3.921   6.325  18.094  0.00  0.00    +0.000 A 
ATOM     11  C   UNL     1       2.911   5.766  18.876  0.00  0.00    +0.000 A 
ATOM     12  C   UNL     1       2.553   4.466  18.576  0.00  0.00    +0.000 A 
ATOM     13  N   UNL     1       1.590   3.736  19.256  0.00  0.00    +0.000 N 
ATOM     14  C   UNL     1       0.835   4.340  20.333  0.00  0.00    +0.000 C 
ATOM     15  C   UNL     1       1.635   5.464  21.007  0.00  0.00    +0.000 C 
ATOM     16  C   UNL     1       2.178   6.476  19.978  0.00  0.00    +0.000 C 
ENDBRANCH   1   9
BRANCH   1  17
ATOM     17  N   UNL     1       6.853   5.016  15.690  0.00  0.00    +0.000 N 
ATOM     18  H   UNL     1       6.722   4.204  16.295  0.00  0.00    +0.000 HD
BRANCH  17  19
ATOM     19  C   UNL     1       6.981   4.748  14.296  0.00  0.00    +0.000 A 
ATOM     20  C   UNL     1       7.871   5.491  13.515  0.00  0.00    +0.000 A 
ATOM     21  C   UNL     1       7.966   5.250  12.140  0.00  0.00    +0.000 A 
ATOM     22  C   UNL     1       7.140   4.300  11.538  0.00  0.00    +0.000 A 
ATOM     23  C   UNL     1       6.219   3.596  12.323  0.00  0.00    +0.000 A 
ATOM     24  C   UNL     1       6.152   3.799  13.705  0.00  0.00    +0.000 A 
BRANCH  23  25
ATOM     25  N   UNL     1       5.282   2.662  11.690  0.00  0.00    +0.000 N 
ATOM     26  O   UNL     1       4.131   3.068  11.463  0.00  0.00    +0.000 OA
ATOM     27  O   UNL     1       5.690   1.523  11.434  0.00  0.00    +0.000 OA
ENDBRANCH  23  25
ENDBRANCH  17  19
ENDBRANCH   1  17
TORSDOF 4
ENDMDL
MODEL 2
REMARK VINA RESULT:      -8.4      1.247      1.262
REMARK  Name = 
REMARK  4 active torsions:
REMARK  status: ('A' for Active; 'I' for Inactive)
REMARK    1  A    between atoms: C_6  and  S_7
REMARK    2  A    between atoms: S_7  and  N_10
REMARK    3  A    between atoms: N_10  and  C_11
REMARK    4  A    between atoms: C_15  and  N_16
REMARK                            x       y       z     vdW  Elec       q    Type
REMARK                         _______ _______ _______ _____ _____    ______ ____
ROOT
ATOM      1  S   UNL     1       6.259   6.242  16.263  0.00  0.00    +0.000 S 
ATOM      2  O   UNL     1       5.470   6.810  15.190  0.00  0.00    +0.000 OA
ATOM      3  O   UNL     1       7.270   7.027  16.945  0.00  0.00    +0.000 OA
ENDROOT
BRANCH   1   9
ATOM      4  O   UNL     1       2.539   2.254  21.556  0.00  0.00    +0.000 OA
ATOM      5  C   UNL     1       3.027   3.017  20.745  0.00  0.00    +0.000 C 
ATOM      6  C   UNL     1       4.259   2.732  19.857  0.00  0.00    +0.000 C 
ATOM      7  C   UNL     1       4.380   3.990  19.046  0.00  0.00    +0.000 A 
ATOM      8  C   UNL     1       5.287   4.373  18.079  0.00  0.00    +0.000 A 
ATOM      9  C   UNL     1       5.129   5.656  17.516  0.00  0.00    +0.000 A 
ATOM     10  C   UNL     1       4.065   6.513  17.897  0.00  0.00    +0.000 A 
ATOM     11  C   UNL     1       3.171   6.117  18.891  0.00  0.00    +0.000 A 
ATOM     12  C   UNL     1       3.366   4.859  19.425  0.00  0.00    +0.000 A 
ATOM     13  N   UNL     1       2.597   4.302  20.435  0.00  0.00    +0.000 N 
ATOM     14  C   UNL     1       1.463   5.021  20.976  0.00  0.00    +0.000 C 
ATOM     15  C   UNL     1       1.651   6.539  20.834  0.00  0.00    +0.000 C 
ATOM     16  C   UNL     1       2.015   6.936  19.389  0.00  0.00    +0.000 C 
ENDBRANCH   1   9
BRANCH   1  17
ATOM     17  N   UNL     1       7.015   4.828  15.701  0.00  0.00    +0.000 N 
ATOM     18  H   UNL     1       6.763   4.012  16.259  0.00  0.00    +0.000 HD
BRANCH  17  19
ATOM     19  C   UNL     1       7.073   4.632  14.291  0.00  0.00    +0.000 A 
ATOM     20  C   UNL     1       7.903   5.433  13.501  0.00  0.00    +0.000 A 
ATOM     21  C   UNL     1       7.929   5.262  12.113  0.00  0.00    +0.000 A 
ATOM     22  C   UNL     1       7.092   4.324  11.509  0.00  0.00    +0.000 A 
ATOM     23  C   UNL     1       6.230   3.560  12.305  0.00  0.00    +0.000 A 
ATOM     24  C   UNL     1       6.233   3.694  13.697  0.00  0.00    +0.000 A 
BRANCH  23  25
ATOM     25  N   UNL     1       5.280   2.636  11.677  0.00  0.00    +0.000 N 
ATOM     26  O   UNL     1       4.137   3.060  11.440  0.00  0.00    +0.000 OA
ATOM     27  O   UNL     1       5.670   1.488  11.433  0.00  0.00    +0.000 OA
ENDBRANCH  23  25
ENDBRANCH  17  19
ENDBRANCH   1  17
TORSDOF 4
ENDMDL
MODEL 3
REMARK VINA RESULT:      -8.3      3.798      6.146
REMARK  Name = 
REMARK  4 active torsions:
REMARK  status: ('A' for Active; 'I' for Inactive)
REMARK    1  A    between atoms: C_6  and  S_7
REMARK    2  A    between atoms: S_7  and  N_10
REMARK    3  A    between atoms: N_10  and  C_11
REMARK    4  A    between atoms: C_15  and  N_16
REMARK                            x       y       z     vdW  Elec       q    Type
REMARK                         _______ _______ _______ _____ _____    ______ ____
ROOT
ATOM      1  S   UNL     1       2.798   5.089  19.201  0.00  0.00    +0.000 S 
ATOM      2  O   UNL     1       4.067   4.941  19.882  0.00  0.00    +0.000 OA
ATOM      3  O   UNL     1       1.712   4.155  19.430  0.00  0.00    +0.000 OA
ENDROOT
BRANCH   1   9
ATOM      4  O   UNL     1      -0.194  11.265  22.467  0.00  0.00    +0.000 OA
ATOM      5  C   UNL     1       0.313  10.375  21.812  0.00  0.00    +0.000 C 
ATOM      6  C   UNL     1       0.574   8.929  22.289  0.00  0.00    +0.000 C 
ATOM      7  C   UNL     1       1.172   8.282  21.074  0.00  0.00    +0.000 A 
ATOM      8  C   UNL     1       1.636   7.001  20.853  0.00  0.00    +0.000 A 
ATOM      9  C   UNL     1       2.166   6.717  19.578  0.00  0.00    +0.000 A 
ATOM     10  C   UNL     1       2.197   7.691  18.547  0.00  0.00    +0.000 A 
ATOM     11  C   UNL     1       1.744   8.986  18.796  0.00  0.00    +0.000 A 
ATOM     12  C   UNL     1       1.241   9.227  20.059  0.00  0.00    +0.000 A 
ATOM     13  N   UNL     1       0.768  10.453  20.500  0.00  0.00    +0.000 N 
ATOM     14  C   UNL     1       0.724  11.588  19.603  0.00  0.00    +0.000 C 
ATOM     15  C   UNL     1       1.795  11.471  18.509  0.00  0.00    +0.000 C 
ATOM     16  C   UNL     1       1.735  10.106  17.795  0.00  0.00    +0.000 C 
ENDBRANCH   1   9
BRANCH   1  17
ATOM     17  N   UNL     1       3.075   5.136  17.525  0.00  0.00    +0.000 N 
ATOM     18  H   UNL     1       2.454   5.795  17.053  0.00  0.00    +0.000 HD
BRANCH  17  19
ATOM     19  C   UNL     1       4.430   5.123  17.084  0.00  0.00    +0.000 A 
ATOM     20  C   UNL     1       4.899   4.079  16.281  0.00  0.00    +0.000 A 
ATOM     21  C   UNL     1       6.239   4.050  15.881  0.00  0.00    +0.000 A 
ATOM     22  C   UNL     1       7.122   5.037  16.322  0.00  0.00    +0.000 A 
ATOM     23  C   UNL     1       6.652   6.050  17.165  0.00  0.00    +0.000 A 
ATOM     24  C   UNL     1       5.303   6.111  17.531  0.00  0.00    +0.000 A 
BRANCH  23  25
ATOM     25  N   UNL     1       7.586   7.040  17.710  0.00  0.00    +0.000 N 
ATOM     26  O   UNL     1       7.743   8.095  17.072  0.00  0.00    +0.000 OA
ATOM     27  O   UNL     1       8.172   6.761  18.763  0.00  0.00    +0.000 OA
ENDBRANCH  23  25
ENDBRANCH  17  19
ENDBRANCH   1  17
TORSDOF 4
ENDMDL
MODEL 4
REMARK VINA RESULT:      -8.2      3.819      6.152
REMARK  Name = 
REMARK  4 active torsions:
REMARK  status: ('A' for Active; 'I' for Inactive)
REMARK    1  A    between atoms: C_6  and  S_7
REMARK    2  A    between atoms: S_7  and  N_10
REMARK    3  A    between atoms: N_10  and  C_11
REMARK    4  A    between atoms: C_15  and  N_16
REMARK                            x       y       z     vdW  Elec       q    Type
REMARK                         _______ _______ _______ _____ _____    ______ ____
ROOT
ATOM      1  S   UNL     1       2.721   5.257  19.243  0.00  0.00    +0.000 S 
ATOM      2  O   UNL     1       3.982   5.113  19.939  0.00  0.00    +0.000 OA
ATOM      3  O   UNL     1       1.605   4.374  19.525  0.00  0.00    +0.000 OA
ENDROOT
BRANCH   1   9
ATOM      4  O   UNL     1       0.731  12.564  18.607  0.00  0.00    +0.000 OA
ATOM      5  C   UNL     1       0.984  11.403  18.863  0.00  0.00    +0.000 C 
ATOM      6  C   UNL     1       1.621  10.377  17.899  0.00  0.00    +0.000 C 
ATOM      7  C   UNL     1       1.728   9.144  18.751  0.00  0.00    +0.000 A 
ATOM      8  C   UNL     1       2.200   7.878  18.473  0.00  0.00    +0.000 A 
ATOM      9  C   UNL     1       2.140   6.925  19.510  0.00  0.00    +0.000 A 
ATOM     10  C   UNL     1       1.648   7.253  20.799  0.00  0.00    +0.000 A 
ATOM     11  C   UNL     1       1.156   8.531  21.054  0.00  0.00    +0.000 A 
ATOM     12  C   UNL     1       1.222   9.433  20.010  0.00  0.00    +0.000 A 
ATOM     13  N   UNL     1       0.762  10.739  20.065  0.00  0.00    +0.000 N 
ATOM     14  C   UNL     1       0.208  11.272  21.292  0.00  0.00    +0.000 C 
ATOM     15  C   UNL     1      -0.396  10.156  22.157  0.00  0.00    +0.000 C 
ATOM     16  C   UNL     1       0.598   8.997  22.369  0.00  0.00    +0.000 C 
ENDBRANCH   1   9
BRANCH   1  17
ATOM     17  N   UNL     1       3.006   5.186  17.569  0.00  0.00    +0.000 N 
ATOM     18  H   UNL     1       2.393   5.817  17.050  0.00  0.00    +0.000 HD
BRANCH  17  19
ATOM     19  C   UNL     1       4.362   5.129  17.137  0.00  0.00    +0.000 A 
ATOM     20  C   UNL     1       4.812   4.051  16.369  0.00  0.00    +0.000 A 
ATOM     21  C   UNL     1       6.153   3.980  15.978  0.00  0.00    +0.000 A 
ATOM     22  C   UNL     1       7.055   4.960  16.393  0.00  0.00    +0.000 A 
ATOM     23  C   UNL     1       6.604   6.010  17.202  0.00  0.00    +0.000 A 
ATOM     24  C   UNL     1       5.255   6.111  17.557  0.00  0.00    +0.000 A 
BRANCH  23  25
ATOM     25  N   UNL     1       7.557   6.995  17.721  0.00  0.00    +0.000 N 
ATOM     26  O   UNL     1       7.728   8.033  17.060  0.00  0.00    +0.000 OA
ATOM     27  O   UNL     1       8.143   6.728  18.776  0.00  0.00    +0.000 OA
ENDBRANCH  23  25
ENDBRANCH  17  19
ENDBRANCH   1  17
TORSDOF 4
ENDMDL
MODEL 5
REMARK VINA RESULT:      -8.1      4.261      5.831
REMARK  Name = 
REMARK  4 active torsions:
REMARK  status: ('A' for Active; 'I' for Inactive)
REMARK    1  A    between atoms: C_6  and  S_7
REMARK    2  A    between atoms: S_7  and  N_10
REMARK    3  A    between atoms: N_10  and  C_11
REMARK    4  A    between atoms: C_15  and  N_16
REMARK                            x       y       z     vdW  Elec       q    Type
REMARK                         _______ _______ _______ _____ _____    ______ ____
ROOT
ATOM      1  S   UNL     1       2.969   6.198  18.850  0.00  0.00    +0.000 S 
ATOM      2  O   UNL     1       3.518   5.449  19.961  0.00  0.00    +0.000 OA
ATOM      3  O   UNL     1       2.103   5.563  17.875  0.00  0.00    +0.000 OA
ENDROOT
BRANCH   1   9
ATOM      4  O   UNL     1      -0.869  11.057  23.256  0.00  0.00    +0.000 OA
ATOM      5  C   UNL     1      -0.261  10.400  22.434  0.00  0.00    +0.000 C 
ATOM      6  C   UNL     1       0.335   8.992  22.656  0.00  0.00    +0.000 C 
ATOM      7  C   UNL     1       0.926   8.667  21.315  0.00  0.00    +0.000 A 
ATOM      8  C   UNL     1       1.616   7.561  20.862  0.00  0.00    +0.000 A 
ATOM      9  C   UNL     1       2.061   7.581  19.524  0.00  0.00    +0.000 A 
ATOM     10  C   UNL     1       1.789   8.674  18.662  0.00  0.00    +0.000 A 
ATOM     11  C   UNL     1       1.109   9.791  19.144  0.00  0.00    +0.000 A 
ATOM     12  C   UNL     1       0.699   9.738  20.461  0.00  0.00    +0.000 A 
ATOM     13  N   UNL     1       0.033  10.758  21.122  0.00  0.00    +0.000 N 
ATOM     14  C   UNL     1      -0.331  11.971  20.423  0.00  0.00    +0.000 C 
ATOM     15  C   UNL     1       0.625  12.244  19.252  0.00  0.00    +0.000 C 
ATOM     16  C   UNL     1       0.772  11.012  18.337  0.00  0.00    +0.000 C 
ENDBRANCH   1   9
BRANCH   1  17
ATOM     17  N   UNL     1       4.244   6.924  17.993  0.00  0.00    +0.000 N 
ATOM     18  H   UNL     1       4.482   7.843  18.368  0.00  0.00    +0.000 HD
BRANCH  17  19
ATOM     19  C   UNL     1       5.340   6.093  17.620  0.00  0.00    +0.000 A 
ATOM     20  C   UNL     1       6.274   5.687  18.577  0.00  0.00    +0.000 A 
ATOM     21  C   UNL     1       7.369   4.903  18.199  0.00  0.00    +0.000 A 
ATOM     22  C   UNL     1       7.556   4.563  16.859  0.00  0.00    +0.000 A 
ATOM     23  C   UNL     1       6.640   5.016  15.902  0.00  0.00    +0.000 A 
ATOM     24  C   UNL     1       5.519   5.761  16.279  0.00  0.00    +0.000 A 
BRANCH  23  25
ATOM     25  N   UNL     1       6.874   4.745  14.480  0.00  0.00    +0.000 N 
ATOM     26  O   UNL     1       7.762   5.399  13.908  0.00  0.00    +0.000 OA
ATOM     27  O   UNL     1       6.164   3.893  13.933  0.00  0.00    +0.000 OA
ENDBRANCH  23  25
ENDBRANCH  17  19
ENDBRANCH   1  17
TORSDOF 4
ENDMDL
MODEL 6
REMARK VINA RESULT:      -8.1      3.007      5.028
REMARK  Name = 
REMARK  4 active torsions:
REMARK  status: ('A' for Active; 'I' for Inactive)
REMARK    1  A    between atoms: C_6  and  S_7
REMARK    2  A    between atoms: S_7  and  N_10
REMARK    3  A    between atoms: N_10  and  C_11
REMARK    4  A    between atoms: C_15  and  N_16
REMARK                            x       y       z     vdW  Elec       q    Type
REMARK                         _______ _______ _______ _____ _____    ______ ____
ROOT
ATOM      1  S   UNL     1       3.215   3.589  18.865  0.00  0.00    +0.000 S 
ATOM      2  O   UNL     1       2.463   2.799  19.818  0.00  0.00    +0.000 OA
ATOM      3  O   UNL     1       3.170   3.292  17.446  0.00  0.00    +0.000 OA
ENDROOT
BRANCH   1   9
ATOM      4  O   UNL     1       1.791  11.001  17.971  0.00  0.00    +0.000 OA
ATOM      5  C   UNL     1       1.933   9.828  18.258  0.00  0.00    +0.000 C 
ATOM      6  C   UNL     1       2.632   8.758  17.390  0.00  0.00    +0.000 C 
ATOM      7  C   UNL     1       2.544   7.527  18.246  0.00  0.00    +0.000 A 
ATOM      8  C   UNL     1       2.969   6.232  18.034  0.00  0.00    +0.000 A 
ATOM      9  C   UNL     1       2.708   5.292  19.052  0.00  0.00    +0.000 A 
ATOM     10  C   UNL     1       2.064   5.659  20.261  0.00  0.00    +0.000 A 
ATOM     11  C   UNL     1       1.622   6.968  20.447  0.00  0.00    +0.000 A 
ATOM     12  C   UNL     1       1.887   7.856  19.424  0.00  0.00    +0.000 A 
ATOM     13  N   UNL     1       1.507   9.188  19.417  0.00  0.00    +0.000 N 
ATOM     14  C   UNL     1       0.823   9.763  20.556  0.00  0.00    +0.000 C 
ATOM     15  C   UNL     1       0.037   8.693  21.328  0.00  0.00    +0.000 C 
ATOM     16  C   UNL     1       0.918   7.476  21.673  0.00  0.00    +0.000 C 
ENDBRANCH   1   9
BRANCH   1  17
ATOM     17  N   UNL     1       4.850   3.596  19.325  0.00  0.00    +0.000 N 
ATOM     18  H   UNL     1       5.185   2.661  19.563  0.00  0.00    +0.000 HD
BRANCH  17  19
ATOM     19  C   UNL     1       5.741   4.409  18.567  0.00  0.00    +0.000 A 
ATOM     20  C   UNL     1       6.334   5.534  19.146  0.00  0.00    +0.000 A 
ATOM     21  C   UNL     1       7.179   6.351  18.387  0.00  0.00    +0.000 A 
ATOM     22  C   UNL     1       7.395   6.070  17.038  0.00  0.00    +0.000 A 
ATOM     23  C   UNL     1       6.758   4.968  16.456  0.00  0.00    +0.000 A 
ATOM     24  C   UNL     1       5.949   4.121  17.221  0.00  0.00    +0.000 A 
BRANCH  23  25
ATOM     25  N   UNL     1       6.902   4.714  15.019  0.00  0.00    +0.000 N 
ATOM     26  O   UNL     1       6.266   3.763  14.537  0.00  0.00    +0.000 OA
ATOM     27  O   UNL     1       7.659   5.452  14.377  0.00  0.00    +0.000 OA
ENDBRANCH  23  25
ENDBRANCH  17  19
ENDBRANCH   1  17
TORSDOF 4
ENDMDL
MODEL 7
REMARK VINA RESULT:      -8.1      0.898      2.254
REMARK  Name = 
REMARK  4 active torsions:
REMARK  status: ('A' for Active; 'I' for Inactive)
REMARK    1  A    between atoms: C_6  and  S_7
REMARK    2  A    between atoms: S_7  and  N_10
REMARK    3  A    between atoms: N_10  and  C_11
REMARK    4  A    between atoms: C_15  and  N_16
REMARK                            x       y       z     vdW  Elec       q    Type
REMARK                         _______ _______ _______ _____ _____    ______ ____
ROOT
ATOM      1  S   UNL     1       6.147   6.243  16.187  0.00  0.00    +0.000 S 
ATOM      2  O   UNL     1       5.450   6.830  15.061  0.00  0.00    +0.000 OA
ATOM      3  O   UNL     1       6.976   7.052  17.059  0.00  0.00    +0.000 OA
ENDROOT
BRANCH   1   9
ATOM      4  O   UNL     1       0.639   4.594  21.157  0.00  0.00    +0.000 OA
ATOM      5  C   UNL     1       1.516   4.695  20.322  0.00  0.00    +0.000 C 
ATOM      6  C   UNL     1       2.218   6.003  19.893  0.00  0.00    +0.000 C 
ATOM      7  C   UNL     1       3.217   5.526  18.878  0.00  0.00    +0.000 A 
ATOM      8  C   UNL     1       4.141   6.207  18.113  0.00  0.00    +0.000 A 
ATOM      9  C   UNL     1       4.928   5.448  17.224  0.00  0.00    +0.000 A 
ATOM     10  C   UNL     1       4.806   4.037  17.135  0.00  0.00    +0.000 A 
ATOM     11  C   UNL     1       3.852   3.370  17.900  0.00  0.00    +0.000 A 
ATOM     12  C   UNL     1       3.093   4.149  18.751  0.00  0.00    +0.000 A 
ATOM     13  N   UNL     1       2.083   3.670  19.570  0.00  0.00    +0.000 N 
ATOM     14  C   UNL     1       1.787   2.255  19.620  0.00  0.00    +0.000 C 
ATOM     15  C   UNL     1       2.168   1.563  18.304  0.00  0.00    +0.000 C 
ATOM     16  C   UNL     1       3.617   1.886  17.887  0.00  0.00    +0.000 C 
ENDBRANCH   1   9
BRANCH   1  17
ATOM     17  N   UNL     1       7.109   4.959  15.628  0.00  0.00    +0.000 N 
ATOM     18  H   UNL     1       7.025   4.132  16.221  0.00  0.00    +0.000 HD
BRANCH  17  19
ATOM     19  C   UNL     1       7.138   4.724  14.223  0.00  0.00    +0.000 A 
ATOM     20  C   UNL     1       7.952   5.503  13.396  0.00  0.00    +0.000 A 
ATOM     21  C   UNL     1       7.949   5.295  12.013  0.00  0.00    +0.000 A 
ATOM     22  C   UNL     1       7.101   4.340  11.451  0.00  0.00    +0.000 A 
ATOM     23  C   UNL     1       6.255   3.599  12.284  0.00  0.00    +0.000 A 
ATOM     24  C   UNL     1       6.286   3.770  13.672  0.00  0.00    +0.000 A 
BRANCH  23  25
ATOM     25  N   UNL     1       5.293   2.659  11.701  0.00  0.00    +0.000 N 
ATOM     26  O   UNL     1       5.695   1.513  11.441  0.00  0.00    +0.000 OA
ATOM     27  O   UNL     1       4.145   3.067  11.491  0.00  0.00    +0.000 OA
ENDBRANCH  23  25
ENDBRANCH  17  19
ENDBRANCH   1  17
TORSDOF 4
ENDMDL
MODEL 8
REMARK VINA RESULT:      -8.0      4.194      5.813
REMARK  Name = 
REMARK  4 active torsions:
REMARK  status: ('A' for Active; 'I' for Inactive)
REMARK    1  A    between atoms: C_6  and  S_7
REMARK    2  A    between atoms: S_7  and  N_10
REMARK    3  A    between atoms: N_10  and  C_11
REMARK    4  A    between atoms: C_15  and  N_16
REMARK                            x       y       z     vdW  Elec       q    Type
REMARK                         _______ _______ _______ _____ _____    ______ ____
ROOT
ATOM      1  S   UNL     1       2.930   6.317  18.745  0.00  0.00    +0.000 S 
ATOM      2  O   UNL     1       3.514   5.653  19.892  0.00  0.00    +0.000 OA
ATOM      3  O   UNL     1       2.044   5.608  17.840  0.00  0.00    +0.000 OA
ENDROOT
BRANCH   1   9
ATOM      4  O   UNL     1      -0.899  12.838  19.499  0.00  0.00    +0.000 OA
ATOM      5  C   UNL     1      -0.316  11.773  19.542  0.00  0.00    +0.000 C 
ATOM      6  C   UNL     1       0.326  11.038  18.344  0.00  0.00    +0.000 C 
ATOM      7  C   UNL     1       0.921   9.817  18.984  0.00  0.00    +0.000 A 
ATOM      8  C   UNL     1       1.618   8.752  18.452  0.00  0.00    +0.000 A 
ATOM      9  C   UNL     1       2.028   7.738  19.343  0.00  0.00    +0.000 A 
ATOM     10  C   UNL     1       1.767   7.816  20.735  0.00  0.00    +0.000 A 
ATOM     11  C   UNL     1       1.042   8.889  21.250  0.00  0.00    +0.000 A 
ATOM     12  C   UNL     1       0.650   9.855  20.345  0.00  0.00    +0.000 A 
ATOM     13  N   UNL     1      -0.095  10.980  20.664  0.00  0.00    +0.000 N 
ATOM     14  C   UNL     1      -0.479  11.242  22.034  0.00  0.00    +0.000 C 
ATOM     15  C   UNL     1      -0.581   9.939  22.840  0.00  0.00    +0.000 C 
ATOM     16  C   UNL     1       0.691   9.079  22.698  0.00  0.00    +0.000 C 
ENDBRANCH   1   9
BRANCH   1  17
ATOM     17  N   UNL     1       4.176   6.988  17.806  0.00  0.00    +0.000 N 
ATOM     18  H   UNL     1       4.408   7.938  18.100  0.00  0.00    +0.000 HD
BRANCH  17  19
ATOM     19  C   UNL     1       5.276   6.145  17.477  0.00  0.00    +0.000 A 
ATOM     20  C   UNL     1       6.175   5.741  18.468  0.00  0.00    +0.000 A 
ATOM     21  C   UNL     1       7.276   4.945  18.134  0.00  0.00    +0.000 A 
ATOM     22  C   UNL     1       7.504   4.589  16.805  0.00  0.00    +0.000 A 
ATOM     23  C   UNL     1       6.623   5.039  15.813  0.00  0.00    +0.000 A 
ATOM     24  C   UNL     1       5.496   5.797  16.147  0.00  0.00    +0.000 A 
BRANCH  23  25
ATOM     25  N   UNL     1       6.901   4.751  14.403  0.00  0.00    +0.000 N 
ATOM     26  O   UNL     1       7.772   5.433  13.838  0.00  0.00    +0.000 OA
ATOM     27  O   UNL     1       6.242   3.858  13.858  0.00  0.00    +0.000 OA
ENDBRANCH  23  25
ENDBRANCH  17  19
ENDBRANCH   1  17
TORSDOF 4
ENDMDL
MODEL 9
REMARK VINA RESULT:      -8.0      5.063      7.625
REMARK  Name = 
REMARK  4 active torsions:
REMARK  status: ('A' for Active; 'I' for Inactive)
REMARK    1  A    between atoms: C_6  and  S_7
REMARK    2  A    between atoms: S_7  and  N_10
REMARK    3  A    between atoms: N_10  and  C_11
REMARK    4  A    between atoms: C_15  and  N_16
REMARK                            x       y       z     vdW  Elec       q    Type
REMARK                         _______ _______ _______ _____ _____    ______ ____
ROOT
ATOM      1  S   UNL     1       2.536   7.312  18.546  0.00  0.00    +0.000 S 
ATOM      2  O   UNL     1       1.639   6.449  17.807  0.00  0.00    +0.000 OA
ATOM      3  O   UNL     1       3.647   7.975  17.889  0.00  0.00    +0.000 OA
ENDROOT
BRANCH   1   9
ATOM      4  O   UNL     1      -1.834  13.343  20.059  0.00  0.00    +0.000 OA
ATOM      5  C   UNL     1      -1.148  12.342  19.980  0.00  0.00    +0.000 C 
ATOM      6  C   UNL     1      -0.536  11.759  18.687  0.00  0.00    +0.000 C 
ATOM      7  C   UNL     1       0.223  10.565  19.190  0.00  0.00    +0.000 A 
ATOM      8  C   UNL     1       0.976   9.614  18.531  0.00  0.00    +0.000 A 
ATOM      9  C   UNL     1       1.551   8.591  19.311  0.00  0.00    +0.000 A 
ATOM     10  C   UNL     1       1.395   8.548  20.721  0.00  0.00    +0.000 A 
ATOM     11  C   UNL     1       0.613   9.505  21.366  0.00  0.00    +0.000 A 
ATOM     12  C   UNL     1       0.059  10.484  20.566  0.00  0.00    +0.000 A 
ATOM     13  N   UNL     1      -0.764  11.503  21.021  0.00  0.00    +0.000 N 
ATOM     14  C   UNL     1      -1.061  11.632  22.431  0.00  0.00    +0.000 C 
ATOM     15  C   UNL     1      -0.972  10.274  23.143  0.00  0.00    +0.000 C 
ATOM     16  C   UNL     1       0.362   9.561  22.845  0.00  0.00    +0.000 C 
ENDBRANCH   1   9
BRANCH   1  17
ATOM     17  N   UNL     1       3.175   6.446  19.860  0.00  0.00    +0.000 N 
ATOM     18  H   UNL     1       3.210   7.010  20.710  0.00  0.00    +0.000 HD
BRANCH  17  19
ATOM     19  C   UNL     1       2.755   5.094  20.020  0.00  0.00    +0.000 A 
ATOM     20  C   UNL     1       1.542   4.802  20.651  0.00  0.00    +0.000 A 
ATOM     21  C   UNL     1       1.152   3.473  20.840  0.00  0.00    +0.000 A 
ATOM     22  C   UNL     1       1.993   2.434  20.441  0.00  0.00    +0.000 A 
ATOM     23  C   UNL     1       3.227   2.737  19.854  0.00  0.00    +0.000 A 
ATOM     24  C   UNL     1       3.603   4.064  19.620  0.00  0.00    +0.000 A 
BRANCH  23  25
ATOM     25  N   UNL     1       4.161   1.659  19.514  0.00  0.00    +0.000 N 
ATOM     26  O   UNL     1       3.885   0.947  18.534  0.00  0.00    +0.000 OA
ATOM     27  O   UNL     1       5.158   1.514  20.231  0.00  0.00    +0.000 OA
ENDBRANCH  23  25
ENDBRANCH  17  19
ENDBRANCH   1  17
TORSDOF 4
ENDMDL
