MODEL 1
REMARK VINA RESULT:      -7.3      0.000      0.000
REMARK  Name = 
REMARK  12 active torsions:
REMARK  status: ('A' for Active; 'I' for Inactive)
REMARK    1  A    between atoms: C_1  and  S_2
REMARK    2  A    between atoms: S_2  and  C_3
REMARK    3  A    between atoms: C_6  and  C_7
REMARK    4  A    between atoms: C_9  and  C_10
REMARK    5  A    between atoms: C_10  and  S_11
REMARK    6  A    between atoms: S_11  and  C_12
REMARK    7  A    between atoms: C_12  and  C_13
REMARK    8  A    between atoms: N_15  and  C_16
REMARK    9  A    between atoms: C_16  and  C_17
REMARK   10  A    between atoms: C_17  and  C_18
REMARK   11  A    between atoms: C_18  and  N_19
REMARK   12  A    between atoms: C_25  and  C_26
REMARK                            x       y       z     vdW  Elec       q    Type
REMARK                         _______ _______ _______ _____ _____    ______ ____
ROOT
ATOM      1  C   UNL     1       6.474   5.948  16.395  0.00  0.00    +0.000 C 
ENDROOT
BRANCH   1   4
ATOM      2  C   UNL     1       8.159   8.601  18.073  0.00  0.00    +0.000 A 
ATOM      3  N   UNL     1       7.418   8.173  17.062  0.00  0.00    +0.000 NA
ATOM      4  C   UNL     1       7.234   6.823  17.328  0.00  0.00    +0.000 A 
ATOM      5  C   UNL     1       7.862   6.504  18.514  0.00  0.00    +0.000 A 
ATOM      6  C   UNL     1       8.033   5.291  19.332  0.00  0.00    +0.000 C 
ATOM      7  O   UNL     1       8.453   7.633  18.993  0.00  0.00    +0.000 OA
BRANCH   2  11
ATOM      8  C   UNL     1       9.614  12.535  18.924  0.00  0.00    +0.000 A 
ATOM      9  C   UNL     1       8.822  12.298  17.798  0.00  0.00    +0.000 A 
ATOM     10  C   UNL     1       8.360  11.008  17.520  0.00  0.00    +0.000 A 
ATOM     11  C   UNL     1       8.681   9.933  18.358  0.00  0.00    +0.000 A 
ATOM     12  C   UNL     1       9.510  10.176  19.464  0.00  0.00    +0.000 A 
ATOM     13  C   UNL     1       9.976  11.465  19.743  0.00  0.00    +0.000 A 
BRANCH   8  15
ATOM     14  C   UNL     1       8.702  15.113  18.851  0.00  0.00    +0.000 C 
ATOM     15  S   UNL     1      10.177  14.175  19.332  0.00  0.00    +0.000 S 
ENDBRANCH   8  15
ENDBRANCH   2  11
ENDBRANCH   1   4
BRANCH   1  16
ATOM     16  S   UNL     1       4.806   5.543  17.005  0.00  0.00    +0.000 S 
BRANCH  16  17
ATOM     17  C   UNL     1       4.217   7.184  17.539  0.00  0.00    +0.000 C 
BRANCH  17  18
ATOM     18  C   UNL     1       2.938   7.100  18.354  0.00  0.00    +0.000 C 
ATOM     19  O   UNL     1       1.908   7.686  18.033  0.00  0.00    +0.000 OA
ATOM     20  N   UNL     1       3.032   6.308  19.479  0.00  0.00    +0.000 N 
ATOM     21  H   UNL     1       3.940   5.912  19.727  0.00  0.00    +0.000 HD
BRANCH  20  22
ATOM     22  C   UNL     1       1.927   6.136  20.401  0.00  0.00    +0.000 C 
BRANCH  22  23
ATOM     23  C   UNL     1       2.056   4.857  21.220  0.00  0.00    +0.000 C 
BRANCH  23  24
ATOM     24  C   UNL     1       1.223   3.723  20.631  0.00  0.00    +0.000 C 
BRANCH  24  25
ATOM     25  N   UNL     1       1.916   3.012  19.572  0.00  0.00    +0.000 N 
ATOM     26  C   UNL     1       1.622   3.235  18.178  0.00  0.00    +0.000 C 
ATOM     27  C   UNL     1       2.473   2.196  17.481  0.00  0.00    +0.000 C 
ATOM     28  C   UNL     1       3.701   2.078  18.373  0.00  0.00    +0.000 C 
ATOM     29  C   UNL     1       3.175   2.448  19.740  0.00  0.00    +0.000 C 
ATOM     30  O   UNL     1       3.787   2.324  20.788  0.00  0.00    +0.000 OA
ENDBRANCH  24  25
ENDBRANCH  23  24
ENDBRANCH  22  23
ENDBRANCH  20  22
ENDBRANCH  17  18
ENDBRANCH  16  17
ENDBRANCH   1  16
TORSDOF 10
ENDMDL
MODEL 2
REMARK VINA RESULT:      -7.2      1.443      1.882
REMARK  Name = 
REMARK  12 active torsions:
REMARK  status: ('A' for Active; 'I' for Inactive)
REMARK    1  A    between atoms: C_1  and  S_2
REMARK    2  A    between atoms: S_2  and  C_3
REMARK    3  A    between atoms: C_6  and  C_7
REMARK    4  A    between atoms: C_9  and  C_10
REMARK    5  A    between atoms: C_10  and  S_11
REMARK    6  A    between atoms: S_11  and  C_12
REMARK    7  A    between atoms: C_12  and  C_13
REMARK    8  A    between atoms: N_15  and  C_16
REMARK    9  A    between atoms: C_16  and  C_17
REMARK   10  A    between atoms: C_17  and  C_18
REMARK   11  A    between atoms: C_18  and  N_19
REMARK   12  A    between atoms: C_25  and  C_26
REMARK                            x       y       z     vdW  Elec       q    Type
REMARK                         _______ _______ _______ _____ _____    ______ ____
ROOT
ATOM      1  C   UNL     1       6.570   6.662  16.374  0.00  0.00    +0.000 C 
ENDROOT
BRANCH   1   4
ATOM      2  C   UNL     1       8.422   9.035  18.279  0.00  0.00    +0.000 A 
ATOM      3  N   UNL     1       7.649   8.752  17.242  0.00  0.00    +0.000 NA
ATOM      4  C   UNL     1       7.387   7.395  17.378  0.00  0.00    +0.000 A 
ATOM      5  C   UNL     1       8.006   6.925  18.518  0.00  0.00    +0.000 A 
ATOM      6  C   UNL     1       8.113   5.630  19.211  0.00  0.00    +0.000 C 
ATOM      7  O   UNL     1       8.667   7.966  19.095  0.00  0.00    +0.000 OA
BRANCH   2  11
ATOM      8  C   UNL     1      10.263  12.711  19.471  0.00  0.00    +0.000 A 
ATOM      9  C   UNL     1      10.220  11.621  20.345  0.00  0.00    +0.000 A 
ATOM     10  C   UNL     1       9.607  10.427  19.952  0.00  0.00    +0.000 A 
ATOM     11  C   UNL     1       9.024  10.300  18.684  0.00  0.00    +0.000 A 
ATOM     12  C   UNL     1       9.038  11.415  17.832  0.00  0.00    +0.000 A 
ATOM     13  C   UNL     1       9.649  12.611  18.222  0.00  0.00    +0.000 A 
BRANCH   8  15
ATOM     14  C   UNL     1      10.257  14.536  21.509  0.00  0.00    +0.000 C 
ATOM     15  S   UNL     1      11.080  14.228  19.923  0.00  0.00    +0.000 S 
ENDBRANCH   8  15
ENDBRANCH   2  11
ENDBRANCH   1   4
BRANCH   1  16
ATOM     16  S   UNL     1       4.786   6.992  16.540  0.00  0.00    +0.000 S 
BRANCH  16  17
ATOM     17  C   UNL     1       4.192   5.400  17.201  0.00  0.00    +0.000 C 
BRANCH  17  18
ATOM     18  C   UNL     1       3.843   5.484  18.678  0.00  0.00    +0.000 C 
ATOM     19  O   UNL     1       4.698   5.495  19.560  0.00  0.00    +0.000 OA
ATOM     20  N   UNL     1       2.491   5.550  18.940  0.00  0.00    +0.000 N 
ATOM     21  H   UNL     1       1.835   5.458  18.162  0.00  0.00    +0.000 HD
BRANCH  20  22
ATOM     22  C   UNL     1       1.964   5.597  20.289  0.00  0.00    +0.000 C 
BRANCH  22  23
ATOM     23  C   UNL     1       0.848   4.583  20.506  0.00  0.00    +0.000 C 
BRANCH  23  24
ATOM     24  C   UNL     1       1.388   3.247  21.005  0.00  0.00    +0.000 C 
BRANCH  24  25
ATOM     25  N   UNL     1       2.437   2.715  20.154  0.00  0.00    +0.000 N 
ATOM     26  C   UNL     1       3.714   2.299  20.679  0.00  0.00    +0.000 C 
ATOM     27  C   UNL     1       4.500   1.959  19.431  0.00  0.00    +0.000 C 
ATOM     28  C   UNL     1       3.442   1.425  18.473  0.00  0.00    +0.000 C 
ATOM     29  C   UNL     1       2.183   2.130  18.919  0.00  0.00    +0.000 C 
ATOM     30  O   UNL     1       1.121   2.123  18.317  0.00  0.00    +0.000 OA
ENDBRANCH  24  25
ENDBRANCH  23  24
ENDBRANCH  22  23
ENDBRANCH  20  22
ENDBRANCH  17  18
ENDBRANCH  16  17
ENDBRANCH   1  16
TORSDOF 10
ENDMDL
MODEL 3
REMARK VINA RESULT:      -7.2      1.205      1.295
REMARK  Name = 
REMARK  12 active torsions:
REMARK  status: ('A' for Active; 'I' for Inactive)
REMARK    1  A    between atoms: C_1  and  S_2
REMARK    2  A    between atoms: S_2  and  C_3
REMARK    3  A    between atoms: C_6  and  C_7
REMARK    4  A    between atoms: C_9  and  C_10
REMARK    5  A    between atoms: C_10  and  S_11
REMARK    6  A    between atoms: S_11  and  C_12
REMARK    7  A    between atoms: C_12  and  C_13
REMARK    8  A    between atoms: N_15  and  C_16
REMARK    9  A    between atoms: C_16  and  C_17
REMARK   10  A    between atoms: C_17  and  C_18
REMARK   11  A    between atoms: C_18  and  N_19
REMARK   12  A    between atoms: C_25  and  C_26
REMARK                            x       y       z     vdW  Elec       q    Type
REMARK                         _______ _______ _______ _____ _____    ______ ____
ROOT
ATOM      1  C   UNL     1       6.713   6.457  16.408  0.00  0.00    +0.000 C 
ENDROOT
BRANCH   1   4
ATOM      2  C   UNL     1       8.440   8.937  18.295  0.00  0.00    +0.000 A 
ATOM      3  N   UNL     1       7.715   8.600  17.239  0.00  0.00    +0.000 NA
ATOM      4  C   UNL     1       7.476   7.243  17.415  0.00  0.00    +0.000 A 
ATOM      5  C   UNL     1       8.058   6.828  18.595  0.00  0.00    +0.000 A 
ATOM      6  C   UNL     1       8.163   5.562  19.339  0.00  0.00    +0.000 C 
ATOM      7  O   UNL     1       8.674   7.903  19.159  0.00  0.00    +0.000 OA
BRANCH   2  11
ATOM      8  C   UNL     1      10.006  12.760  19.414  0.00  0.00    +0.000 A 
ATOM      9  C   UNL     1       9.461  12.559  18.144  0.00  0.00    +0.000 A 
ATOM     10  C   UNL     1       8.961  11.304  17.781  0.00  0.00    +0.000 A 
ATOM     11  C   UNL     1       8.999  10.228  18.677  0.00  0.00    +0.000 A 
ATOM     12  C   UNL     1       9.587  10.432  19.936  0.00  0.00    +0.000 A 
ATOM     13  C   UNL     1      10.089  11.685  20.300  0.00  0.00    +0.000 A 
BRANCH   8  15
ATOM     14  C   UNL     1      12.313  14.228  19.328  0.00  0.00    +0.000 C 
ATOM     15  S   UNL     1      10.605  14.359  19.923  0.00  0.00    +0.000 S 
ENDBRANCH   8  15
ENDBRANCH   2  11
ENDBRANCH   1   4
BRANCH   1  16
ATOM     16  S   UNL     1       4.943   6.885  16.370  0.00  0.00    +0.000 S 
BRANCH  16  17
ATOM     17  C   UNL     1       4.203   5.394  17.114  0.00  0.00    +0.000 C 
BRANCH  17  18
ATOM     18  C   UNL     1       3.981   5.546  18.610  0.00  0.00    +0.000 C 
ATOM     19  O   UNL     1       4.895   5.469  19.426  0.00  0.00    +0.000 OA
ATOM     20  N   UNL     1       2.670   5.781  18.969  0.00  0.00    +0.000 N 
ATOM     21  H   UNL     1       1.951   5.757  18.244  0.00  0.00    +0.000 HD
BRANCH  20  22
ATOM     22  C   UNL     1       2.257   5.917  20.351  0.00  0.00    +0.000 C 
BRANCH  22  23
ATOM     23  C   UNL     1       1.230   4.863  20.749  0.00  0.00    +0.000 C 
BRANCH  23  24
ATOM     24  C   UNL     1       1.895   3.545  21.132  0.00  0.00    +0.000 C 
BRANCH  24  25
ATOM     25  N   UNL     1       2.202   2.718  19.979  0.00  0.00    +0.000 N 
ATOM     26  C   UNL     1       1.402   2.747  18.779  0.00  0.00    +0.000 C 
ATOM     27  C   UNL     1       2.013   1.647  17.938  0.00  0.00    +0.000 C 
ATOM     28  C   UNL     1       3.488   1.682  18.316  0.00  0.00    +0.000 C 
ATOM     29  C   UNL     1       3.473   2.215  19.729  0.00  0.00    +0.000 C 
ATOM     30  O   UNL     1       4.434   2.248  20.479  0.00  0.00    +0.000 OA
ENDBRANCH  24  25
ENDBRANCH  23  24
ENDBRANCH  22  23
ENDBRANCH  20  22
ENDBRANCH  17  18
ENDBRANCH  16  17
ENDBRANCH   1  16
TORSDOF 10
ENDMDL
MODEL 4
REMARK VINA RESULT:      -7.1      4.330      7.706
REMARK  Name = 
REMARK  12 active torsions:
REMARK  status: ('A' for Active; 'I' for Inactive)
REMARK    1  A    between atoms: C_1  and  S_2
REMARK    2  A    between atoms: S_2  and  C_3
REMARK    3  A    between atoms: C_6  and  C_7
REMARK    4  A    between atoms: C_9  and  C_10
REMARK    5  A    between atoms: C_10  and  S_11
REMARK    6  A    between atoms: S_11  and  C_12
REMARK    7  A    between atoms: C_12  and  C_13
REMARK    8  A    between atoms: N_15  and  C_16
REMARK    9  A    between atoms: C_16  and  C_17
REMARK   10  A    between atoms: C_17  and  C_18
REMARK   11  A    between atoms: C_18  and  N_19
REMARK   12  A    between atoms: C_25  and  C_26
REMARK                            x       y       z     vdW  Elec       q    Type
REMARK                         _______ _______ _______ _____ _____    ______ ____
ROOT
ATOM      1  C   UNL     1       2.361   5.645  20.505  0.00  0.00    +0.000 C 
ENDROOT
BRANCH   1   4
ATOM      2  C   UNL     1       0.819   8.856  20.571  0.00  0.00    +0.000 A 
ATOM      3  N   UNL     1       1.064   7.692  21.152  0.00  0.00    +0.000 NA
ATOM      4  C   UNL     1       1.883   7.030  20.246  0.00  0.00    +0.000 A 
ATOM      5  C   UNL     1       2.113   7.849  19.159  0.00  0.00    +0.000 A 
ATOM      6  C   UNL     1       2.874   7.755  17.902  0.00  0.00    +0.000 C 
ATOM      7  O   UNL     1       1.437   9.013  19.361  0.00  0.00    +0.000 OA
BRANCH   2  11
ATOM      8  C   UNL     1      -1.595  12.136  21.890  0.00  0.00    +0.000 A 
ATOM      9  C   UNL     1      -1.404  11.897  20.527  0.00  0.00    +0.000 A 
ATOM     10  C   UNL     1      -0.604  10.830  20.104  0.00  0.00    +0.000 A 
ATOM     11  C   UNL     1       0.020   9.986  21.031  0.00  0.00    +0.000 A 
ATOM     12  C   UNL     1      -0.147  10.261  22.398  0.00  0.00    +0.000 A 
ATOM     13  C   UNL     1      -0.944  11.328  22.824  0.00  0.00    +0.000 A 
BRANCH   8  15
ATOM     14  C   UNL     1      -1.568  14.149  23.742  0.00  0.00    +0.000 C 
ATOM     15  S   UNL     1      -2.647  13.455  22.461  0.00  0.00    +0.000 S 
ENDBRANCH   8  15
ENDBRANCH   2  11
ENDBRANCH   1   4
BRANCH   1  16
ATOM     16  S   UNL     1       1.036   4.403  20.369  0.00  0.00    +0.000 S 
BRANCH  16  17
ATOM     17  C   UNL     1       1.885   2.912  20.983  0.00  0.00    +0.000 C 
BRANCH  17  18
ATOM     18  C   UNL     1       3.178   2.635  20.235  0.00  0.00    +0.000 C 
ATOM     19  O   UNL     1       4.150   2.106  20.766  0.00  0.00    +0.000 OA
ATOM     20  N   UNL     1       3.163   3.024  18.912  0.00  0.00    +0.000 N 
ATOM     21  H   UNL     1       2.348   3.527  18.557  0.00  0.00    +0.000 HD
BRANCH  20  22
ATOM     22  C   UNL     1       4.316   2.875  18.047  0.00  0.00    +0.000 C 
BRANCH  22  23
ATOM     23  C   UNL     1       4.215   3.748  16.801  0.00  0.00    +0.000 C 
BRANCH  23  24
ATOM     24  C   UNL     1       5.590   4.064  16.222  0.00  0.00    +0.000 C 
BRANCH  24  25
ATOM     25  N   UNL     1       6.300   5.075  16.985  0.00  0.00    +0.000 N 
ATOM     26  C   UNL     1       7.441   4.755  17.807  0.00  0.00    +0.000 C 
ATOM     27  C   UNL     1       7.743   6.069  18.495  0.00  0.00    +0.000 C 
ATOM     28  C   UNL     1       7.352   7.116  17.459  0.00  0.00    +0.000 C 
ATOM     29  C   UNL     1       6.275   6.425  16.657  0.00  0.00    +0.000 C 
ATOM     30  O   UNL     1       5.562   6.962  15.825  0.00  0.00    +0.000 OA
ENDBRANCH  24  25
ENDBRANCH  23  24
ENDBRANCH  22  23
ENDBRANCH  20  22
ENDBRANCH  17  18
ENDBRANCH  16  17
ENDBRANCH   1  16
TORSDOF 10
ENDMDL
MODEL 5
REMARK VINA RESULT:      -7.0      3.017      8.730
REMARK  Name = 
REMARK  12 active torsions:
REMARK  status: ('A' for Active; 'I' for Inactive)
REMARK    1  A    between atoms: C_1  and  S_2
REMARK    2  A    between atoms: S_2  and  C_3
REMARK    3  A    between atoms: C_6  and  C_7
REMARK    4  A    between atoms: C_9  and  C_10
REMARK    5  A    between atoms: C_10  and  S_11
REMARK    6  A    between atoms: S_11  and  C_12
REMARK    7  A    between atoms: C_12  and  C_13
REMARK    8  A    between atoms: N_15  and  C_16
REMARK    9  A    between atoms: C_16  and  C_17
REMARK   10  A    between atoms: C_17  and  C_18
REMARK   11  A    between atoms: C_18  and  N_19
REMARK   12  A    between atoms: C_25  and  C_26
REMARK                            x       y       z     vdW  Elec       q    Type
REMARK                         _______ _______ _______ _____ _____    ______ ____
ROOT
ATOM      1  C   UNL     1       5.662   3.996  18.168  0.00  0.00    +0.000 C 
ENDROOT
BRANCH   1   4
ATOM      2  C   UNL     1       3.000   6.334  18.540  0.00  0.00    +0.000 A 
ATOM      3  N   UNL     1       4.295   6.062  18.561  0.00  0.00    +0.000 NA
ATOM      4  C   UNL     1       4.361   4.717  18.220  0.00  0.00    +0.000 A 
ATOM      5  C   UNL     1       3.086   4.244  17.985  0.00  0.00    +0.000 A 
ATOM      6  C   UNL     1       2.487   2.958  17.592  0.00  0.00    +0.000 C 
ATOM      7  O   UNL     1       2.215   5.271  18.188  0.00  0.00    +0.000 OA
BRANCH   2  11
ATOM      8  C   UNL     1       1.002  10.025  19.384  0.00  0.00    +0.000 A 
ATOM      9  C   UNL     1       1.186   9.070  20.387  0.00  0.00    +0.000 A 
ATOM     10  C   UNL     1       1.829   7.862  20.100  0.00  0.00    +0.000 A 
ATOM     11  C   UNL     1       2.298   7.584  18.810  0.00  0.00    +0.000 A 
ATOM     12  C   UNL     1       2.071   8.534  17.802  0.00  0.00    +0.000 A 
ATOM     13  C   UNL     1       1.426   9.742  18.085  0.00  0.00    +0.000 A 
BRANCH   8  15
ATOM     14  C   UNL     1      -1.461  11.202  19.205  0.00  0.00    +0.000 C 
ATOM     15  S   UNL     1       0.231  11.593  19.728  0.00  0.00    +0.000 S 
ENDBRANCH   8  15
ENDBRANCH   2  11
ENDBRANCH   1   4
BRANCH   1  16
ATOM     16  S   UNL     1       6.940   4.911  17.248  0.00  0.00    +0.000 S 
BRANCH  16  17
ATOM     17  C   UNL     1       7.549   6.054  18.530  0.00  0.00    +0.000 C 
BRANCH  17  18
ATOM     18  C   UNL     1       7.712   7.472  18.009  0.00  0.00    +0.000 C 
ATOM     19  O   UNL     1       7.107   7.889  17.025  0.00  0.00    +0.000 OA
ATOM     20  N   UNL     1       8.593   8.247  18.734  0.00  0.00    +0.000 N 
ATOM     21  H   UNL     1       9.119   7.811  19.494  0.00  0.00    +0.000 HD
BRANCH  20  22
ATOM     22  C   UNL     1       8.907   9.613  18.368  0.00  0.00    +0.000 C 
BRANCH  22  23
ATOM     23  C   UNL     1       9.348  10.442  19.568  0.00  0.00    +0.000 C 
BRANCH  23  24
ATOM     24  C   UNL     1      10.222  11.620  19.149  0.00  0.00    +0.000 C 
BRANCH  24  25
ATOM     25  N   UNL     1       9.525  12.890  19.229  0.00  0.00    +0.000 N 
ATOM     26  C   UNL     1       8.569  13.305  18.231  0.00  0.00    +0.000 C 
ATOM     27  C   UNL     1       8.224  14.716  18.658  0.00  0.00    +0.000 C 
ATOM     28  C   UNL     1       8.325  14.668  20.177  0.00  0.00    +0.000 C 
ATOM     29  C   UNL     1       9.340  13.576  20.423  0.00  0.00    +0.000 C 
ATOM     30  O   UNL     1       9.847  13.317  21.502  0.00  0.00    +0.000 OA
ENDBRANCH  24  25
ENDBRANCH  23  24
ENDBRANCH  22  23
ENDBRANCH  20  22
ENDBRANCH  17  18
ENDBRANCH  16  17
ENDBRANCH   1  16
TORSDOF 10
ENDMDL
MODEL 6
REMARK VINA RESULT:      -6.9      2.976      8.268
REMARK  Name = 
REMARK  12 active torsions:
REMARK  status: ('A' for Active; 'I' for Inactive)
REMARK    1  A    between atoms: C_1  and  S_2
REMARK    2  A    between atoms: S_2  and  C_3
REMARK    3  A    between atoms: C_6  and  C_7
REMARK    4  A    between atoms: C_9  and  C_10
REMARK    5  A    between atoms: C_10  and  S_11
REMARK    6  A    between atoms: S_11  and  C_12
REMARK    7  A    between atoms: C_12  and  C_13
REMARK    8  A    between atoms: N_15  and  C_16
REMARK    9  A    between atoms: C_16  and  C_17
REMARK   10  A    between atoms: C_17  and  C_18
REMARK   11  A    between atoms: C_18  and  N_19
REMARK   12  A    between atoms: C_25  and  C_26
REMARK                            x       y       z     vdW  Elec       q    Type
REMARK                         _______ _______ _______ _____ _____    ______ ____
ROOT
ATOM      1  C   UNL     1       4.428   4.441  16.516  0.00  0.00    +0.000 C 
ENDROOT
BRANCH   1   4
ATOM      2  C   UNL     1       2.726   6.645  18.737  0.00  0.00    +0.000 A 
ATOM      3  N   UNL     1       3.201   6.378  17.531  0.00  0.00    +0.000 NA
ATOM      4  C   UNL     1       3.745   5.106  17.658  0.00  0.00    +0.000 A 
ATOM      5  C   UNL     1       3.549   4.655  18.947  0.00  0.00    +0.000 A 
ATOM      6  C   UNL     1       3.866   3.431  19.702  0.00  0.00    +0.000 C 
ATOM      7  O   UNL     1       2.901   5.632  19.639  0.00  0.00    +0.000 OA
BRANCH   2  11
ATOM      8  C   UNL     1       0.771  10.140  20.248  0.00  0.00    +0.000 A 
ATOM      9  C   UNL     1       0.985   9.033  21.073  0.00  0.00    +0.000 A 
ATOM     10  C   UNL     1       1.614   7.890  20.569  0.00  0.00    +0.000 A 
ATOM     11  C   UNL     1       2.038   7.831  19.235  0.00  0.00    +0.000 A 
ATOM     12  C   UNL     1       1.781   8.934  18.406  0.00  0.00    +0.000 A 
ATOM     13  C   UNL     1       1.150  10.077  18.907  0.00  0.00    +0.000 A 
BRANCH   8  15
ATOM     14  C   UNL     1      -0.748  12.227  19.343  0.00  0.00    +0.000 C 
ATOM     15  S   UNL     1       0.017  11.628  20.873  0.00  0.00    +0.000 S 
ENDBRANCH   8  15
ENDBRANCH   2  11
ENDBRANCH   1   4
BRANCH   1  16
ATOM     16  S   UNL     1       6.026   5.213  16.102  0.00  0.00    +0.000 S 
BRANCH  16  17
ATOM     17  C   UNL     1       7.102   4.515  17.397  0.00  0.00    +0.000 C 
BRANCH  17  18
ATOM     18  C   UNL     1       7.643   5.582  18.334  0.00  0.00    +0.000 C 
ATOM     19  O   UNL     1       8.041   5.328  19.467  0.00  0.00    +0.000 OA
ATOM     20  N   UNL     1       7.652   6.854  17.801  0.00  0.00    +0.000 N 
ATOM     21  H   UNL     1       7.235   7.003  16.881  0.00  0.00    +0.000 HD
BRANCH  20  22
ATOM     22  C   UNL     1       8.098   8.007  18.556  0.00  0.00    +0.000 C 
BRANCH  22  23
ATOM     23  C   UNL     1       8.565   9.141  17.651  0.00  0.00    +0.000 C 
BRANCH  23  24
ATOM     24  C   UNL     1       8.483  10.493  18.352  0.00  0.00    +0.000 C 
BRANCH  24  25
ATOM     25  N   UNL     1       9.778  10.968  18.803  0.00  0.00    +0.000 N 
ATOM     26  C   UNL     1      10.743  11.543  17.897  0.00  0.00    +0.000 C 
ATOM     27  C   UNL     1      11.954  11.753  18.780  0.00  0.00    +0.000 C 
ATOM     28  C   UNL     1      11.355  12.069  20.144  0.00  0.00    +0.000 C 
ATOM     29  C   UNL     1      10.027  11.349  20.116  0.00  0.00    +0.000 C 
ATOM     30  O   UNL     1       9.288  11.196  21.074  0.00  0.00    +0.000 OA
ENDBRANCH  24  25
ENDBRANCH  23  24
ENDBRANCH  22  23
ENDBRANCH  20  22
ENDBRANCH  17  18
ENDBRANCH  16  17
ENDBRANCH   1  16
TORSDOF 10
ENDMDL
MODEL 7
REMARK VINA RESULT:      -6.9      4.126      7.501
REMARK  Name = 
REMARK  12 active torsions:
REMARK  status: ('A' for Active; 'I' for Inactive)
REMARK    1  A    between atoms: C_1  and  S_2
REMARK    2  A    between atoms: S_2  and  C_3
REMARK    3  A    between atoms: C_6  and  C_7
REMARK    4  A    between atoms: C_9  and  C_10
REMARK    5  A    between atoms: C_10  and  S_11
REMARK    6  A    between atoms: S_11  and  C_12
REMARK    7  A    between atoms: C_12  and  C_13
REMARK    8  A    between atoms: N_15  and  C_16
REMARK    9  A    between atoms: C_16  and  C_17
REMARK   10  A    between atoms: C_17  and  C_18
REMARK   11  A    between atoms: C_18  and  N_19
REMARK   12  A    between atoms: C_25  and  C_26
REMARK                            x       y       z     vdW  Elec       q    Type
REMARK                         _______ _______ _______ _____ _____    ______ ____
ROOT
ATOM      1  C   UNL     1       2.409   4.895  20.602  0.00  0.00    +0.000 C 
ENDROOT
BRANCH   1   4
ATOM      2  C   UNL     1       1.196   8.233  20.877  0.00  0.00    +0.000 A 
ATOM      3  N   UNL     1       1.365   7.030  21.403  0.00  0.00    +0.000 NA
ATOM      4  C   UNL     1       2.051   6.328  20.420  0.00  0.00    +0.000 A 
ATOM      5  C   UNL     1       2.284   7.161  19.345  0.00  0.00    +0.000 A 
ATOM      6  C   UNL     1       2.943   7.042  18.034  0.00  0.00    +0.000 C 
ATOM      7  O   UNL     1       1.740   8.376  19.631  0.00  0.00    +0.000 OA
BRANCH   2  11
ATOM      8  C   UNL     1      -0.763  11.710  22.425  0.00  0.00    +0.000 A 
ATOM      9  C   UNL     1       0.082  11.805  21.317  0.00  0.00    +0.000 A 
ATOM     10  C   UNL     1       0.727  10.666  20.824  0.00  0.00    +0.000 A 
ATOM     11  C   UNL     1       0.544   9.416  21.428  0.00  0.00    +0.000 A 
ATOM     12  C   UNL     1      -0.276   9.342  22.566  0.00  0.00    +0.000 A 
ATOM     13  C   UNL     1      -0.921  10.479  23.062  0.00  0.00    +0.000 A 
BRANCH   8  15
ATOM     14  C   UNL     1      -0.436  14.419  22.616  0.00  0.00    +0.000 C 
ATOM     15  S   UNL     1      -1.638  13.132  23.047  0.00  0.00    +0.000 S 
ENDBRANCH   8  15
ENDBRANCH   2  11
ENDBRANCH   1   4
BRANCH   1  16
ATOM     16  S   UNL     1       1.189   3.763  19.861  0.00  0.00    +0.000 S 
BRANCH  16  17
ATOM     17  C   UNL     1       2.281   2.525  19.087  0.00  0.00    +0.000 C 
BRANCH  17  18
ATOM     18  C   UNL     1       2.797   2.979  17.732  0.00  0.00    +0.000 C 
ATOM     19  O   UNL     1       2.058   3.420  16.856  0.00  0.00    +0.000 OA
ATOM     20  N   UNL     1       4.161   2.856  17.573  0.00  0.00    +0.000 N 
ATOM     21  H   UNL     1       4.704   2.410  18.315  0.00  0.00    +0.000 HD
BRANCH  20  22
ATOM     22  C   UNL     1       4.832   3.204  16.336  0.00  0.00    +0.000 C 
BRANCH  22  23
ATOM     23  C   UNL     1       5.965   4.198  16.558  0.00  0.00    +0.000 C 
BRANCH  23  24
ATOM     24  C   UNL     1       5.968   4.742  17.983  0.00  0.00    +0.000 C 
BRANCH  24  25
ATOM     25  N   UNL     1       6.729   5.971  18.111  0.00  0.00    +0.000 N 
ATOM     26  C   UNL     1       7.939   6.046  18.894  0.00  0.00    +0.000 C 
ATOM     27  C   UNL     1       8.286   7.519  18.842  0.00  0.00    +0.000 C 
ATOM     28  C   UNL     1       7.800   7.955  17.466  0.00  0.00    +0.000 C 
ATOM     29  C   UNL     1       6.665   6.999  17.179  0.00  0.00    +0.000 C 
ATOM     30  O   UNL     1       5.881   7.097  16.249  0.00  0.00    +0.000 OA
ENDBRANCH  24  25
ENDBRANCH  23  24
ENDBRANCH  22  23
ENDBRANCH  20  22
ENDBRANCH  17  18
ENDBRANCH  16  17
ENDBRANCH   1  16
TORSDOF 10
ENDMDL
MODEL 8
REMARK VINA RESULT:      -6.7      1.349      2.757
REMARK  Name = 
REMARK  12 active torsions:
REMARK  status: ('A' for Active; 'I' for Inactive)
REMARK    1  A    between atoms: C_1  and  S_2
REMARK    2  A    between atoms: S_2  and  C_3
REMARK    3  A    between atoms: C_6  and  C_7
REMARK    4  A    between atoms: C_9  and  C_10
REMARK    5  A    between atoms: C_10  and  S_11
REMARK    6  A    between atoms: S_11  and  C_12
REMARK    7  A    between atoms: C_12  and  C_13
REMARK    8  A    between atoms: N_15  and  C_16
REMARK    9  A    between atoms: C_16  and  C_17
REMARK   10  A    between atoms: C_17  and  C_18
REMARK   11  A    between atoms: C_18  and  N_19
REMARK   12  A    between atoms: C_25  and  C_26
REMARK                            x       y       z     vdW  Elec       q    Type
REMARK                         _______ _______ _______ _____ _____    ______ ____
ROOT
ATOM      1  C   UNL     1       6.856   5.886  16.446  0.00  0.00    +0.000 C 
ENDROOT
BRANCH   1   4
ATOM      2  C   UNL     1       8.263   8.719  18.083  0.00  0.00    +0.000 A 
ATOM      3  N   UNL     1       7.629   8.195  17.046  0.00  0.00    +0.000 NA
ATOM      4  C   UNL     1       7.492   6.853  17.380  0.00  0.00    +0.000 A 
ATOM      5  C   UNL     1       8.039   6.637  18.628  0.00  0.00    +0.000 A 
ATOM      6  C   UNL     1       8.206   5.485  19.529  0.00  0.00    +0.000 C 
ATOM      7  O   UNL     1       8.532   7.823  19.080  0.00  0.00    +0.000 OA
BRANCH   2  11
ATOM      8  C   UNL     1       9.599  12.727  18.775  0.00  0.00    +0.000 A 
ATOM      9  C   UNL     1      10.013  11.685  19.609  0.00  0.00    +0.000 A 
ATOM     10  C   UNL     1       9.563  10.381  19.384  0.00  0.00    +0.000 A 
ATOM     11  C   UNL     1       8.692  10.092  18.326  0.00  0.00    +0.000 A 
ATOM     12  C   UNL     1       8.251  11.154  17.519  0.00  0.00    +0.000 A 
ATOM     13  C   UNL     1       8.697  12.460  17.744  0.00  0.00    +0.000 A 
BRANCH   8  15
ATOM     14  C   UNL     1       9.045  14.927  20.303  0.00  0.00    +0.000 C 
ATOM     15  S   UNL     1      10.193  14.390  19.006  0.00  0.00    +0.000 S 
ENDBRANCH   8  15
ENDBRANCH   2  11
ENDBRANCH   1   4
BRANCH   1  16
ATOM     16  S   UNL     1       5.211   5.339  17.008  0.00  0.00    +0.000 S 
BRANCH  16  17
ATOM     17  C   UNL     1       5.658   3.969  18.126  0.00  0.00    +0.000 C 
BRANCH  17  18
ATOM     18  C   UNL     1       4.467   3.087  18.461  0.00  0.00    +0.000 C 
ATOM     19  O   UNL     1       3.820   2.494  17.602  0.00  0.00    +0.000 OA
ATOM     20  N   UNL     1       4.179   3.008  19.807  0.00  0.00    +0.000 N 
ATOM     21  H   UNL     1       4.711   3.588  20.458  0.00  0.00    +0.000 HD
BRANCH  20  22
ATOM     22  C   UNL     1       3.057   2.245  20.317  0.00  0.00    +0.000 C 
BRANCH  22  23
ATOM     23  C   UNL     1       2.126   3.095  21.173  0.00  0.00    +0.000 C 
BRANCH  23  24
ATOM     24  C   UNL     1       1.022   3.737  20.338  0.00  0.00    +0.000 C 
BRANCH  24  25
ATOM     25  N   UNL     1       1.437   4.987  19.729  0.00  0.00    +0.000 N 
ATOM     26  C   UNL     1       2.189   5.982  20.454  0.00  0.00    +0.000 C 
ATOM     27  C   UNL     1       2.263   7.133  19.474  0.00  0.00    +0.000 C 
ATOM     28  C   UNL     1       2.312   6.446  18.115  0.00  0.00    +0.000 C 
ATOM     29  C   UNL     1       1.580   5.147  18.356  0.00  0.00    +0.000 C 
ATOM     30  O   UNL     1       1.240   4.359  17.488  0.00  0.00    +0.000 OA
ENDBRANCH  24  25
ENDBRANCH  23  24
ENDBRANCH  22  23
ENDBRANCH  20  22
ENDBRANCH  17  18
ENDBRANCH  16  17
ENDBRANCH   1  16
TORSDOF 10
ENDMDL
MODEL 9
REMARK VINA RESULT:      -6.7      4.191      7.696
REMARK  Name = 
REMARK  12 active torsions:
REMARK  status: ('A' for Active; 'I' for Inactive)
REMARK    1  A    between atoms: C_1  and  S_2
REMARK    2  A    between atoms: S_2  and  C_3
REMARK    3  A    between atoms: C_6  and  C_7
REMARK    4  A    between atoms: C_9  and  C_10
REMARK    5  A    between atoms: C_10  and  S_11
REMARK    6  A    between atoms: S_11  and  C_12
REMARK    7  A    between atoms: C_12  and  C_13
REMARK    8  A    between atoms: N_15  and  C_16
REMARK    9  A    between atoms: C_16  and  C_17
REMARK   10  A    between atoms: C_17  and  C_18
REMARK   11  A    between atoms: C_18  and  N_19
REMARK   12  A    between atoms: C_25  and  C_26
REMARK                            x       y       z     vdW  Elec       q    Type
REMARK                         _______ _______ _______ _____ _____    ______ ____
ROOT
ATOM      1  C   UNL     1       2.417   5.520  20.523  0.00  0.00    +0.000 C 
ENDROOT
BRANCH   1   4
ATOM      2  C   UNL     1       0.919   8.743  20.289  0.00  0.00    +0.000 A 
ATOM      3  N   UNL     1       1.138   7.630  20.971  0.00  0.00    +0.000 NA
ATOM      4  C   UNL     1       1.962   6.883  20.138  0.00  0.00    +0.000 A 
ATOM      5  C   UNL     1       2.220   7.602  18.989  0.00  0.00    +0.000 A 
ATOM      6  C   UNL     1       2.998   7.392  17.757  0.00  0.00    +0.000 C 
ATOM      7  O   UNL     1       1.556   8.788  19.080  0.00  0.00    +0.000 OA
BRANCH   2  11
ATOM      8  C   UNL     1      -1.333  12.234  21.322  0.00  0.00    +0.000 A 
ATOM      9  C   UNL     1      -0.531  11.598  22.273  0.00  0.00    +0.000 A 
ATOM     10  C   UNL     1       0.193  10.451  21.931  0.00  0.00    +0.000 A 
ATOM     11  C   UNL     1       0.128   9.918  20.638  0.00  0.00    +0.000 A 
ATOM     12  C   UNL     1      -0.713  10.542  19.703  0.00  0.00    +0.000 A 
ATOM     13  C   UNL     1      -1.440  11.688  20.043  0.00  0.00    +0.000 A 
BRANCH   8  15
ATOM     14  C   UNL     1      -3.704  12.984  22.460  0.00  0.00    +0.000 C 
ATOM     15  S   UNL     1      -2.227  13.724  21.713  0.00  0.00    +0.000 S 
ENDBRANCH   8  15
ENDBRANCH   2  11
ENDBRANCH   1   4
BRANCH   1  16
ATOM     16  S   UNL     1       1.358   4.203  19.843  0.00  0.00    +0.000 S 
BRANCH  16  17
ATOM     17  C   UNL     1       2.514   2.793  19.825  0.00  0.00    +0.000 C 
BRANCH  17  18
ATOM     18  C   UNL     1       3.218   2.641  18.487  0.00  0.00    +0.000 C 
ATOM     19  O   UNL     1       3.568   1.552  18.044  0.00  0.00    +0.000 OA
ATOM     20  N   UNL     1       3.424   3.828  17.816  0.00  0.00    +0.000 N 
ATOM     21  H   UNL     1       3.175   4.704  18.280  0.00  0.00    +0.000 HD
BRANCH  20  22
ATOM     22  C   UNL     1       4.112   3.889  16.542  0.00  0.00    +0.000 C 
BRANCH  22  23
ATOM     23  C   UNL     1       5.615   4.078  16.710  0.00  0.00    +0.000 C 
BRANCH  23  24
ATOM     24  C   UNL     1       5.960   4.678  18.070  0.00  0.00    +0.000 C 
BRANCH  24  25
ATOM     25  N   UNL     1       6.829   5.835  17.967  0.00  0.00    +0.000 N 
ATOM     26  C   UNL     1       6.439   7.026  17.252  0.00  0.00    +0.000 C 
ATOM     27  C   UNL     1       7.690   7.877  17.302  0.00  0.00    +0.000 C 
ATOM     28  C   UNL     1       8.318   7.515  18.642  0.00  0.00    +0.000 C 
ATOM     29  C   UNL     1       7.843   6.101  18.878  0.00  0.00    +0.000 C 
ATOM     30  O   UNL     1       8.246   5.361  19.761  0.00  0.00    +0.000 OA
ENDBRANCH  24  25
ENDBRANCH  23  24
ENDBRANCH  22  23
ENDBRANCH  20  22
ENDBRANCH  17  18
ENDBRANCH  16  17
ENDBRANCH   1  16
TORSDOF 10
ENDMDL
