MODEL 1
REMARK VINA RESULT:      -5.7      0.000      0.000
REMARK  Name = 
REMARK  24 active torsions:
REMARK  status: ('A' for Active; 'I' for Inactive)
REMARK    1  A    between atoms: C_1  and  C_2
REMARK    2  A    between atoms: C_2  and  C_3
REMARK    3  A    between atoms: C_3  and  C_4
REMARK    4  A    between atoms: C_4  and  C_5
REMARK    5  A    between atoms: C_5  and  C_6
REMARK    6  A    between atoms: C_6  and  C_7
REMARK    7  A    between atoms: C_7  and  C_8
REMARK    8  A    between atoms: C_8  and  C_9
REMARK    9  A    between atoms: C_9  and  C_10
REMARK   10  A    between atoms: C_10  and  C_11
REMARK   11  A    between atoms: C_11  and  C_12
REMARK   12  A    between atoms: C_12  and  C_13
REMARK   13  A    between atoms: C_13  and  C_14
REMARK   14  A    between atoms: C_14  and  C_15
REMARK   15  A    between atoms: C_15  and  C_16
REMARK   16  A    between atoms: C_16  and  O_18
REMARK   17  A    between atoms: O_18  and  C_19
REMARK   18  A    between atoms: C_19  and  C_20
REMARK   19  A    between atoms: C_20  and  O_21
REMARK   20  A    between atoms: C_20  and  C_22
REMARK   21  A    between atoms: C_22  and  O_23
REMARK   22  A    between atoms: O_23  and  P_24
REMARK   23  A    between atoms: P_24  and  O_26
REMARK   24  A    between atoms: P_24  and  O_27
REMARK                            x       y       z     vdW  Elec       q    Type
REMARK                         _______ _______ _______ _____ _____    ______ ____
ROOT
ATOM      1  C   UNL     1       0.992   4.067  20.241  0.00  0.00    +0.000 C 
ENDROOT
BRANCH   1   2
ATOM      2  C   UNL     1       1.886   2.949  20.821  0.00  0.00    +0.000 C 
ATOM      3  O   UNL     1       2.288   2.919  21.906  0.00  0.00    +0.000 OA
BRANCH   2   4
ATOM      4  O   UNL     1       2.102   2.045  19.800  0.00  0.00    +0.000 OA
BRANCH   4   5
ATOM      5  C   UNL     1       3.500   1.995  19.395  0.00  0.00    +0.000 C 
BRANCH   5   6
ATOM      6  C   UNL     1       3.571   2.255  17.896  0.00  0.00    +0.000 C 
BRANCH   6   7
ATOM      7  O   UNL     1       2.250   2.530  17.369  0.00  0.00    +0.000 OA
ATOM      8  H   UNL     1       1.959   1.687  16.937  0.00  0.00    +0.000 HD
ENDBRANCH   6   7
BRANCH   6   9
ATOM      9  C   UNL     1       4.452   3.508  17.672  0.00  0.00    +0.000 C 
BRANCH   9  10
ATOM     10  O   UNL     1       4.313   4.206  16.389  0.00  0.00    +0.000 OA
BRANCH  10  11
ATOM     11  P   UNL     1       5.614   4.690  15.547  0.00  0.00    +0.000 P 
ATOM     12  O   UNL     1       6.104   5.504  16.732  0.00  0.00    +0.000 OA
BRANCH  11  13
ATOM     13  O   UNL     1       6.771   5.303  14.638  0.00  0.00    +0.000 OA
ATOM     14  H   UNL     1       6.676   6.102  14.022  0.00  0.00    +0.000 HD
ENDBRANCH  11  13
BRANCH  11  15
ATOM     15  O   UNL     1       6.257   3.229  15.531  0.00  0.00    +0.000 OA
ATOM     16  H   UNL     1       7.021   3.054  14.973  0.00  0.00    +0.000 HD
ENDBRANCH  11  15
ENDBRANCH  10  11
ENDBRANCH   9  10
ENDBRANCH   6   9
ENDBRANCH   5   6
ENDBRANCH   4   5
ENDBRANCH   2   4
ENDBRANCH   1   2
BRANCH   1  17
ATOM     17  C   UNL     1       1.850   5.308  20.030  0.00  0.00    +0.000 C 
BRANCH  17  18
ATOM     18  C   UNL     1       1.960   5.673  18.546  0.00  0.00    +0.000 C 
BRANCH  18  19
ATOM     19  C   UNL     1       2.827   6.922  18.397  0.00  0.00    +0.000 C 
BRANCH  19  20
ATOM     20  C   UNL     1       2.079   8.133  18.931  0.00  0.00    +0.000 C 
BRANCH  20  21
ATOM     21  C   UNL     1       2.037   9.231  17.882  0.00  0.00    +0.000 C 
BRANCH  21  22
ATOM     22  C   UNL     1       1.313  10.450  18.430  0.00  0.00    +0.000 C 
BRANCH  22  23
ATOM     23  C   UNL     1      -0.174  10.169  18.531  0.00  0.00    +0.000 C 
BRANCH  23  24
ATOM     24  C   UNL     1      -0.706  10.660  19.866  0.00  0.00    +0.000 C 
BRANCH  24  25
ATOM     25  C   UNL     1      -1.723  11.762  19.652  0.00  0.00    +0.000 C 
BRANCH  25  26
ATOM     26  C   UNL     1      -2.125  11.852  18.193  0.00  0.00    +0.000 C 
BRANCH  26  27
ATOM     27  C   UNL     1      -3.579  11.541  18.010  0.00  0.00    +0.000 C 
BRANCH  27  28
ATOM     28  C   UNL     1      -3.789  10.580  16.836  0.00  0.00    +0.000 C 
BRANCH  28  30
ATOM     29  C   UNL     1      -3.041  10.056  14.520  0.00  0.00    +0.000 C 
ATOM     30  C   UNL     1      -2.660  10.739  15.817  0.00  0.00    +0.000 C 
ENDBRANCH  28  30
ENDBRANCH  27  28
ENDBRANCH  26  27
ENDBRANCH  25  26
ENDBRANCH  24  25
ENDBRANCH  23  24
ENDBRANCH  22  23
ENDBRANCH  21  22
ENDBRANCH  20  21
ENDBRANCH  19  20
ENDBRANCH  18  19
ENDBRANCH  17  18
ENDBRANCH   1  17
TORSDOF 23
ENDMDL
MODEL 2
REMARK VINA RESULT:      -5.6      6.462      8.686
REMARK  Name = 
REMARK  24 active torsions:
REMARK  status: ('A' for Active; 'I' for Inactive)
REMARK    1  A    between atoms: C_1  and  C_2
REMARK    2  A    between atoms: C_2  and  C_3
REMARK    3  A    between atoms: C_3  and  C_4
REMARK    4  A    between atoms: C_4  and  C_5
REMARK    5  A    between atoms: C_5  and  C_6
REMARK    6  A    between atoms: C_6  and  C_7
REMARK    7  A    between atoms: C_7  and  C_8
REMARK    8  A    between atoms: C_8  and  C_9
REMARK    9  A    between atoms: C_9  and  C_10
REMARK   10  A    between atoms: C_10  and  C_11
REMARK   11  A    between atoms: C_11  and  C_12
REMARK   12  A    between atoms: C_12  and  C_13
REMARK   13  A    between atoms: C_13  and  C_14
REMARK   14  A    between atoms: C_14  and  C_15
REMARK   15  A    between atoms: C_15  and  C_16
REMARK   16  A    between atoms: C_16  and  O_18
REMARK   17  A    between atoms: O_18  and  C_19
REMARK   18  A    between atoms: C_19  and  C_20
REMARK   19  A    between atoms: C_20  and  O_21
REMARK   20  A    between atoms: C_20  and  C_22
REMARK   21  A    between atoms: C_22  and  O_23
REMARK   22  A    between atoms: O_23  and  P_24
REMARK   23  A    between atoms: P_24  and  O_26
REMARK   24  A    between atoms: P_24  and  O_27
REMARK                            x       y       z     vdW  Elec       q    Type
REMARK                         _______ _______ _______ _____ _____    ______ ____
ROOT
ATOM      1  C   UNL     1       6.890   5.487  19.004  0.00  0.00    +0.000 C 
ENDROOT
BRANCH   1   2
ATOM      2  C   UNL     1       5.363   5.281  18.908  0.00  0.00    +0.000 C 
ATOM      3  O   UNL     1       4.572   5.936  19.441  0.00  0.00    +0.000 OA
BRANCH   2   4
ATOM      4  O   UNL     1       5.161   4.183  18.095  0.00  0.00    +0.000 OA
BRANCH   4   5
ATOM      5  C   UNL     1       4.574   3.063  18.819  0.00  0.00    +0.000 C 
BRANCH   5   6
ATOM      6  C   UNL     1       3.587   2.363  17.894  0.00  0.00    +0.000 C 
BRANCH   6   7
ATOM      7  O   UNL     1       3.089   1.152  18.512  0.00  0.00    +0.000 OA
ATOM      8  H   UNL     1       3.264   1.259  19.481  0.00  0.00    +0.000 HD
ENDBRANCH   6   7
BRANCH   6   9
ATOM      9  C   UNL     1       2.390   3.319  17.667  0.00  0.00    +0.000 C 
BRANCH   9  10
ATOM     10  O   UNL     1       1.940   4.114  18.814  0.00  0.00    +0.000 OA
BRANCH  10  11
ATOM     11  P   UNL     1       1.302   3.410  20.131  0.00  0.00    +0.000 P 
ATOM     12  O   UNL     1       0.717   4.737  20.583  0.00  0.00    +0.000 OA
BRANCH  11  13
ATOM     13  O   UNL     1       0.857   2.739  21.506  0.00  0.00    +0.000 OA
ATOM     14  H   UNL     1       1.046   3.109  22.431  0.00  0.00    +0.000 HD
ENDBRANCH  11  13
BRANCH  11  15
ATOM     15  O   UNL     1       0.251   2.564  19.279  0.00  0.00    +0.000 OA
ATOM     16  H   UNL     1       0.427   1.635  19.097  0.00  0.00    +0.000 HD
ENDBRANCH  11  15
ENDBRANCH  10  11
ENDBRANCH   9  10
ENDBRANCH   6   9
ENDBRANCH   5   6
ENDBRANCH   4   5
ENDBRANCH   2   4
ENDBRANCH   1   2
BRANCH   1  17
ATOM     17  C   UNL     1       7.405   5.901  17.631  0.00  0.00    +0.000 C 
BRANCH  17  18
ATOM     18  C   UNL     1       7.305   7.417  17.423  0.00  0.00    +0.000 C 
BRANCH  18  19
ATOM     19  C   UNL     1       8.264   8.121  18.382  0.00  0.00    +0.000 C 
BRANCH  19  20
ATOM     20  C   UNL     1       8.330   9.601  18.046  0.00  0.00    +0.000 C 
BRANCH  20  21
ATOM     21  C   UNL     1       9.317  10.306  18.963  0.00  0.00    +0.000 C 
BRANCH  21  22
ATOM     22  C   UNL     1      10.135  11.314  18.173  0.00  0.00    +0.000 C 
BRANCH  22  23
ATOM     23  C   UNL     1      11.454  11.577  18.874  0.00  0.00    +0.000 C 
BRANCH  23  24
ATOM     24  C   UNL     1      11.201  12.109  20.274  0.00  0.00    +0.000 C 
BRANCH  24  25
ATOM     25  C   UNL     1      11.086  13.619  20.248  0.00  0.00    +0.000 C 
BRANCH  25  26
ATOM     26  C   UNL     1       9.714  14.065  20.712  0.00  0.00    +0.000 C 
BRANCH  26  27
ATOM     27  C   UNL     1       9.215  15.220  19.898  0.00  0.00    +0.000 C 
BRANCH  27  28
ATOM     28  C   UNL     1       9.450  14.977  18.404  0.00  0.00    +0.000 C 
BRANCH  28  30
ATOM     29  C   UNL     1      11.212  15.792  16.846  0.00  0.00    +0.000 C 
ATOM     30  C   UNL     1      10.082  16.213  17.763  0.00  0.00    +0.000 C 
ENDBRANCH  28  30
ENDBRANCH  27  28
ENDBRANCH  26  27
ENDBRANCH  25  26
ENDBRANCH  24  25
ENDBRANCH  23  24
ENDBRANCH  22  23
ENDBRANCH  21  22
ENDBRANCH  20  21
ENDBRANCH  19  20
ENDBRANCH  18  19
ENDBRANCH  17  18
ENDBRANCH   1  17
TORSDOF 23
ENDMDL
MODEL 3
REMARK VINA RESULT:      -5.5      5.732      9.285
REMARK  Name = 
REMARK  24 active torsions:
REMARK  status: ('A' for Active; 'I' for Inactive)
REMARK    1  A    between atoms: C_1  and  C_2
REMARK    2  A    between atoms: C_2  and  C_3
REMARK    3  A    between atoms: C_3  and  C_4
REMARK    4  A    between atoms: C_4  and  C_5
REMARK    5  A    between atoms: C_5  and  C_6
REMARK    6  A    between atoms: C_6  and  C_7
REMARK    7  A    between atoms: C_7  and  C_8
REMARK    8  A    between atoms: C_8  and  C_9
REMARK    9  A    between atoms: C_9  and  C_10
REMARK   10  A    between atoms: C_10  and  C_11
REMARK   11  A    between atoms: C_11  and  C_12
REMARK   12  A    between atoms: C_12  and  C_13
REMARK   13  A    between atoms: C_13  and  C_14
REMARK   14  A    between atoms: C_14  and  C_15
REMARK   15  A    between atoms: C_15  and  C_16
REMARK   16  A    between atoms: C_16  and  O_18
REMARK   17  A    between atoms: O_18  and  C_19
REMARK   18  A    between atoms: C_19  and  C_20
REMARK   19  A    between atoms: C_20  and  O_21
REMARK   20  A    between atoms: C_20  and  C_22
REMARK   21  A    between atoms: C_22  and  O_23
REMARK   22  A    between atoms: O_23  and  P_24
REMARK   23  A    between atoms: P_24  and  O_26
REMARK   24  A    between atoms: P_24  and  O_27
REMARK                            x       y       z     vdW  Elec       q    Type
REMARK                         _______ _______ _______ _____ _____    ______ ____
ROOT
ATOM      1  C   UNL     1       1.086   9.163  17.953  0.00  0.00    +0.000 C 
ENDROOT
BRANCH   1   2
ATOM      2  C   UNL     1       1.230  10.537  18.644  0.00  0.00    +0.000 C 
ATOM      3  O   UNL     1       2.062  11.308  18.417  0.00  0.00    +0.000 OA
BRANCH   2   4
ATOM      4  O   UNL     1       0.201  10.628  19.562  0.00  0.00    +0.000 OA
BRANCH   4   5
ATOM      5  C   UNL     1       0.690  10.842  20.917  0.00  0.00    +0.000 C 
BRANCH   5   6
ATOM      6  C   UNL     1      -0.465  11.360  21.764  0.00  0.00    +0.000 C 
BRANCH   6   7
ATOM      7  O   UNL     1      -0.282  10.983  23.151  0.00  0.00    +0.000 OA
ATOM      8  H   UNL     1      -0.722  10.100  23.243  0.00  0.00    +0.000 HD
ENDBRANCH   6   7
BRANCH   6   9
ATOM      9  C   UNL     1      -0.461  12.906  21.678  0.00  0.00    +0.000 C 
BRANCH   9  10
ATOM     10  O   UNL     1       0.446  13.521  20.702  0.00  0.00    +0.000 OA
BRANCH  10  11
ATOM     11  P   UNL     1      -0.113  14.483  19.520  0.00  0.00    +0.000 P 
ATOM     12  O   UNL     1       1.242  14.464  18.834  0.00  0.00    +0.000 OA
BRANCH  11  13
ATOM     13  O   UNL     1      -0.628  15.581  18.485  0.00  0.00    +0.000 OA
ATOM     14  H   UNL     1      -0.298  15.693  17.533  0.00  0.00    +0.000 HD
ENDBRANCH  11  13
BRANCH  11  15
ATOM     15  O   UNL     1      -1.083  13.357  18.940  0.00  0.00    +0.000 OA
ATOM     16  H   UNL     1      -0.773  12.447  18.886  0.00  0.00    +0.000 HD
ENDBRANCH  11  15
ENDBRANCH  10  11
ENDBRANCH   9  10
ENDBRANCH   6   9
ENDBRANCH   5   6
ENDBRANCH   4   5
ENDBRANCH   2   4
ENDBRANCH   1   2
BRANCH   1  17
ATOM     17  C   UNL     1       2.271   8.295  18.359  0.00  0.00    +0.000 C 
BRANCH  17  18
ATOM     18  C   UNL     1       2.023   7.590  19.697  0.00  0.00    +0.000 C 
BRANCH  18  19
ATOM     19  C   UNL     1       2.427   6.122  19.575  0.00  0.00    +0.000 C 
BRANCH  19  20
ATOM     20  C   UNL     1       1.863   5.335  20.747  0.00  0.00    +0.000 C 
BRANCH  20  21
ATOM     21  C   UNL     1       0.929   4.245  20.249  0.00  0.00    +0.000 C 
BRANCH  21  22
ATOM     22  C   UNL     1       1.715   2.978  19.955  0.00  0.00    +0.000 C 
BRANCH  22  23
ATOM     23  C   UNL     1       1.426   2.501  18.545  0.00  0.00    +0.000 C 
BRANCH  23  24
ATOM     24  C   UNL     1       2.719   2.401  17.755  0.00  0.00    +0.000 C 
BRANCH  24  25
ATOM     25  C   UNL     1       3.902   2.730  18.642  0.00  0.00    +0.000 C 
BRANCH  25  26
ATOM     26  C   UNL     1       4.808   3.750  17.980  0.00  0.00    +0.000 C 
BRANCH  26  27
ATOM     27  C   UNL     1       4.086   4.498  16.901  0.00  0.00    +0.000 C 
BRANCH  27  28
ATOM     28  C   UNL     1       4.833   5.785  16.535  0.00  0.00    +0.000 C 
BRANCH  28  30
ATOM     29  C   UNL     1       7.053   6.635  17.274  0.00  0.00    +0.000 C 
ATOM     30  C   UNL     1       5.653   6.275  17.728  0.00  0.00    +0.000 C 
ENDBRANCH  28  30
ENDBRANCH  27  28
ENDBRANCH  26  27
ENDBRANCH  25  26
ENDBRANCH  24  25
ENDBRANCH  23  24
ENDBRANCH  22  23
ENDBRANCH  21  22
ENDBRANCH  20  21
ENDBRANCH  19  20
ENDBRANCH  18  19
ENDBRANCH  17  18
ENDBRANCH   1  17
TORSDOF 23
ENDMDL
MODEL 4
REMARK VINA RESULT:      -5.5      2.095      4.300
REMARK  Name = 
REMARK  24 active torsions:
REMARK  status: ('A' for Active; 'I' for Inactive)
REMARK    1  A    between atoms: C_1  and  C_2
REMARK    2  A    between atoms: C_2  and  C_3
REMARK    3  A    between atoms: C_3  and  C_4
REMARK    4  A    between atoms: C_4  and  C_5
REMARK    5  A    between atoms: C_5  and  C_6
REMARK    6  A    between atoms: C_6  and  C_7
REMARK    7  A    between atoms: C_7  and  C_8
REMARK    8  A    between atoms: C_8  and  C_9
REMARK    9  A    between atoms: C_9  and  C_10
REMARK   10  A    between atoms: C_10  and  C_11
REMARK   11  A    between atoms: C_11  and  C_12
REMARK   12  A    between atoms: C_12  and  C_13
REMARK   13  A    between atoms: C_13  and  C_14
REMARK   14  A    between atoms: C_14  and  C_15
REMARK   15  A    between atoms: C_15  and  C_16
REMARK   16  A    between atoms: C_16  and  O_18
REMARK   17  A    between atoms: O_18  and  C_19
REMARK   18  A    between atoms: C_19  and  C_20
REMARK   19  A    between atoms: C_20  and  O_21
REMARK   20  A    between atoms: C_20  and  C_22
REMARK   21  A    between atoms: C_22  and  O_23
REMARK   22  A    between atoms: O_23  and  P_24
REMARK   23  A    between atoms: P_24  and  O_26
REMARK   24  A    between atoms: P_24  and  O_27
REMARK                            x       y       z     vdW  Elec       q    Type
REMARK                         _______ _______ _______ _____ _____    ______ ____
ROOT
ATOM      1  C   UNL     1       3.874   2.800  18.334  0.00  0.00    +0.000 C 
ENDROOT
BRANCH   1   2
ATOM      2  C   UNL     1       4.960   3.862  18.056  0.00  0.00    +0.000 C 
ATOM      3  O   UNL     1       5.459   4.525  18.863  0.00  0.00    +0.000 OA
BRANCH   2   4
ATOM      4  O   UNL     1       5.180   3.856  16.693  0.00  0.00    +0.000 OA
BRANCH   4   5
ATOM      5  C   UNL     1       5.172   5.199  16.128  0.00  0.00    +0.000 C 
BRANCH   5   6
ATOM      6  C   UNL     1       6.585   5.530  15.665  0.00  0.00    +0.000 C 
BRANCH   6   7
ATOM      7  O   UNL     1       7.548   5.156  16.679  0.00  0.00    +0.000 OA
ATOM      8  H   UNL     1       7.729   4.193  16.529  0.00  0.00    +0.000 HD
ENDBRANCH   6   7
BRANCH   6   9
ATOM      9  C   UNL     1       6.874   4.699  14.392  0.00  0.00    +0.000 C 
BRANCH   9  10
ATOM     10  O   UNL     1       5.717   4.191  13.645  0.00  0.00    +0.000 OA
BRANCH  10  11
ATOM     11  P   UNL     1       5.890   3.074  12.479  0.00  0.00    +0.000 P 
ATOM     12  O   UNL     1       4.577   3.503  11.846  0.00  0.00    +0.000 OA
BRANCH  11  13
ATOM     13  O   UNL     1       5.985   1.847  11.467  0.00  0.00    +0.000 OA
ATOM     14  H   UNL     1       5.201   1.408  10.998  0.00  0.00    +0.000 HD
ENDBRANCH  11  13
BRANCH  11  15
ATOM     15  O   UNL     1       7.134   3.826  11.820  0.00  0.00    +0.000 OA
ATOM     16  H   UNL     1       6.990   4.413  11.072  0.00  0.00    +0.000 HD
ENDBRANCH  11  15
ENDBRANCH  10  11
ENDBRANCH   9  10
ENDBRANCH   6   9
ENDBRANCH   5   6
ENDBRANCH   4   5
ENDBRANCH   2   4
ENDBRANCH   1   2
BRANCH   1  17
ATOM     17  C   UNL     1       4.060   2.283  19.755  0.00  0.00    +0.000 C 
BRANCH  17  18
ATOM     18  C   UNL     1       2.786   2.455  20.590  0.00  0.00    +0.000 C 
BRANCH  18  19
ATOM     19  C   UNL     1       1.721   3.154  19.746  0.00  0.00    +0.000 C 
BRANCH  19  20
ATOM     20  C   UNL     1       0.942   4.131  20.610  0.00  0.00    +0.000 C 
BRANCH  20  21
ATOM     21  C   UNL     1       1.671   5.463  20.687  0.00  0.00    +0.000 C 
BRANCH  21  22
ATOM     22  C   UNL     1       2.190   5.854  19.313  0.00  0.00    +0.000 C 
BRANCH  22  23
ATOM     23  C   UNL     1       2.713   7.277  19.340  0.00  0.00    +0.000 C 
BRANCH  23  24
ATOM     24  C   UNL     1       2.764   7.839  17.930  0.00  0.00    +0.000 C 
BRANCH  24  25
ATOM     25  C   UNL     1       1.564   8.728  17.676  0.00  0.00    +0.000 C 
BRANCH  25  26
ATOM     26  C   UNL     1       1.386   9.731  18.799  0.00  0.00    +0.000 C 
BRANCH  26  27
ATOM     27  C   UNL     1       0.291  10.705  18.488  0.00  0.00    +0.000 C 
BRANCH  27  28
ATOM     28  C   UNL     1      -1.078  10.123  18.851  0.00  0.00    +0.000 C 
BRANCH  28  30
ATOM     29  C   UNL     1      -2.547   9.913  16.852  0.00  0.00    +0.000 C 
ATOM     30  C   UNL     1      -2.173  10.797  18.024  0.00  0.00    +0.000 C 
ENDBRANCH  28  30
ENDBRANCH  27  28
ENDBRANCH  26  27
ENDBRANCH  25  26
ENDBRANCH  24  25
ENDBRANCH  23  24
ENDBRANCH  22  23
ENDBRANCH  21  22
ENDBRANCH  20  21
ENDBRANCH  19  20
ENDBRANCH  18  19
ENDBRANCH  17  18
ENDBRANCH   1  17
TORSDOF 23
ENDMDL
MODEL 5
REMARK VINA RESULT:      -5.5      1.359      2.471
REMARK  Name = 
REMARK  24 active torsions:
REMARK  status: ('A' for Active; 'I' for Inactive)
REMARK    1  A    between atoms: C_1  and  C_2
REMARK    2  A    between atoms: C_2  and  C_3
REMARK    3  A    between atoms: C_3  and  C_4
REMARK    4  A    between atoms: C_4  and  C_5
REMARK    5  A    between atoms: C_5  and  C_6
REMARK    6  A    between atoms: C_6  and  C_7
REMARK    7  A    between atoms: C_7  and  C_8
REMARK    8  A    between atoms: C_8  and  C_9
REMARK    9  A    between atoms: C_9  and  C_10
REMARK   10  A    between atoms: C_10  and  C_11
REMARK   11  A    between atoms: C_11  and  C_12
REMARK   12  A    between atoms: C_12  and  C_13
REMARK   13  A    between atoms: C_13  and  C_14
REMARK   14  A    between atoms: C_14  and  C_15
REMARK   15  A    between atoms: C_15  and  C_16
REMARK   16  A    between atoms: C_16  and  O_18
REMARK   17  A    between atoms: O_18  and  C_19
REMARK   18  A    between atoms: C_19  and  C_20
REMARK   19  A    between atoms: C_20  and  O_21
REMARK   20  A    between atoms: C_20  and  C_22
REMARK   21  A    between atoms: C_22  and  O_23
REMARK   22  A    between atoms: O_23  and  P_24
REMARK   23  A    between atoms: P_24  and  O_26
REMARK   24  A    between atoms: P_24  and  O_27
REMARK                            x       y       z     vdW  Elec       q    Type
REMARK                         _______ _______ _______ _____ _____    ______ ____
ROOT
ATOM      1  C   UNL     1       0.956   2.914  18.666  0.00  0.00    +0.000 C 
ENDROOT
BRANCH   1   2
ATOM      2  C   UNL     1       2.436   2.533  18.442  0.00  0.00    +0.000 C 
ATOM      3  O   UNL     1       2.904   1.510  18.711  0.00  0.00    +0.000 OA
BRANCH   2   4
ATOM      4  O   UNL     1       3.051   3.641  17.892  0.00  0.00    +0.000 OA
BRANCH   4   5
ATOM      5  C   UNL     1       4.486   3.447  17.723  0.00  0.00    +0.000 C 
BRANCH   5   6
ATOM      6  C   UNL     1       5.206   4.596  18.416  0.00  0.00    +0.000 C 
BRANCH   6   7
ATOM      7  O   UNL     1       6.520   4.175  18.858  0.00  0.00    +0.000 OA
ATOM      8  H   UNL     1       6.532   4.334  19.836  0.00  0.00    +0.000 HD
ENDBRANCH   6   7
BRANCH   6   9
ATOM      9  C   UNL     1       5.384   5.736  17.384  0.00  0.00    +0.000 C 
BRANCH   9  10
ATOM     10  O   UNL     1       6.542   5.654  16.487  0.00  0.00    +0.000 OA
BRANCH  10  11
ATOM     11  P   UNL     1       6.543   4.668  15.198  0.00  0.00    +0.000 P 
ATOM     12  O   UNL     1       5.275   5.319  14.672  0.00  0.00    +0.000 OA
BRANCH  11  13
ATOM     13  O   UNL     1       6.459   3.565  14.051  0.00  0.00    +0.000 OA
ATOM     14  H   UNL     1       6.368   3.752  13.058  0.00  0.00    +0.000 HD
ENDBRANCH  11  13
BRANCH  11  15
ATOM     15  O   UNL     1       7.850   5.339  14.575  0.00  0.00    +0.000 OA
ATOM     16  H   UNL     1       8.538   5.670  15.160  0.00  0.00    +0.000 HD
ENDBRANCH  11  15
ENDBRANCH  10  11
ENDBRANCH   9  10
ENDBRANCH   6   9
ENDBRANCH   5   6
ENDBRANCH   4   5
ENDBRANCH   2   4
ENDBRANCH   1   2
BRANCH   1  17
ATOM     17  C   UNL     1       0.842   3.629  20.006  0.00  0.00    +0.000 C 
BRANCH  17  18
ATOM     18  C   UNL     1       2.206   3.764  20.693  0.00  0.00    +0.000 C 
BRANCH  18  19
ATOM     19  C   UNL     1       2.498   5.242  20.946  0.00  0.00    +0.000 C 
BRANCH  19  20
ATOM     20  C   UNL     1       1.642   6.099  20.027  0.00  0.00    +0.000 C 
BRANCH  20  21
ATOM     21  C   UNL     1       2.441   7.289  19.522  0.00  0.00    +0.000 C 
BRANCH  21  22
ATOM     22  C   UNL     1       2.054   7.606  18.086  0.00  0.00    +0.000 C 
BRANCH  22  23
ATOM     23  C   UNL     1       1.520   9.022  17.992  0.00  0.00    +0.000 C 
BRANCH  23  24
ATOM     24  C   UNL     1       1.066   9.499  19.361  0.00  0.00    +0.000 C 
BRANCH  24  25
ATOM     25  C   UNL     1      -0.290  10.164  19.261  0.00  0.00    +0.000 C 
BRANCH  25  26
ATOM     26  C   UNL     1      -0.838  10.069  17.850  0.00  0.00    +0.000 C 
BRANCH  26  27
ATOM     27  C   UNL     1      -2.277   9.653  17.853  0.00  0.00    +0.000 C 
BRANCH  27  28
ATOM     28  C   UNL     1      -3.162  10.742  17.238  0.00  0.00    +0.000 C 
BRANCH  28  30
ATOM     29  C   UNL     1      -3.220  10.051  14.847  0.00  0.00    +0.000 C 
ATOM     30  C   UNL     1      -2.682  11.075  15.826  0.00  0.00    +0.000 C 
ENDBRANCH  28  30
ENDBRANCH  27  28
ENDBRANCH  26  27
ENDBRANCH  25  26
ENDBRANCH  24  25
ENDBRANCH  23  24
ENDBRANCH  22  23
ENDBRANCH  21  22
ENDBRANCH  20  21
ENDBRANCH  19  20
ENDBRANCH  18  19
ENDBRANCH  17  18
ENDBRANCH   1  17
TORSDOF 23
ENDMDL
MODEL 6
REMARK VINA RESULT:      -5.5      2.334      3.970
REMARK  Name = 
REMARK  24 active torsions:
REMARK  status: ('A' for Active; 'I' for Inactive)
REMARK    1  A    between atoms: C_1  and  C_2
REMARK    2  A    between atoms: C_2  and  C_3
REMARK    3  A    between atoms: C_3  and  C_4
REMARK    4  A    between atoms: C_4  and  C_5
REMARK    5  A    between atoms: C_5  and  C_6
REMARK    6  A    between atoms: C_6  and  C_7
REMARK    7  A    between atoms: C_7  and  C_8
REMARK    8  A    between atoms: C_8  and  C_9
REMARK    9  A    between atoms: C_9  and  C_10
REMARK   10  A    between atoms: C_10  and  C_11
REMARK   11  A    between atoms: C_11  and  C_12
REMARK   12  A    between atoms: C_12  and  C_13
REMARK   13  A    between atoms: C_13  and  C_14
REMARK   14  A    between atoms: C_14  and  C_15
REMARK   15  A    between atoms: C_15  and  C_16
REMARK   16  A    between atoms: C_16  and  O_18
REMARK   17  A    between atoms: O_18  and  C_19
REMARK   18  A    between atoms: C_19  and  C_20
REMARK   19  A    between atoms: C_20  and  O_21
REMARK   20  A    between atoms: C_20  and  C_22
REMARK   21  A    between atoms: C_22  and  O_23
REMARK   22  A    between atoms: O_23  and  P_24
REMARK   23  A    between atoms: P_24  and  O_26
REMARK   24  A    between atoms: P_24  and  O_27
REMARK                            x       y       z     vdW  Elec       q    Type
REMARK                         _______ _______ _______ _____ _____    ______ ____
ROOT
ATOM      1  C   UNL     1       3.816   3.549  19.355  0.00  0.00    +0.000 C 
ENDROOT
BRANCH   1   2
ATOM      2  C   UNL     1       3.976   3.828  17.844  0.00  0.00    +0.000 C 
ATOM      3  O   UNL     1       3.503   3.193  17.001  0.00  0.00    +0.000 OA
BRANCH   2   4
ATOM      4  O   UNL     1       4.784   4.942  17.731  0.00  0.00    +0.000 OA
BRANCH   4   5
ATOM      5  C   UNL     1       5.609   5.147  18.914  0.00  0.00    +0.000 C 
BRANCH   5   6
ATOM      6  C   UNL     1       7.020   5.491  18.456  0.00  0.00    +0.000 C 
BRANCH   6   7
ATOM      7  O   UNL     1       7.768   4.283  18.175  0.00  0.00    +0.000 OA
ATOM      8  H   UNL     1       8.186   4.432  17.288  0.00  0.00    +0.000 HD
ENDBRANCH   6   7
BRANCH   6   9
ATOM      9  C   UNL     1       6.909   6.308  17.146  0.00  0.00    +0.000 C 
BRANCH   9  10
ATOM     10  O   UNL     1       7.388   5.671  15.915  0.00  0.00    +0.000 OA
BRANCH  10  11
ATOM     11  P   UNL     1       6.375   4.873  14.928  0.00  0.00    +0.000 P 
ATOM     12  O   UNL     1       7.315   5.090  13.754  0.00  0.00    +0.000 OA
BRANCH  11  13
ATOM     13  O   UNL     1       5.279   4.261  13.946  0.00  0.00    +0.000 OA
ATOM     14  H   UNL     1       4.415   3.814  14.232  0.00  0.00    +0.000 HD
ENDBRANCH  11  13
BRANCH  11  15
ATOM     15  O   UNL     1       6.641   3.471  15.643  0.00  0.00    +0.000 OA
ATOM     16  H   UNL     1       5.956   2.796  15.631  0.00  0.00    +0.000 HD
ENDBRANCH  11  15
ENDBRANCH  10  11
ENDBRANCH   9  10
ENDBRANCH   6   9
ENDBRANCH   5   6
ENDBRANCH   4   5
ENDBRANCH   2   4
ENDBRANCH   1   2
BRANCH   1  17
ATOM     17  C   UNL     1       2.465   2.883  19.580  0.00  0.00    +0.000 C 
BRANCH  17  18
ATOM     18  C   UNL     1       1.384   3.906  19.946  0.00  0.00    +0.000 C 
BRANCH  18  19
ATOM     19  C   UNL     1       2.035   5.096  20.649  0.00  0.00    +0.000 C 
BRANCH  19  20
ATOM     20  C   UNL     1       1.571   6.391  20.001  0.00  0.00    +0.000 C 
BRANCH  20  21
ATOM     21  C   UNL     1       2.769   7.214  19.555  0.00  0.00    +0.000 C 
BRANCH  21  22
ATOM     22  C   UNL     1       2.626   7.592  18.090  0.00  0.00    +0.000 C 
BRANCH  22  23
ATOM     23  C   UNL     1       1.408   8.475  17.897  0.00  0.00    +0.000 C 
BRANCH  23  24
ATOM     24  C   UNL     1       1.527   9.720  18.759  0.00  0.00    +0.000 C 
BRANCH  24  25
ATOM     25  C   UNL     1       0.163  10.135  19.270  0.00  0.00    +0.000 C 
BRANCH  25  26
ATOM     26  C   UNL     1      -0.120  11.588  18.940  0.00  0.00    +0.000 C 
BRANCH  26  27
ATOM     27  C   UNL     1      -0.571  12.342  20.154  0.00  0.00    +0.000 C 
BRANCH  27  28
ATOM     28  C   UNL     1       0.082  11.780  21.421  0.00  0.00    +0.000 C 
BRANCH  28  30
ATOM     29  C   UNL     1      -0.656  10.054  23.056  0.00  0.00    +0.000 C 
ATOM     30  C   UNL     1      -0.991  11.397  22.440  0.00  0.00    +0.000 C 
ENDBRANCH  28  30
ENDBRANCH  27  28
ENDBRANCH  26  27
ENDBRANCH  25  26
ENDBRANCH  24  25
ENDBRANCH  23  24
ENDBRANCH  22  23
ENDBRANCH  21  22
ENDBRANCH  20  21
ENDBRANCH  19  20
ENDBRANCH  18  19
ENDBRANCH  17  18
ENDBRANCH   1  17
TORSDOF 23
ENDMDL
MODEL 7
REMARK VINA RESULT:      -5.4      5.170      8.786
REMARK  Name = 
REMARK  24 active torsions:
REMARK  status: ('A' for Active; 'I' for Inactive)
REMARK    1  A    between atoms: C_1  and  C_2
REMARK    2  A    between atoms: C_2  and  C_3
REMARK    3  A    between atoms: C_3  and  C_4
REMARK    4  A    between atoms: C_4  and  C_5
REMARK    5  A    between atoms: C_5  and  C_6
REMARK    6  A    between atoms: C_6  and  C_7
REMARK    7  A    between atoms: C_7  and  C_8
REMARK    8  A    between atoms: C_8  and  C_9
REMARK    9  A    between atoms: C_9  and  C_10
REMARK   10  A    between atoms: C_10  and  C_11
REMARK   11  A    between atoms: C_11  and  C_12
REMARK   12  A    between atoms: C_12  and  C_13
REMARK   13  A    between atoms: C_13  and  C_14
REMARK   14  A    between atoms: C_14  and  C_15
REMARK   15  A    between atoms: C_15  and  C_16
REMARK   16  A    between atoms: C_16  and  O_18
REMARK   17  A    between atoms: O_18  and  C_19
REMARK   18  A    between atoms: C_19  and  C_20
REMARK   19  A    between atoms: C_20  and  O_21
REMARK   20  A    between atoms: C_20  and  C_22
REMARK   21  A    between atoms: C_22  and  O_23
REMARK   22  A    between atoms: O_23  and  P_24
REMARK   23  A    between atoms: P_24  and  O_26
REMARK   24  A    between atoms: P_24  and  O_27
REMARK                            x       y       z     vdW  Elec       q    Type
REMARK                         _______ _______ _______ _____ _____    ______ ____
ROOT
ATOM      1  C   UNL     1       3.137   6.299  20.146  0.00  0.00    +0.000 C 
ENDROOT
BRANCH   1   2
ATOM      2  C   UNL     1       2.684   6.883  18.790  0.00  0.00    +0.000 C 
ATOM      3  O   UNL     1       3.022   6.491  17.755  0.00  0.00    +0.000 OA
BRANCH   2   4
ATOM      4  O   UNL     1       1.839   7.938  19.075  0.00  0.00    +0.000 OA
BRANCH   4   5
ATOM      5  C   UNL     1       1.728   8.871  17.961  0.00  0.00    +0.000 C 
BRANCH   5   6
ATOM      6  C   UNL     1       1.703  10.285  18.526  0.00  0.00    +0.000 C 
BRANCH   6   7
ATOM      7  O   UNL     1       2.144  11.235  17.525  0.00  0.00    +0.000 OA
ATOM      8  H   UNL     1       3.097  11.022  17.361  0.00  0.00    +0.000 HD
ENDBRANCH   6   7
BRANCH   6   9
ATOM      9  C   UNL     1       0.240  10.620  18.902  0.00  0.00    +0.000 C 
BRANCH   9  10
ATOM     10  O   UNL     1      -0.783  10.404  17.873  0.00  0.00    +0.000 OA
BRANCH  10  11
ATOM     11  P   UNL     1      -2.104  11.345  17.785  0.00  0.00    +0.000 P 
ATOM     12  O   UNL     1      -2.122  11.496  19.297  0.00  0.00    +0.000 OA
BRANCH  11  13
ATOM     13  O   UNL     1      -3.505  12.099  17.687  0.00  0.00    +0.000 OA
ATOM     14  H   UNL     1      -3.722  12.996  18.107  0.00  0.00    +0.000 HD
ENDBRANCH  11  13
BRANCH  11  15
ATOM     15  O   UNL     1      -1.314  12.541  17.084  0.00  0.00    +0.000 OA
ATOM     16  H   UNL     1      -0.446  12.377  16.704  0.00  0.00    +0.000 HD
ENDBRANCH  11  15
ENDBRANCH  10  11
ENDBRANCH   9  10
ENDBRANCH   6   9
ENDBRANCH   5   6
ENDBRANCH   4   5
ENDBRANCH   2   4
ENDBRANCH   1   2
BRANCH   1  17
ATOM     17  C   UNL     1       2.775   4.819  20.177  0.00  0.00    +0.000 C 
BRANCH  17  18
ATOM     18  C   UNL     1       1.283   4.608  20.458  0.00  0.00    +0.000 C 
BRANCH  18  19
ATOM     19  C   UNL     1       0.798   3.371  19.705  0.00  0.00    +0.000 C 
BRANCH  19  20
ATOM     20  C   UNL     1       1.388   3.360  18.304  0.00  0.00    +0.000 C 
BRANCH  20  21
ATOM     21  C   UNL     1       2.033   2.014  18.015  0.00  0.00    +0.000 C 
BRANCH  21  22
ATOM     22  C   UNL     1       3.539   2.174  17.884  0.00  0.00    +0.000 C 
BRANCH  22  23
ATOM     23  C   UNL     1       3.863   3.451  17.132  0.00  0.00    +0.000 C 
BRANCH  23  24
ATOM     24  C   UNL     1       5.314   3.435  16.683  0.00  0.00    +0.000 C 
BRANCH  24  25
ATOM     25  C   UNL     1       5.913   4.821  16.801  0.00  0.00    +0.000 C 
BRANCH  25  26
ATOM     26  C   UNL     1       6.360   5.335  15.446  0.00  0.00    +0.000 C 
BRANCH  26  27
ATOM     27  C   UNL     1       6.534   4.211  14.470  0.00  0.00    +0.000 C 
BRANCH  27  28
ATOM     28  C   UNL     1       5.324   4.107  13.536  0.00  0.00    +0.000 C 
BRANCH  28  30
ATOM     29  C   UNL     1       4.460   3.113  11.423  0.00  0.00    +0.000 C 
ATOM     30  C   UNL     1       5.686   3.289  12.296  0.00  0.00    +0.000 C 
ENDBRANCH  28  30
ENDBRANCH  27  28
ENDBRANCH  26  27
ENDBRANCH  25  26
ENDBRANCH  24  25
ENDBRANCH  23  24
ENDBRANCH  22  23
ENDBRANCH  21  22
ENDBRANCH  20  21
ENDBRANCH  19  20
ENDBRANCH  18  19
ENDBRANCH  17  18
ENDBRANCH   1  17
TORSDOF 23
ENDMDL
MODEL 8
REMARK VINA RESULT:      -5.4      5.150      8.463
REMARK  Name = 
REMARK  24 active torsions:
REMARK  status: ('A' for Active; 'I' for Inactive)
REMARK    1  A    between atoms: C_1  and  C_2
REMARK    2  A    between atoms: C_2  and  C_3
REMARK    3  A    between atoms: C_3  and  C_4
REMARK    4  A    between atoms: C_4  and  C_5
REMARK    5  A    between atoms: C_5  and  C_6
REMARK    6  A    between atoms: C_6  and  C_7
REMARK    7  A    between atoms: C_7  and  C_8
REMARK    8  A    between atoms: C_8  and  C_9
REMARK    9  A    between atoms: C_9  and  C_10
REMARK   10  A    between atoms: C_10  and  C_11
REMARK   11  A    between atoms: C_11  and  C_12
REMARK   12  A    between atoms: C_12  and  C_13
REMARK   13  A    between atoms: C_13  and  C_14
REMARK   14  A    between atoms: C_14  and  C_15
REMARK   15  A    between atoms: C_15  and  C_16
REMARK   16  A    between atoms: C_16  and  O_18
REMARK   17  A    between atoms: O_18  and  C_19
REMARK   18  A    between atoms: C_19  and  C_20
REMARK   19  A    between atoms: C_20  and  O_21
REMARK   20  A    between atoms: C_20  and  C_22
REMARK   21  A    between atoms: C_22  and  O_23
REMARK   22  A    between atoms: O_23  and  P_24
REMARK   23  A    between atoms: P_24  and  O_26
REMARK   24  A    between atoms: P_24  and  O_27
REMARK                            x       y       z     vdW  Elec       q    Type
REMARK                         _______ _______ _______ _____ _____    ______ ____
ROOT
ATOM      1  C   UNL     1       2.705   6.886  17.792  0.00  0.00    +0.000 C 
ENDROOT
BRANCH   1   2
ATOM      2  C   UNL     1       2.469   7.078  19.307  0.00  0.00    +0.000 C 
ATOM      3  O   UNL     1       2.747   6.306  20.122  0.00  0.00    +0.000 OA
BRANCH   2   4
ATOM      4  O   UNL     1       1.866   8.311  19.461  0.00  0.00    +0.000 OA
BRANCH   4   5
ATOM      5  C   UNL     1       1.223   8.451  20.760  0.00  0.00    +0.000 C 
BRANCH   5   6
ATOM      6  C   UNL     1       0.547   9.814  20.813  0.00  0.00    +0.000 C 
BRANCH   6   7
ATOM      7  O   UNL     1       1.240  10.685  21.741  0.00  0.00    +0.000 OA
ATOM      8  H   UNL     1       1.557  11.450  21.197  0.00  0.00    +0.000 HD
ENDBRANCH   6   7
BRANCH   6   9
ATOM      9  C   UNL     1       0.635  10.443  19.401  0.00  0.00    +0.000 C 
BRANCH   9  10
ATOM     10  O   UNL     1      -0.617  10.914  18.798  0.00  0.00    +0.000 OA
BRANCH  10  11
ATOM     11  P   UNL     1      -1.161  12.422  19.054  0.00  0.00    +0.000 P 
ATOM     12  O   UNL     1       0.138  12.795  19.749  0.00  0.00    +0.000 OA
BRANCH  11  13
ATOM     13  O   UNL     1      -1.791  13.828  19.463  0.00  0.00    +0.000 OA
ATOM     14  H   UNL     1      -1.299  14.580  19.933  0.00  0.00    +0.000 HD
ENDBRANCH  11  13
BRANCH  11  15
ATOM     15  O   UNL     1      -1.125  12.794  17.502  0.00  0.00    +0.000 OA
ATOM     16  H   UNL     1      -0.352  12.562  16.977  0.00  0.00    +0.000 HD
ENDBRANCH  11  15
ENDBRANCH  10  11
ENDBRANCH   9  10
ENDBRANCH   6   9
ENDBRANCH   5   6
ENDBRANCH   4   5
ENDBRANCH   2   4
ENDBRANCH   1   2
BRANCH   1  17
ATOM     17  C   UNL     1       4.145   7.273  17.478  0.00  0.00    +0.000 C 
BRANCH  17  18
ATOM     18  C   UNL     1       4.632   6.626  16.176  0.00  0.00    +0.000 C 
BRANCH  18  19
ATOM     19  C   UNL     1       6.143   6.416  16.253  0.00  0.00    +0.000 C 
BRANCH  19  20
ATOM     20  C   UNL     1       6.577   6.340  17.708  0.00  0.00    +0.000 C 
BRANCH  20  21
ATOM     21  C   UNL     1       6.577   4.896  18.183  0.00  0.00    +0.000 C 
BRANCH  21  22
ATOM     22  C   UNL     1       5.824   4.779  19.498  0.00  0.00    +0.000 C 
BRANCH  22  23
ATOM     23  C   UNL     1       4.897   3.579  19.462  0.00  0.00    +0.000 C 
BRANCH  23  24
ATOM     24  C   UNL     1       4.263   3.454  18.088  0.00  0.00    +0.000 C 
BRANCH  24  25
ATOM     25  C   UNL     1       3.607   2.097  17.935  0.00  0.00    +0.000 C 
BRANCH  25  26
ATOM     26  C   UNL     1       2.101   2.232  17.823  0.00  0.00    +0.000 C 
BRANCH  26  27
ATOM     27  C   UNL     1       1.617   3.478  18.500  0.00  0.00    +0.000 C 
BRANCH  27  28
ATOM     28  C   UNL     1       0.710   3.137  19.687  0.00  0.00    +0.000 C 
BRANCH  28  30
ATOM     29  C   UNL     1       2.100   3.473  21.725  0.00  0.00    +0.000 C 
ATOM     30  C   UNL     1       1.517   2.440  20.783  0.00  0.00    +0.000 C 
ENDBRANCH  28  30
ENDBRANCH  27  28
ENDBRANCH  26  27
ENDBRANCH  25  26
ENDBRANCH  24  25
ENDBRANCH  23  24
ENDBRANCH  22  23
ENDBRANCH  21  22
ENDBRANCH  20  21
ENDBRANCH  19  20
ENDBRANCH  18  19
ENDBRANCH  17  18
ENDBRANCH   1  17
TORSDOF 23
ENDMDL
MODEL 9
REMARK VINA RESULT:      -5.4      6.361      8.756
REMARK  Name = 
REMARK  24 active torsions:
REMARK  status: ('A' for Active; 'I' for Inactive)
REMARK    1  A    between atoms: C_1  and  C_2
REMARK    2  A    between atoms: C_2  and  C_3
REMARK    3  A    between atoms: C_3  and  C_4
REMARK    4  A    between atoms: C_4  and  C_5
REMARK    5  A    between atoms: C_5  and  C_6
REMARK    6  A    between atoms: C_6  and  C_7
REMARK    7  A    between atoms: C_7  and  C_8
REMARK    8  A    between atoms: C_8  and  C_9
REMARK    9  A    between atoms: C_9  and  C_10
REMARK   10  A    between atoms: C_10  and  C_11
REMARK   11  A    between atoms: C_11  and  C_12
REMARK   12  A    between atoms: C_12  and  C_13
REMARK   13  A    between atoms: C_13  and  C_14
REMARK   14  A    between atoms: C_14  and  C_15
REMARK   15  A    between atoms: C_15  and  C_16
REMARK   16  A    between atoms: C_16  and  O_18
REMARK   17  A    between atoms: O_18  and  C_19
REMARK   18  A    between atoms: C_19  and  C_20
REMARK   19  A    between atoms: C_20  and  O_21
REMARK   20  A    between atoms: C_20  and  C_22
REMARK   21  A    between atoms: C_22  and  O_23
REMARK   22  A    between atoms: O_23  and  P_24
REMARK   23  A    between atoms: P_24  and  O_26
REMARK   24  A    between atoms: P_24  and  O_27
REMARK                            x       y       z     vdW  Elec       q    Type
REMARK                         _______ _______ _______ _____ _____    ______ ____
ROOT
ATOM      1  C   UNL     1       5.852   5.141  16.062  0.00  0.00    +0.000 C 
ENDROOT
BRANCH   1   2
ATOM      2  C   UNL     1       5.065   4.418  17.177  0.00  0.00    +0.000 C 
ATOM      3  O   UNL     1       5.478   4.182  18.231  0.00  0.00    +0.000 OA
BRANCH   2   4
ATOM      4  O   UNL     1       3.823   4.117  16.653  0.00  0.00    +0.000 OA
BRANCH   4   5
ATOM      5  C   UNL     1       3.191   3.001  17.344  0.00  0.00    +0.000 C 
BRANCH   5   6
ATOM      6  C   UNL     1       1.940   3.519  18.041  0.00  0.00    +0.000 C 
BRANCH   6   7
ATOM      7  O   UNL     1       1.046   4.134  17.081  0.00  0.00    +0.000 OA
ATOM      8  H   UNL     1       1.097   3.565  16.272  0.00  0.00    +0.000 HD
ENDBRANCH   6   7
BRANCH   6   9
ATOM      9  C   UNL     1       1.213   2.308  18.674  0.00  0.00    +0.000 C 
BRANCH   9  10
ATOM     10  O   UNL     1       1.434   2.065  20.103  0.00  0.00    +0.000 OA
BRANCH  10  11
ATOM     11  P   UNL     1       2.110   3.192  21.056  0.00  0.00    +0.000 P 
ATOM     12  O   UNL     1       1.388   2.630  22.269  0.00  0.00    +0.000 OA
BRANCH  11  13
ATOM     13  O   UNL     1       2.630   4.421  21.928  0.00  0.00    +0.000 OA
ATOM     14  H   UNL     1       3.251   5.153  21.602  0.00  0.00    +0.000 HD
ENDBRANCH  11  13
BRANCH  11  15
ATOM     15  O   UNL     1       3.572   2.571  20.903  0.00  0.00    +0.000 OA
ATOM     16  H   UNL     1       4.334   3.070  21.214  0.00  0.00    +0.000 HD
ENDBRANCH  11  15
ENDBRANCH  10  11
ENDBRANCH   9  10
ENDBRANCH   6   9
ENDBRANCH   5   6
ENDBRANCH   4   5
ENDBRANCH   2   4
ENDBRANCH   1   2
BRANCH   1  17
ATOM     17  C   UNL     1       7.096   5.767  16.680  0.00  0.00    +0.000 C 
BRANCH  17  18
ATOM     18  C   UNL     1       6.834   7.205  17.143  0.00  0.00    +0.000 C 
BRANCH  18  19
ATOM     19  C   UNL     1       7.927   7.625  18.125  0.00  0.00    +0.000 C 
BRANCH  19  20
ATOM     20  C   UNL     1       8.198   9.114  17.985  0.00  0.00    +0.000 C 
BRANCH  20  21
ATOM     21  C   UNL     1       9.214   9.564  19.021  0.00  0.00    +0.000 C 
BRANCH  21  22
ATOM     22  C   UNL     1       9.290  11.082  19.054  0.00  0.00    +0.000 C 
BRANCH  22  23
ATOM     23  C   UNL     1       9.937  11.542  20.346  0.00  0.00    +0.000 C 
BRANCH  23  24
ATOM     24  C   UNL     1      11.378  11.951  20.088  0.00  0.00    +0.000 C 
BRANCH  24  25
ATOM     25  C   UNL     1      11.440  13.396  19.641  0.00  0.00    +0.000 C 
BRANCH  25  26
ATOM     26  C   UNL     1      10.654  14.289  20.581  0.00  0.00    +0.000 C 
BRANCH  26  27
ATOM     27  C   UNL     1       9.744  15.207  19.822  0.00  0.00    +0.000 C 
BRANCH  27  28
ATOM     28  C   UNL     1       9.709  14.837  18.336  0.00  0.00    +0.000 C 
BRANCH  28  30
ATOM     29  C   UNL     1      11.356  16.107  16.968  0.00  0.00    +0.000 C 
ATOM     30  C   UNL     1       9.930  16.084  17.479  0.00  0.00    +0.000 C 
ENDBRANCH  28  30
ENDBRANCH  27  28
ENDBRANCH  26  27
ENDBRANCH  25  26
ENDBRANCH  24  25
ENDBRANCH  23  24
ENDBRANCH  22  23
ENDBRANCH  21  22
ENDBRANCH  20  21
ENDBRANCH  19  20
ENDBRANCH  18  19
ENDBRANCH  17  18
ENDBRANCH   1  17
TORSDOF 23
ENDMDL
