MODEL 1
REMARK VINA RESULT:      -6.8      0.000      0.000
REMARK  Name = 
REMARK  5 active torsions:
REMARK  status: ('A' for Active; 'I' for Inactive)
REMARK    1  A    between atoms: C_1  and  O_2
REMARK    2  A    between atoms: O_2  and  C_3
REMARK    3  A    between atoms: N_16  and  C_17
REMARK    4  A    between atoms: C_17  and  C_18
REMARK    5  A    between atoms: C_23  and  C_24
REMARK                            x       y       z     vdW  Elec       q    Type
REMARK                         _______ _______ _______ _____ _____    ______ ____
ROOT
ATOM      1  C   UNL     1      -3.639  10.926  16.047  0.00  0.00    +0.000 A 
ATOM      2  C   UNL     1      -2.276  11.142  16.228  0.00  0.00    +0.000 A 
ATOM      3  C   UNL     1      -1.771  11.659  17.430  0.00  0.00    +0.000 A 
ATOM      4  C   UNL     1      -2.679  11.969  18.455  0.00  0.00    +0.000 A 
ATOM      5  C   UNL     1      -4.053  11.755  18.291  0.00  0.00    +0.000 A 
ATOM      6  C   UNL     1      -4.535  11.238  17.073  0.00  0.00    +0.000 A 
ATOM      7  C   UNL     1      -4.657  12.138  19.500  0.00  0.00    +0.000 A 
ATOM      8  N   UNL     1      -6.016  12.043  19.809  0.00  0.00    +0.000 NA
ATOM      9  C   UNL     1      -6.279  12.450  21.005  0.00  0.00    +0.000 A 
ATOM     10  N   UNL     1      -5.401  12.980  21.930  0.00  0.00    +0.000 N 
ATOM     11  C   UNL     1      -4.048  13.107  21.670  0.00  0.00    +0.000 A 
ATOM     12  O   UNL     1      -3.249  13.599  22.461  0.00  0.00    +0.000 OA
ATOM     13  C   UNL     1      -3.707  12.618  20.365  0.00  0.00    +0.000 A 
ATOM     14  N   UNL     1      -2.487  12.480  19.738  0.00  0.00    +0.000 N 
ATOM     15  C   UNL     1      -5.979  13.276  23.220  0.00  0.00    +0.000 C 
ATOM     16  C   UNL     1      -7.470  13.490  23.035  0.00  0.00    +0.000 C 
ATOM     17  S   UNL     1      -7.900  12.398  21.656  0.00  0.00    +0.000 S 
ENDROOT
BRANCH   1  19
ATOM     18  C   UNL     1      -3.340   9.911  13.930  0.00  0.00    +0.000 C 
ATOM     19  O   UNL     1      -4.225  10.448  14.904  0.00  0.00    +0.000 OA
ENDBRANCH   1  19
BRANCH  14  20
ATOM     20  C   UNL     1      -1.179  12.807  20.311  0.00  0.00    +0.000 C 
BRANCH  20  21
ATOM     21  C   UNL     1      -0.590  11.662  21.126  0.00  0.00    +0.000 C 
ATOM     22  O   UNL     1      -1.203  11.159  22.070  0.00  0.00    +0.000 OA
ATOM     23  N   UNL     1       0.661  11.173  20.741  0.00  0.00    +0.000 N 
ATOM     24  C   UNL     1       1.508  11.699  19.674  0.00  0.00    +0.000 C 
ATOM     25  C   UNL     1       1.549  10.726  18.495  0.00  0.00    +0.000 C 
ATOM     26  C   UNL     1       1.899   9.290  18.937  0.00  0.00    +0.000 C 
ATOM     27  C   UNL     1       1.751   8.314  17.771  0.00  0.00    +0.000 C 
ATOM     28  C   UNL     1       1.029   8.850  20.128  0.00  0.00    +0.000 C 
ATOM     29  C   UNL     1       1.095   9.877  21.259  0.00  0.00    +0.000 C 
ENDBRANCH  20  21
ENDBRANCH  14  20
TORSDOF 3
ENDMDL
MODEL 2
REMARK VINA RESULT:      -6.7      5.217      8.311
REMARK  Name = 
REMARK  5 active torsions:
REMARK  status: ('A' for Active; 'I' for Inactive)
REMARK    1  A    between atoms: C_1  and  O_2
REMARK    2  A    between atoms: O_2  and  C_3
REMARK    3  A    between atoms: N_16  and  C_17
REMARK    4  A    between atoms: C_17  and  C_18
REMARK    5  A    between atoms: C_23  and  C_24
REMARK                            x       y       z     vdW  Elec       q    Type
REMARK                         _______ _______ _______ _____ _____    ______ ____
ROOT
ATOM      1  C   UNL     1       4.783   6.292  16.429  0.00  0.00    +0.000 A 
ATOM      2  C   UNL     1       4.828   5.188  17.275  0.00  0.00    +0.000 A 
ATOM      3  C   UNL     1       4.102   5.154  18.475  0.00  0.00    +0.000 A 
ATOM      4  C   UNL     1       3.327   6.275  18.814  0.00  0.00    +0.000 A 
ATOM      5  C   UNL     1       3.267   7.392  17.973  0.00  0.00    +0.000 A 
ATOM      6  C   UNL     1       4.008   7.402  16.777  0.00  0.00    +0.000 A 
ATOM      7  C   UNL     1       2.392   8.302  18.591  0.00  0.00    +0.000 A 
ATOM      8  N   UNL     1       1.990   9.538  18.078  0.00  0.00    +0.000 NA
ATOM      9  C   UNL     1       1.162  10.148  18.857  0.00  0.00    +0.000 A 
ATOM     10  N   UNL     1       0.703   9.737  20.093  0.00  0.00    +0.000 N 
ATOM     11  C   UNL     1       1.080   8.528  20.651  0.00  0.00    +0.000 A 
ATOM     12  O   UNL     1       0.709   8.149  21.758  0.00  0.00    +0.000 OA
ATOM     13  C   UNL     1       1.964   7.795  19.791  0.00  0.00    +0.000 A 
ATOM     14  N   UNL     1       2.507   6.534  19.912  0.00  0.00    +0.000 N 
ATOM     15  C   UNL     1      -0.284  10.601  20.696  0.00  0.00    +0.000 C 
ATOM     16  C   UNL     1      -0.113  11.994  20.117  0.00  0.00    +0.000 C 
ATOM     17  S   UNL     1       0.473  11.697  18.429  0.00  0.00    +0.000 S 
ENDROOT
BRANCH   1  19
ATOM     18  C   UNL     1       6.156   5.262  14.800  0.00  0.00    +0.000 C 
ATOM     19  O   UNL     1       5.474   6.424  15.253  0.00  0.00    +0.000 OA
ENDBRANCH   1  19
BRANCH  14  20
ATOM     20  C   UNL     1       2.272   5.592  21.010  0.00  0.00    +0.000 C 
BRANCH  20  21
ATOM     21  C   UNL     1       1.371   4.432  20.608  0.00  0.00    +0.000 C 
ATOM     22  O   UNL     1       0.200   4.612  20.265  0.00  0.00    +0.000 OA
ATOM     23  N   UNL     1       1.930   3.152  20.604  0.00  0.00    +0.000 N 
ATOM     24  C   UNL     1       3.283   2.794  21.023  0.00  0.00    +0.000 C 
ATOM     25  C   UNL     1       4.131   2.402  19.813  0.00  0.00    +0.000 C 
ATOM     26  C   UNL     1       3.436   1.343  18.933  0.00  0.00    +0.000 C 
ATOM     27  C   UNL     1       4.221   1.111  17.643  0.00  0.00    +0.000 C 
ATOM     28  C   UNL     1       1.985   1.750  18.620  0.00  0.00    +0.000 C 
ATOM     29  C   UNL     1       1.224   2.081  19.904  0.00  0.00    +0.000 C 
ENDBRANCH  20  21
ENDBRANCH  14  20
TORSDOF 3
ENDMDL
MODEL 3
REMARK VINA RESULT:      -6.5      3.185      4.531
REMARK  Name = 
REMARK  5 active torsions:
REMARK  status: ('A' for Active; 'I' for Inactive)
REMARK    1  A    between atoms: C_1  and  O_2
REMARK    2  A    between atoms: O_2  and  C_3
REMARK    3  A    between atoms: N_16  and  C_17
REMARK    4  A    between atoms: C_17  and  C_18
REMARK    5  A    between atoms: C_23  and  C_24
REMARK                            x       y       z     vdW  Elec       q    Type
REMARK                         _______ _______ _______ _____ _____    ______ ____
ROOT
ATOM      1  C   UNL     1      -4.217  10.879  17.882  0.00  0.00    +0.000 A 
ATOM      2  C   UNL     1      -3.461   9.790  17.457  0.00  0.00    +0.000 A 
ATOM      3  C   UNL     1      -2.092   9.691  17.747  0.00  0.00    +0.000 A 
ATOM      4  C   UNL     1      -1.489  10.730  18.473  0.00  0.00    +0.000 A 
ATOM      5  C   UNL     1      -2.235  11.831  18.912  0.00  0.00    +0.000 A 
ATOM      6  C   UNL     1      -3.607  11.908  18.605  0.00  0.00    +0.000 A 
ATOM      7  C   UNL     1      -1.342  12.652  19.621  0.00  0.00    +0.000 A 
ATOM      8  N   UNL     1      -1.664  13.838  20.285  0.00  0.00    +0.000 NA
ATOM      9  C   UNL     1      -0.642  14.367  20.869  0.00  0.00    +0.000 A 
ATOM     10  N   UNL     1       0.664  13.920  20.859  0.00  0.00    +0.000 N 
ATOM     11  C   UNL     1       1.038  12.758  20.206  0.00  0.00    +0.000 A 
ATOM     12  O   UNL     1       2.194  12.350  20.157  0.00  0.00    +0.000 OA
ATOM     13  C   UNL     1      -0.082  12.113  19.584  0.00  0.00    +0.000 A 
ATOM     14  N   UNL     1      -0.179  10.913  18.912  0.00  0.00    +0.000 N 
ATOM     15  C   UNL     1       1.578  14.685  21.675  0.00  0.00    +0.000 C 
ATOM     16  C   UNL     1       1.013  16.084  21.836  0.00  0.00    +0.000 C 
ATOM     17  S   UNL     1      -0.781  15.837  21.806  0.00  0.00    +0.000 S 
ENDROOT
BRANCH   1  19
ATOM     18  C   UNL     1      -5.905  12.350  17.116  0.00  0.00    +0.000 C 
ATOM     19  O   UNL     1      -5.550  11.072  17.628  0.00  0.00    +0.000 OA
ENDBRANCH   1  19
BRANCH  14  20
ATOM     20  C   UNL     1       0.910   9.959  18.685  0.00  0.00    +0.000 C 
BRANCH  20  21
ATOM     21  C   UNL     1       1.117   9.011  19.858  0.00  0.00    +0.000 C 
ATOM     22  O   UNL     1       0.480   9.132  20.907  0.00  0.00    +0.000 OA
ATOM     23  N   UNL     1       2.033   7.969  19.693  0.00  0.00    +0.000 N 
ATOM     24  C   UNL     1       2.880   7.735  18.526  0.00  0.00    +0.000 C 
ATOM     25  C   UNL     1       2.406   6.497  17.762  0.00  0.00    +0.000 C 
ATOM     26  C   UNL     1       2.238   5.272  18.684  0.00  0.00    +0.000 C 
ATOM     27  C   UNL     1       1.591   4.112  17.929  0.00  0.00    +0.000 C 
ATOM     28  C   UNL     1       1.418   5.630  19.936  0.00  0.00    +0.000 C 
ATOM     29  C   UNL     1       2.005   6.855  20.639  0.00  0.00    +0.000 C 
ENDBRANCH  20  21
ENDBRANCH  14  20
TORSDOF 3
ENDMDL
MODEL 4
REMARK VINA RESULT:      -6.3      4.113      7.503
REMARK  Name = 
REMARK  5 active torsions:
REMARK  status: ('A' for Active; 'I' for Inactive)
REMARK    1  A    between atoms: C_1  and  O_2
REMARK    2  A    between atoms: O_2  and  C_3
REMARK    3  A    between atoms: N_16  and  C_17
REMARK    4  A    between atoms: C_17  and  C_18
REMARK    5  A    between atoms: C_23  and  C_24
REMARK                            x       y       z     vdW  Elec       q    Type
REMARK                         _______ _______ _______ _____ _____    ______ ____
ROOT
ATOM      1  C   UNL     1      -2.097  12.263  22.829  0.00  0.00    +0.000 A 
ATOM      2  C   UNL     1      -2.081  13.404  22.031  0.00  0.00    +0.000 A 
ATOM      3  C   UNL     1      -1.335  13.456  20.845  0.00  0.00    +0.000 A 
ATOM      4  C   UNL     1      -0.587  12.326  20.479  0.00  0.00    +0.000 A 
ATOM      5  C   UNL     1      -0.595  11.169  21.267  0.00  0.00    +0.000 A 
ATOM      6  C   UNL     1      -1.349  11.143  22.456  0.00  0.00    +0.000 A 
ATOM      7  C   UNL     1       0.223  10.237  20.605  0.00  0.00    +0.000 A 
ATOM      8  N   UNL     1       0.461   8.920  21.004  0.00  0.00    +0.000 NA
ATOM      9  C   UNL     1       1.237   8.292  20.187  0.00  0.00    +0.000 A 
ATOM     10  N   UNL     1       1.850   8.786  19.052  0.00  0.00    +0.000 N 
ATOM     11  C   UNL     1       1.656  10.086  18.620  0.00  0.00    +0.000 A 
ATOM     12  O   UNL     1       2.207  10.560  17.632  0.00  0.00    +0.000 OA
ATOM     13  C   UNL     1       0.758  10.804  19.477  0.00  0.00    +0.000 A 
ATOM     14  N   UNL     1       0.231  12.075  19.378  0.00  0.00    +0.000 N 
ATOM     15  C   UNL     1       2.603   7.815  18.293  0.00  0.00    +0.000 C 
ATOM     16  C   UNL     1       3.014   6.694  19.231  0.00  0.00    +0.000 C 
ATOM     17  S   UNL     1       1.662   6.614  20.434  0.00  0.00    +0.000 S 
ENDROOT
BRANCH   1  19
ATOM     18  C   UNL     1      -3.846  13.039  24.223  0.00  0.00    +0.000 C 
ATOM     19  O   UNL     1      -2.775  12.128  24.013  0.00  0.00    +0.000 OA
ENDBRANCH   1  19
BRANCH  14  20
ATOM     20  C   UNL     1       0.475  13.029  18.293  0.00  0.00    +0.000 C 
BRANCH  20  21
ATOM     21  C   UNL     1       1.648  13.957  18.577  0.00  0.00    +0.000 C 
ATOM     22  O   UNL     1       2.814  13.562  18.513  0.00  0.00    +0.000 OA
ATOM     23  N   UNL     1       1.360  15.290  18.879  0.00  0.00    +0.000 N 
ATOM     24  C   UNL     1       0.030  15.878  19.026  0.00  0.00    +0.000 C 
ATOM     25  C   UNL     1      -0.274  16.813  17.855  0.00  0.00    +0.000 C 
ATOM     26  C   UNL     1       0.854  17.839  17.620  0.00  0.00    +0.000 C 
ATOM     27  C   UNL     1       0.607  18.631  16.337  0.00  0.00    +0.000 C 
ATOM     28  C   UNL     1       2.230  17.148  17.576  0.00  0.00    +0.000 C 
ATOM     29  C   UNL     1       2.438  16.273  18.812  0.00  0.00    +0.000 C 
ENDBRANCH  20  21
ENDBRANCH  14  20
TORSDOF 3
ENDMDL
MODEL 5
REMARK VINA RESULT:      -6.3      1.598      1.837
REMARK  Name = 
REMARK  5 active torsions:
REMARK  status: ('A' for Active; 'I' for Inactive)
REMARK    1  A    between atoms: C_1  and  O_2
REMARK    2  A    between atoms: O_2  and  C_3
REMARK    3  A    between atoms: N_16  and  C_17
REMARK    4  A    between atoms: C_17  and  C_18
REMARK    5  A    between atoms: C_23  and  C_24
REMARK                            x       y       z     vdW  Elec       q    Type
REMARK                         _______ _______ _______ _____ _____    ______ ____
ROOT
ATOM      1  C   UNL     1      -2.362  10.081  16.880  0.00  0.00    +0.000 A 
ATOM      2  C   UNL     1      -1.175  10.123  17.606  0.00  0.00    +0.000 A 
ATOM      3  C   UNL     1      -1.060  10.886  18.778  0.00  0.00    +0.000 A 
ATOM      4  C   UNL     1      -2.175  11.624  19.203  0.00  0.00    +0.000 A 
ATOM      5  C   UNL     1      -3.379  11.591  18.487  0.00  0.00    +0.000 A 
ATOM      6  C   UNL     1      -3.467  10.820  17.313  0.00  0.00    +0.000 A 
ATOM      7  C   UNL     1      -4.279  12.405  19.196  0.00  0.00    +0.000 A 
ATOM      8  N   UNL     1      -5.621  12.621  18.875  0.00  0.00    +0.000 NA
ATOM      9  C   UNL     1      -6.209  13.400  19.719  0.00  0.00    +0.000 A 
ATOM     10  N   UNL     1      -5.654  14.034  20.814  0.00  0.00    +0.000 N 
ATOM     11  C   UNL     1      -4.327  13.863  21.167  0.00  0.00    +0.000 A 
ATOM     12  O   UNL     1      -3.800  14.434  22.117  0.00  0.00    +0.000 OA
ATOM     13  C   UNL     1      -3.650  12.963  20.279  0.00  0.00    +0.000 A 
ATOM     14  N   UNL     1      -2.369  12.454  20.306  0.00  0.00    +0.000 N 
ATOM     15  C   UNL     1      -6.587  14.785  21.622  0.00  0.00    +0.000 C 
ATOM     16  C   UNL     1      -7.768  15.169  20.750  0.00  0.00    +0.000 C 
ATOM     17  S   UNL     1      -7.904  13.800  19.571  0.00  0.00    +0.000 S 
ENDROOT
BRANCH   1  19
ATOM     18  C   UNL     1      -3.330  10.048  14.721  0.00  0.00    +0.000 C 
ATOM     19  O   UNL     1      -2.561   9.386  15.716  0.00  0.00    +0.000 OA
ENDBRANCH   1  19
BRANCH  14  20
ATOM     20  C   UNL     1      -1.353  12.724  21.327  0.00  0.00    +0.000 C 
BRANCH  20  21
ATOM     21  C   UNL     1      -1.329  11.672  22.428  0.00  0.00    +0.000 C 
ATOM     22  O   UNL     1      -2.301  11.484  23.163  0.00  0.00    +0.000 OA
ATOM     23  N   UNL     1      -0.175  10.895  22.553  0.00  0.00    +0.000 N 
ATOM     24  C   UNL     1       1.057  11.040  21.780  0.00  0.00    +0.000 C 
ATOM     25  C   UNL     1       1.222   9.865  20.814  0.00  0.00    +0.000 C 
ATOM     26  C   UNL     1       1.070   8.503  21.523  0.00  0.00    +0.000 C 
ATOM     27  C   UNL     1       1.055   7.363  20.505  0.00  0.00    +0.000 C 
ATOM     28  C   UNL     1      -0.200   8.470  22.393  0.00  0.00    +0.000 C 
ATOM     29  C   UNL     1      -0.238   9.668  23.343  0.00  0.00    +0.000 C 
ENDBRANCH  20  21
ENDBRANCH  14  20
TORSDOF 3
ENDMDL
MODEL 6
REMARK VINA RESULT:      -6.2      2.093      3.115
REMARK  Name = 
REMARK  5 active torsions:
REMARK  status: ('A' for Active; 'I' for Inactive)
REMARK    1  A    between atoms: C_1  and  O_2
REMARK    2  A    between atoms: O_2  and  C_3
REMARK    3  A    between atoms: N_16  and  C_17
REMARK    4  A    between atoms: C_17  and  C_18
REMARK    5  A    between atoms: C_23  and  C_24
REMARK                            x       y       z     vdW  Elec       q    Type
REMARK                         _______ _______ _______ _____ _____    ______ ____
ROOT
ATOM      1  C   UNL     1      -3.274  10.829  16.701  0.00  0.00    +0.000 A 
ATOM      2  C   UNL     1      -2.016  10.263  16.893  0.00  0.00    +0.000 A 
ATOM      3  C   UNL     1      -1.305  10.449  18.087  0.00  0.00    +0.000 A 
ATOM      4  C   UNL     1      -1.887  11.238  19.092  0.00  0.00    +0.000 A 
ATOM      5  C   UNL     1      -3.152  11.812  18.917  0.00  0.00    +0.000 A 
ATOM      6  C   UNL     1      -3.844  11.612  17.708  0.00  0.00    +0.000 A 
ATOM      7  C   UNL     1      -3.439  12.499  20.109  0.00  0.00    +0.000 A 
ATOM      8  N   UNL     1      -4.624  13.178  20.404  0.00  0.00    +0.000 NA
ATOM      9  C   UNL     1      -4.613  13.697  21.585  0.00  0.00    +0.000 A 
ATOM     10  N   UNL     1      -3.584  13.681  22.506  0.00  0.00    +0.000 N 
ATOM     11  C   UNL     1      -2.387  13.033  22.259  0.00  0.00    +0.000 A 
ATOM     12  O   UNL     1      -1.446  13.025  23.047  0.00  0.00    +0.000 OA
ATOM     13  C   UNL     1      -2.378  12.400  20.972  0.00  0.00    +0.000 A 
ATOM     14  N   UNL     1      -1.439  11.594  20.364  0.00  0.00    +0.000 N 
ATOM     15  C   UNL     1      -3.898  14.283  23.782  0.00  0.00    +0.000 C 
ATOM     16  C   UNL     1      -5.024  15.279  23.573  0.00  0.00    +0.000 C 
ATOM     17  S   UNL     1      -5.991  14.566  22.217  0.00  0.00    +0.000 S 
ENDROOT
BRANCH   1  19
ATOM     18  C   UNL     1      -3.412  10.064  14.465  0.00  0.00    +0.000 C 
ATOM     19  O   UNL     1      -4.031  10.721  15.564  0.00  0.00    +0.000 OA
ENDBRANCH   1  19
BRANCH  14  20
ATOM     20  C   UNL     1      -0.165  11.161  20.944  0.00  0.00    +0.000 C 
BRANCH  20  21
ATOM     21  C   UNL     1       1.035  11.573  20.103  0.00  0.00    +0.000 C 
ATOM     22  O   UNL     1       1.530  10.813  19.268  0.00  0.00    +0.000 OA
ATOM     23  N   UNL     1       1.538  12.864  20.283  0.00  0.00    +0.000 N 
ATOM     24  C   UNL     1       1.076  13.847  21.260  0.00  0.00    +0.000 C 
ATOM     25  C   UNL     1       0.340  14.991  20.560  0.00  0.00    +0.000 C 
ATOM     26  C   UNL     1       1.162  15.585  19.397  0.00  0.00    +0.000 C 
ATOM     27  C   UNL     1       0.329  16.594  18.607  0.00  0.00    +0.000 C 
ATOM     28  C   UNL     1       1.693  14.477  18.471  0.00  0.00    +0.000 C 
ATOM     29  C   UNL     1       2.441  13.411  19.274  0.00  0.00    +0.000 C 
ENDBRANCH  20  21
ENDBRANCH  14  20
TORSDOF 3
ENDMDL
MODEL 7
REMARK VINA RESULT:      -6.1      2.407      3.466
REMARK  Name = 
REMARK  5 active torsions:
REMARK  status: ('A' for Active; 'I' for Inactive)
REMARK    1  A    between atoms: C_1  and  O_2
REMARK    2  A    between atoms: O_2  and  C_3
REMARK    3  A    between atoms: N_16  and  C_17
REMARK    4  A    between atoms: C_17  and  C_18
REMARK    5  A    between atoms: C_23  and  C_24
REMARK                            x       y       z     vdW  Elec       q    Type
REMARK                         _______ _______ _______ _____ _____    ______ ____
ROOT
ATOM      1  C   UNL     1      -3.188  10.351  16.424  0.00  0.00    +0.000 A 
ATOM      2  C   UNL     1      -2.064   9.549  16.241  0.00  0.00    +0.000 A 
ATOM      3  C   UNL     1      -1.007   9.548  17.163  0.00  0.00    +0.000 A 
ATOM      4  C   UNL     1      -1.101  10.391  18.282  0.00  0.00    +0.000 A 
ATOM      5  C   UNL     1      -2.225  11.201  18.484  0.00  0.00    +0.000 A 
ATOM      6  C   UNL     1      -3.270  11.186  17.541  0.00  0.00    +0.000 A 
ATOM      7  C   UNL     1      -2.006  11.881  19.694  0.00  0.00    +0.000 A 
ATOM      8  N   UNL     1      -2.895  12.760  20.318  0.00  0.00    +0.000 NA
ATOM      9  C   UNL     1      -2.433  13.218  21.432  0.00  0.00    +0.000 A 
ATOM     10  N   UNL     1      -1.201  12.970  22.003  0.00  0.00    +0.000 N 
ATOM     11  C   UNL     1      -0.279  12.117  21.420  0.00  0.00    +0.000 A 
ATOM     12  O   UNL     1       0.833  11.899  21.890  0.00  0.00    +0.000 OA
ATOM     13  C   UNL     1      -0.777  11.548  20.201  0.00  0.00    +0.000 A 
ATOM     14  N   UNL     1      -0.235  10.603  19.355  0.00  0.00    +0.000 N 
ATOM     15  C   UNL     1      -0.998  13.568  23.302  0.00  0.00    +0.000 C 
ATOM     16  C   UNL     1      -1.921  14.767  23.422  0.00  0.00    +0.000 C 
ATOM     17  S   UNL     1      -3.366  14.307  22.432  0.00  0.00    +0.000 S 
ENDROOT
BRANCH   1  19
ATOM     18  C   UNL     1      -3.971  10.191  14.196  0.00  0.00    +0.000 C 
ATOM     19  O   UNL     1      -4.254  10.435  15.568  0.00  0.00    +0.000 OA
ENDBRANCH   1  19
BRANCH  14  20
ATOM     20  C   UNL     1       1.045   9.913  19.535  0.00  0.00    +0.000 C 
BRANCH  20  21
ATOM     21  C   UNL     1       0.947   8.728  20.486  0.00  0.00    +0.000 C 
ATOM     22  O   UNL     1       0.105   8.691  21.387  0.00  0.00    +0.000 OA
ATOM     23  N   UNL     1       1.822   7.660  20.279  0.00  0.00    +0.000 N 
ATOM     24  C   UNL     1       2.888   7.592  19.282  0.00  0.00    +0.000 C 
ATOM     25  C   UNL     1       2.527   6.590  18.183  0.00  0.00    +0.000 C 
ATOM     26  C   UNL     1       2.104   5.223  18.758  0.00  0.00    +0.000 C 
ATOM     27  C   UNL     1       1.576   4.311  17.652  0.00  0.00    +0.000 C 
ATOM     28  C   UNL     1       1.052   5.391  19.870  0.00  0.00    +0.000 C 
ATOM     29  C   UNL     1       1.536   6.383  20.929  0.00  0.00    +0.000 C 
ENDBRANCH  20  21
ENDBRANCH  14  20
TORSDOF 3
ENDMDL
MODEL 8
REMARK VINA RESULT:      -5.9      2.979      6.379
REMARK  Name = 
REMARK  5 active torsions:
REMARK  status: ('A' for Active; 'I' for Inactive)
REMARK    1  A    between atoms: C_1  and  O_2
REMARK    2  A    between atoms: O_2  and  C_3
REMARK    3  A    between atoms: N_16  and  C_17
REMARK    4  A    between atoms: C_17  and  C_18
REMARK    5  A    between atoms: C_23  and  C_24
REMARK                            x       y       z     vdW  Elec       q    Type
REMARK                         _______ _______ _______ _____ _____    ______ ____
ROOT
ATOM      1  C   UNL     1      -3.234  10.740  15.823  0.00  0.00    +0.000 A 
ATOM      2  C   UNL     1      -4.482  10.805  16.438  0.00  0.00    +0.000 A 
ATOM      3  C   UNL     1      -4.639  11.350  17.720  0.00  0.00    +0.000 A 
ATOM      4  C   UNL     1      -3.498  11.825  18.385  0.00  0.00    +0.000 A 
ATOM      5  C   UNL     1      -2.236  11.772  17.781  0.00  0.00    +0.000 A 
ATOM      6  C   UNL     1      -2.104  11.216  16.494  0.00  0.00    +0.000 A 
ATOM      7  C   UNL     1      -1.338  12.349  18.695  0.00  0.00    +0.000 A 
ATOM      8  N   UNL     1       0.028  12.557  18.489  0.00  0.00    +0.000 NA
ATOM      9  C   UNL     1       0.596  13.128  19.498  0.00  0.00    +0.000 A 
ATOM     10  N   UNL     1       0.021  13.486  20.702  0.00  0.00    +0.000 N 
ATOM     11  C   UNL     1      -1.324  13.290  20.960  0.00  0.00    +0.000 A 
ATOM     12  O   UNL     1      -1.856  13.574  22.029  0.00  0.00    +0.000 OA
ATOM     13  C   UNL     1      -2.002  12.702  19.842  0.00  0.00    +0.000 A 
ATOM     14  N   UNL     1      -3.336  12.416  19.638  0.00  0.00    +0.000 N 
ATOM     15  C   UNL     1       0.898  14.183  21.613  0.00  0.00    +0.000 C 
ATOM     16  C   UNL     1       2.330  13.813  21.271  0.00  0.00    +0.000 C 
ATOM     17  S   UNL     1       2.295  13.538  19.481  0.00  0.00    +0.000 S 
ENDROOT
BRANCH   1  19
ATOM     18  C   UNL     1      -4.117   9.987  13.761  0.00  0.00    +0.000 C 
ATOM     19  O   UNL     1      -2.981  10.206  14.587  0.00  0.00    +0.000 OA
ENDBRANCH   1  19
BRANCH  14  20
ATOM     20  C   UNL     1      -4.430  12.684  20.574  0.00  0.00    +0.000 C 
BRANCH  20  21
ATOM     21  C   UNL     1      -4.942  14.116  20.487  0.00  0.00    +0.000 C 
ATOM     22  O   UNL     1      -4.229  15.076  20.789  0.00  0.00    +0.000 OA
ATOM     23  N   UNL     1      -6.242  14.310  20.015  0.00  0.00    +0.000 N 
ATOM     24  C   UNL     1      -7.202  13.267  19.663  0.00  0.00    +0.000 C 
ATOM     25  C   UNL     1      -7.413  13.223  18.149  0.00  0.00    +0.000 C 
ATOM     26  C   UNL     1      -7.741  14.614  17.567  0.00  0.00    +0.000 C 
ATOM     27  C   UNL     1      -7.763  14.569  16.040  0.00  0.00    +0.000 C 
ATOM     28  C   UNL     1      -6.741  15.672  18.065  0.00  0.00    +0.000 C 
ATOM     29  C   UNL     1      -6.641  15.650  19.591  0.00  0.00    +0.000 C 
ENDBRANCH  20  21
ENDBRANCH  14  20
TORSDOF 3
ENDMDL
MODEL 9
REMARK VINA RESULT:      -5.9      2.141      2.773
REMARK  Name = 
REMARK  5 active torsions:
REMARK  status: ('A' for Active; 'I' for Inactive)
REMARK    1  A    between atoms: C_1  and  O_2
REMARK    2  A    between atoms: O_2  and  C_3
REMARK    3  A    between atoms: N_16  and  C_17
REMARK    4  A    between atoms: C_17  and  C_18
REMARK    5  A    between atoms: C_23  and  C_24
REMARK                            x       y       z     vdW  Elec       q    Type
REMARK                         _______ _______ _______ _____ _____    ______ ____
ROOT
ATOM      1  C   UNL     1      -4.581  11.764  18.550  0.00  0.00    +0.000 A 
ATOM      2  C   UNL     1      -3.225  11.448  18.526  0.00  0.00    +0.000 A 
ATOM      3  C   UNL     1      -2.325  12.015  19.441  0.00  0.00    +0.000 A 
ATOM      4  C   UNL     1      -2.823  12.926  20.386  0.00  0.00    +0.000 A 
ATOM      5  C   UNL     1      -4.184  13.253  20.427  0.00  0.00    +0.000 A 
ATOM      6  C   UNL     1      -5.065  12.673  19.495  0.00  0.00    +0.000 A 
ATOM      7  C   UNL     1      -4.339  14.154  21.494  0.00  0.00    +0.000 A 
ATOM      8  N   UNL     1      -5.543  14.705  21.939  0.00  0.00    +0.000 NA
ATOM      9  C   UNL     1      -5.382  15.485  22.953  0.00  0.00    +0.000 A 
ATOM     10  N   UNL     1      -4.197  15.838  23.570  0.00  0.00    +0.000 N 
ATOM     11  C   UNL     1      -2.977  15.331  23.160  0.00  0.00    +0.000 A 
ATOM     12  O   UNL     1      -1.906  15.646  23.671  0.00  0.00    +0.000 OA
ATOM     13  C   UNL     1      -3.119  14.418  22.062  0.00  0.00    +0.000 A 
ATOM     14  N   UNL     1      -2.192  13.635  21.408  0.00  0.00    +0.000 N 
ATOM     15  C   UNL     1      -4.343  16.673  24.739  0.00  0.00    +0.000 C 
ATOM     16  C   UNL     1      -5.661  17.417  24.630  0.00  0.00    +0.000 C 
ATOM     17  S   UNL     1      -6.737  16.270  23.730  0.00  0.00    +0.000 S 
ENDROOT
BRANCH   1  19
ATOM     18  C   UNL     1      -6.823  11.075  18.234  0.00  0.00    +0.000 C 
ATOM     19  O   UNL     1      -5.528  11.280  17.686  0.00  0.00    +0.000 OA
ENDBRANCH   1  19
BRANCH  14  20
ATOM     20  C   UNL     1      -0.764  13.542  21.720  0.00  0.00    +0.000 C 
BRANCH  20  21
ATOM     21  C   UNL     1      -0.343  12.141  22.142  0.00  0.00    +0.000 C 
ATOM     22  O   UNL     1      -0.915  11.543  23.056  0.00  0.00    +0.000 OA
ATOM     23  N   UNL     1       0.694  11.536  21.429  0.00  0.00    +0.000 N 
ATOM     24  C   UNL     1       1.480  12.143  20.357  0.00  0.00    +0.000 C 
ATOM     25  C   UNL     1       1.129  11.506  19.011  0.00  0.00    +0.000 C 
ATOM     26  C   UNL     1       1.200   9.966  19.059  0.00  0.00    +0.000 C 
ATOM     27  C   UNL     1       0.668   9.359  17.762  0.00  0.00    +0.000 C 
ATOM     28  C   UNL     1       0.430   9.414  20.273  0.00  0.00    +0.000 C 
ATOM     29  C   UNL     1       0.890  10.095  21.563  0.00  0.00    +0.000 C 
ENDBRANCH  20  21
ENDBRANCH  14  20
TORSDOF 3
ENDMDL
