MODEL 1
REMARK VINA RESULT:      -8.3      0.000      0.000
REMARK  Name = 
REMARK  4 active torsions:
REMARK  status: ('A' for Active; 'I' for Inactive)
REMARK    1  A    between atoms: C_1  and  C_2
REMARK    2  A    between atoms: C_2  and  C_4
REMARK    3  A    between atoms: C_10  and  N_11
REMARK    4  A    between atoms: N_11  and  C_12
REMARK                            x       y       z     vdW  Elec       q    Type
REMARK                         _______ _______ _______ _____ _____    ______ ____
ROOT
ATOM      1  C   UNL     1       0.347   9.689  21.729  0.00  0.00    +0.000 A 
ATOM      2  C   UNL     1       0.234  10.390  20.545  0.00  0.00    +0.000 A 
ATOM      3  C   UNL     1       0.950   9.665  19.564  0.00  0.00    +0.000 A 
ATOM      4  C   UNL     1       1.225   9.871  18.202  0.00  0.00    +0.000 A 
ATOM      5  C   UNL     1       1.989   8.923  17.524  0.00  0.00    +0.000 A 
ATOM      6  C   UNL     1       2.466   7.793  18.188  0.00  0.00    +0.000 A 
ATOM      7  C   UNL     1       2.225   7.548  19.558  0.00  0.00    +0.000 A 
ATOM      8  C   UNL     1       1.446   8.528  20.199  0.00  0.00    +0.000 A 
ATOM      9  O   UNL     1       1.077   8.545  21.524  0.00  0.00    +0.000 OA
ENDROOT
BRANCH   1  11
ATOM     10  C   UNL     1      -1.367  10.944  23.095  0.00  0.00    +0.000 C 
ATOM     11  C   UNL     1      -0.179  10.021  23.038  0.00  0.00    +0.000 C 
ATOM     12  O   UNL     1       0.287   9.553  24.076  0.00  0.00    +0.000 OA
ENDBRANCH   1  11
BRANCH   7  13
ATOM     13  N   UNL     1       2.711   6.382  20.185  0.00  0.00    +0.000 N 
ATOM     14  H   UNL     1       3.651   6.463  20.557  0.00  0.00    +0.000 HD
BRANCH  13  15
ATOM     15  C   UNL     1       2.253   5.055  20.026  0.00  0.00    +0.000 A 
ATOM     16  C   UNL     1       1.868   4.550  18.772  0.00  0.00    +0.000 A 
ATOM     17  C   UNL     1       1.298   3.279  18.641  0.00  0.00    +0.000 A 
ATOM     18  C   UNL     1       1.115   2.491  19.770  0.00  0.00    +0.000 A 
ATOM     19  C   UNL     1       1.525   2.969  21.009  0.00  0.00    +0.000 A 
ATOM     20  F   UNL     1       1.341   2.211  22.097  0.00  0.00    +0.000 F 
ATOM     21  C   UNL     1       2.100   4.234  21.144  0.00  0.00    +0.000 A 
ENDBRANCH  13  15
ENDBRANCH   7  13
TORSDOF 3
ENDMDL
MODEL 2
REMARK VINA RESULT:      -8.3      5.818      7.946
REMARK  Name = 
REMARK  4 active torsions:
REMARK  status: ('A' for Active; 'I' for Inactive)
REMARK    1  A    between atoms: C_1  and  C_2
REMARK    2  A    between atoms: C_2  and  C_4
REMARK    3  A    between atoms: C_10  and  N_11
REMARK    4  A    between atoms: N_11  and  C_12
REMARK                            x       y       z     vdW  Elec       q    Type
REMARK                         _______ _______ _______ _____ _____    ______ ____
ROOT
ATOM      1  C   UNL     1       6.350   4.128  13.989  0.00  0.00    +0.000 A 
ATOM      2  C   UNL     1       7.076   5.190  14.487  0.00  0.00    +0.000 A 
ATOM      3  C   UNL     1       6.807   5.263  15.874  0.00  0.00    +0.000 A 
ATOM      4  C   UNL     1       7.213   6.124  16.905  0.00  0.00    +0.000 A 
ATOM      5  C   UNL     1       6.736   5.895  18.194  0.00  0.00    +0.000 A 
ATOM      6  C   UNL     1       5.874   4.828  18.450  0.00  0.00    +0.000 A 
ATOM      7  C   UNL     1       5.430   3.941  17.444  0.00  0.00    +0.000 A 
ATOM      8  C   UNL     1       5.941   4.209  16.162  0.00  0.00    +0.000 A 
ATOM      9  O   UNL     1       5.662   3.516  15.007  0.00  0.00    +0.000 OA
ENDROOT
BRANCH   1  11
ATOM     10  C   UNL     1       4.885   3.298  12.105  0.00  0.00    +0.000 C 
ATOM     11  C   UNL     1       6.254   3.650  12.623  0.00  0.00    +0.000 C 
ATOM     12  O   UNL     1       7.234   3.560  11.884  0.00  0.00    +0.000 OA
ENDBRANCH   1  11
BRANCH   7  13
ATOM     13  N   UNL     1       4.574   2.864  17.751  0.00  0.00    +0.000 N 
ATOM     14  H   UNL     1       4.695   2.046  17.162  0.00  0.00    +0.000 HD
BRANCH  13  15
ATOM     15  C   UNL     1       3.356   2.899  18.466  0.00  0.00    +0.000 A 
ATOM     16  C   UNL     1       2.166   3.360  17.879  0.00  0.00    +0.000 A 
ATOM     17  C   UNL     1       0.994   3.510  18.627  0.00  0.00    +0.000 A 
ATOM     18  C   UNL     1       0.998   3.189  19.979  0.00  0.00    +0.000 A 
ATOM     19  C   UNL     1       2.162   2.699  20.559  0.00  0.00    +0.000 A 
ATOM     20  F   UNL     1       2.166   2.397  21.863  0.00  0.00    +0.000 F 
ATOM     21  C   UNL     1       3.333   2.541  19.815  0.00  0.00    +0.000 A 
ENDBRANCH  13  15
ENDBRANCH   7  13
TORSDOF 3
ENDMDL
MODEL 3
REMARK VINA RESULT:      -8.3      3.860      7.005
REMARK  Name = 
REMARK  4 active torsions:
REMARK  status: ('A' for Active; 'I' for Inactive)
REMARK    1  A    between atoms: C_1  and  C_2
REMARK    2  A    between atoms: C_2  and  C_4
REMARK    3  A    between atoms: C_10  and  N_11
REMARK    4  A    between atoms: N_11  and  C_12
REMARK                            x       y       z     vdW  Elec       q    Type
REMARK                         _______ _______ _______ _____ _____    ______ ____
ROOT
ATOM      1  C   UNL     1       5.559   5.318  17.103  0.00  0.00    +0.000 A 
ATOM      2  C   UNL     1       4.915   4.225  16.561  0.00  0.00    +0.000 A 
ATOM      3  C   UNL     1       3.731   4.026  17.309  0.00  0.00    +0.000 A 
ATOM      4  C   UNL     1       2.693   3.083  17.266  0.00  0.00    +0.000 A 
ATOM      5  C   UNL     1       1.652   3.192  18.186  0.00  0.00    +0.000 A 
ATOM      6  C   UNL     1       1.644   4.221  19.127  0.00  0.00    +0.000 A 
ATOM      7  C   UNL     1       2.670   5.188  19.216  0.00  0.00    +0.000 A 
ATOM      8  C   UNL     1       3.696   5.040  18.265  0.00  0.00    +0.000 A 
ATOM      9  O   UNL     1       4.816   5.829  18.138  0.00  0.00    +0.000 OA
ENDROOT
BRANCH   1  11
ATOM     10  C   UNL     1       7.456   6.881  17.683  0.00  0.00    +0.000 C 
ATOM     11  C   UNL     1       6.824   5.913  16.719  0.00  0.00    +0.000 C 
ATOM     12  O   UNL     1       7.396   5.628  15.668  0.00  0.00    +0.000 OA
ENDBRANCH   1  11
BRANCH   7  13
ATOM     13  N   UNL     1       2.613   6.224  20.171  0.00  0.00    +0.000 N 
ATOM     14  H   UNL     1       2.763   5.925  21.128  0.00  0.00    +0.000 HD
BRANCH  13  15
ATOM     15  C   UNL     1       2.011   7.495  20.037  0.00  0.00    +0.000 A 
ATOM     16  C   UNL     1       1.267   8.075  21.079  0.00  0.00    +0.000 A 
ATOM     17  C   UNL     1       0.571   9.274  20.898  0.00  0.00    +0.000 A 
ATOM     18  C   UNL     1       0.620   9.916  19.667  0.00  0.00    +0.000 A 
ATOM     19  C   UNL     1       1.382   9.368  18.643  0.00  0.00    +0.000 A 
ATOM     20  F   UNL     1       1.422   9.984  17.455  0.00  0.00    +0.000 F 
ATOM     21  C   UNL     1       2.084   8.174  18.820  0.00  0.00    +0.000 A 
ENDBRANCH  13  15
ENDBRANCH   7  13
TORSDOF 3
ENDMDL
MODEL 4
REMARK VINA RESULT:      -8.2      1.238      1.374
REMARK  Name = 
REMARK  4 active torsions:
REMARK  status: ('A' for Active; 'I' for Inactive)
REMARK    1  A    between atoms: C_1  and  C_2
REMARK    2  A    between atoms: C_2  and  C_4
REMARK    3  A    between atoms: C_10  and  N_11
REMARK    4  A    between atoms: N_11  and  C_12
REMARK                            x       y       z     vdW  Elec       q    Type
REMARK                         _______ _______ _______ _____ _____    ______ ____
ROOT
ATOM      1  C   UNL     1       0.531   9.492  21.724  0.00  0.00    +0.000 A 
ATOM      2  C   UNL     1       0.526  10.165  20.519  0.00  0.00    +0.000 A 
ATOM      3  C   UNL     1       1.198   9.345  19.583  0.00  0.00    +0.000 A 
ATOM      4  C   UNL     1       1.535   9.482  18.227  0.00  0.00    +0.000 A 
ATOM      5  C   UNL     1       2.224   8.444  17.601  0.00  0.00    +0.000 A 
ATOM      6  C   UNL     1       2.566   7.293  18.311  0.00  0.00    +0.000 A 
ATOM      7  C   UNL     1       2.257   7.114  19.678  0.00  0.00    +0.000 A 
ATOM      8  C   UNL     1       1.559   8.184  20.265  0.00  0.00    +0.000 A 
ATOM      9  O   UNL     1       1.151   8.276  21.575  0.00  0.00    +0.000 OA
ENDROOT
BRANCH   1  11
ATOM     10  C   UNL     1      -1.178  10.853  22.992  0.00  0.00    +0.000 C 
ATOM     11  C   UNL     1      -0.002   9.913  23.005  0.00  0.00    +0.000 C 
ATOM     12  O   UNL     1       0.448   9.505  24.074  0.00  0.00    +0.000 OA
ENDBRANCH   1  11
BRANCH   7  13
ATOM     13  N   UNL     1       2.606   5.925  20.352  0.00  0.00    +0.000 N 
ATOM     14  H   UNL     1       3.179   6.060  21.178  0.00  0.00    +0.000 HD
BRANCH  13  15
ATOM     15  C   UNL     1       2.605   4.607  19.845  0.00  0.00    +0.000 A 
ATOM     16  C   UNL     1       3.797   3.935  19.528  0.00  0.00    +0.000 A 
ATOM     17  C   UNL     1       3.785   2.680  18.910  0.00  0.00    +0.000 A 
ATOM     18  C   UNL     1       2.571   2.076  18.609  0.00  0.00    +0.000 A 
ATOM     19  C   UNL     1       1.387   2.718  18.952  0.00  0.00    +0.000 A 
ATOM     20  F   UNL     1       0.218   2.138  18.655  0.00  0.00    +0.000 F 
ATOM     21  C   UNL     1       1.393   3.968  19.574  0.00  0.00    +0.000 A 
ENDBRANCH  13  15
ENDBRANCH   7  13
TORSDOF 3
ENDMDL
MODEL 5
REMARK VINA RESULT:      -8.2      3.796      6.966
REMARK  Name = 
REMARK  4 active torsions:
REMARK  status: ('A' for Active; 'I' for Inactive)
REMARK    1  A    between atoms: C_1  and  C_2
REMARK    2  A    between atoms: C_2  and  C_4
REMARK    3  A    between atoms: C_10  and  N_11
REMARK    4  A    between atoms: N_11  and  C_12
REMARK                            x       y       z     vdW  Elec       q    Type
REMARK                         _______ _______ _______ _____ _____    ______ ____
ROOT
ATOM      1  C   UNL     1       5.635   5.385  17.033  0.00  0.00    +0.000 A 
ATOM      2  C   UNL     1       5.017   4.242  16.569  0.00  0.00    +0.000 A 
ATOM      3  C   UNL     1       3.816   4.092  17.300  0.00  0.00    +0.000 A 
ATOM      4  C   UNL     1       2.790   3.135  17.311  0.00  0.00    +0.000 A 
ATOM      5  C   UNL     1       1.723   3.308  18.191  0.00  0.00    +0.000 A 
ATOM      6  C   UNL     1       1.679   4.413  19.040  0.00  0.00    +0.000 A 
ATOM      7  C   UNL     1       2.692   5.397  19.073  0.00  0.00    +0.000 A 
ATOM      8  C   UNL     1       3.745   5.183  18.165  0.00  0.00    +0.000 A 
ATOM      9  O   UNL     1       4.859   5.973  18.001  0.00  0.00    +0.000 OA
ENDROOT
BRANCH   1  11
ATOM     10  C   UNL     1       7.536   6.961  17.565  0.00  0.00    +0.000 C 
ATOM     11  C   UNL     1       6.903   5.962  16.633  0.00  0.00    +0.000 C 
ATOM     12  O   UNL     1       7.478   5.639  15.594  0.00  0.00    +0.000 OA
ENDBRANCH   1  11
BRANCH   7  13
ATOM     13  N   UNL     1       2.598   6.509  19.935  0.00  0.00    +0.000 N 
ATOM     14  H   UNL     1       2.751   6.299  20.915  0.00  0.00    +0.000 HD
BRANCH  13  15
ATOM     15  C   UNL     1       1.959   7.745  19.691  0.00  0.00    +0.000 A 
ATOM     16  C   UNL     1       2.038   8.386  18.442  0.00  0.00    +0.000 A 
ATOM     17  C   UNL     1       1.509   9.665  18.245  0.00  0.00    +0.000 A 
ATOM     18  C   UNL     1       0.882  10.318  19.298  0.00  0.00    +0.000 A 
ATOM     19  C   UNL     1       0.769   9.677  20.526  0.00  0.00    +0.000 A 
ATOM     20  F   UNL     1       0.171  10.311  21.543  0.00  0.00    +0.000 F 
ATOM     21  C   UNL     1       1.289   8.398  20.727  0.00  0.00    +0.000 A 
ENDBRANCH  13  15
ENDBRANCH   7  13
TORSDOF 3
ENDMDL
MODEL 6
REMARK VINA RESULT:      -8.2      1.193      1.295
REMARK  Name = 
REMARK  4 active torsions:
REMARK  status: ('A' for Active; 'I' for Inactive)
REMARK    1  A    between atoms: C_1  and  C_2
REMARK    2  A    between atoms: C_2  and  C_4
REMARK    3  A    between atoms: C_10  and  N_11
REMARK    4  A    between atoms: N_11  and  C_12
REMARK                            x       y       z     vdW  Elec       q    Type
REMARK                         _______ _______ _______ _____ _____    ______ ____
ROOT
ATOM      1  C   UNL     1       0.430   9.566  21.797  0.00  0.00    +0.000 A 
ATOM      2  C   UNL     1       0.385  10.250  20.599  0.00  0.00    +0.000 A 
ATOM      3  C   UNL     1       1.082   9.469  19.648  0.00  0.00    +0.000 A 
ATOM      4  C   UNL     1       1.400   9.634  18.291  0.00  0.00    +0.000 A 
ATOM      5  C   UNL     1       2.125   8.633  17.647  0.00  0.00    +0.000 A 
ATOM      6  C   UNL     1       2.523   7.490  18.342  0.00  0.00    +0.000 A 
ATOM      7  C   UNL     1       2.235   7.284  19.709  0.00  0.00    +0.000 A 
ATOM      8  C   UNL     1       1.498   8.318  20.314  0.00  0.00    +0.000 A 
ATOM      9  O   UNL     1       1.099   8.379  21.629  0.00  0.00    +0.000 OA
ENDROOT
BRANCH   1  11
ATOM     10  C   UNL     1      -1.302  10.867  23.096  0.00  0.00    +0.000 C 
ATOM     11  C   UNL     1      -0.108   9.951  23.087  0.00  0.00    +0.000 C 
ATOM     12  O   UNL     1       0.354   9.531  24.147  0.00  0.00    +0.000 OA
ENDBRANCH   1  11
BRANCH   7  13
ATOM     13  N   UNL     1       2.640   6.104  20.368  0.00  0.00    +0.000 N 
ATOM     14  H   UNL     1       3.445   6.214  20.975  0.00  0.00    +0.000 HD
BRANCH  13  15
ATOM     15  C   UNL     1       2.346   4.769  20.014  0.00  0.00    +0.000 A 
ATOM     16  C   UNL     1       1.055   4.231  20.158  0.00  0.00    +0.000 A 
ATOM     17  C   UNL     1       0.800   2.876  19.924  0.00  0.00    +0.000 A 
ATOM     18  C   UNL     1       1.838   2.040  19.533  0.00  0.00    +0.000 A 
ATOM     19  C   UNL     1       3.109   2.571  19.354  0.00  0.00    +0.000 A 
ATOM     20  F   UNL     1       4.111   1.763  18.983  0.00  0.00    +0.000 F 
ATOM     21  C   UNL     1       3.369   3.924  19.579  0.00  0.00    +0.000 A 
ENDBRANCH  13  15
ENDBRANCH   7  13
TORSDOF 3
ENDMDL
MODEL 7
REMARK VINA RESULT:      -8.2      5.176      7.711
REMARK  Name = 
REMARK  4 active torsions:
REMARK  status: ('A' for Active; 'I' for Inactive)
REMARK    1  A    between atoms: C_1  and  C_2
REMARK    2  A    between atoms: C_2  and  C_4
REMARK    3  A    between atoms: C_10  and  N_11
REMARK    4  A    between atoms: N_11  and  C_12
REMARK                            x       y       z     vdW  Elec       q    Type
REMARK                         _______ _______ _______ _____ _____    ______ ____
ROOT
ATOM      1  C   UNL     1       6.018   4.227  14.484  0.00  0.00    +0.000 A 
ATOM      2  C   UNL     1       7.191   4.273  15.210  0.00  0.00    +0.000 A 
ATOM      3  C   UNL     1       6.855   4.705  16.514  0.00  0.00    +0.000 A 
ATOM      4  C   UNL     1       7.595   4.970  17.678  0.00  0.00    +0.000 A 
ATOM      5  C   UNL     1       6.917   5.396  18.818  0.00  0.00    +0.000 A 
ATOM      6  C   UNL     1       5.531   5.552  18.800  0.00  0.00    +0.000 A 
ATOM      7  C   UNL     1       4.745   5.307  17.652  0.00  0.00    +0.000 A 
ATOM      8  C   UNL     1       5.472   4.876  16.528  0.00  0.00    +0.000 A 
ATOM      9  O   UNL     1       4.962   4.583  15.284  0.00  0.00    +0.000 OA
ENDROOT
BRANCH   1  11
ATOM     10  C   UNL     1       7.030   3.897  12.193  0.00  0.00    +0.000 C 
ATOM     11  C   UNL     1       5.822   3.876  13.091  0.00  0.00    +0.000 C 
ATOM     12  O   UNL     1       4.728   3.536  12.643  0.00  0.00    +0.000 OA
ENDBRANCH   1  11
BRANCH   7  13
ATOM     13  N   UNL     1       3.344   5.460  17.683  0.00  0.00    +0.000 N 
ATOM     14  H   UNL     1       3.003   6.324  17.276  0.00  0.00    +0.000 HD
BRANCH  13  15
ATOM     15  C   UNL     1       2.417   4.796  18.517  0.00  0.00    +0.000 A 
ATOM     16  C   UNL     1       2.192   5.203  19.844  0.00  0.00    +0.000 A 
ATOM     17  C   UNL     1       1.368   4.467  20.702  0.00  0.00    +0.000 A 
ATOM     18  C   UNL     1       0.749   3.314  20.236  0.00  0.00    +0.000 A 
ATOM     19  C   UNL     1       0.938   2.925  18.916  0.00  0.00    +0.000 A 
ATOM     20  F   UNL     1       0.347   1.809  18.471  0.00  0.00    +0.000 F 
ATOM     21  C   UNL     1       1.754   3.658  18.053  0.00  0.00    +0.000 A 
ENDBRANCH  13  15
ENDBRANCH   7  13
TORSDOF 3
ENDMDL
MODEL 8
REMARK VINA RESULT:      -8.1      3.551      7.098
REMARK  Name = 
REMARK  4 active torsions:
REMARK  status: ('A' for Active; 'I' for Inactive)
REMARK    1  A    between atoms: C_1  and  C_2
REMARK    2  A    between atoms: C_2  and  C_4
REMARK    3  A    between atoms: C_10  and  N_11
REMARK    4  A    between atoms: N_11  and  C_12
REMARK                            x       y       z     vdW  Elec       q    Type
REMARK                         _______ _______ _______ _____ _____    ______ ____
ROOT
ATOM      1  C   UNL     1       4.627   4.111  17.410  0.00  0.00    +0.000 A 
ATOM      2  C   UNL     1       3.846   2.981  17.546  0.00  0.00    +0.000 A 
ATOM      3  C   UNL     1       2.873   3.265  18.533  0.00  0.00    +0.000 A 
ATOM      4  C   UNL     1       1.834   2.529  19.123  0.00  0.00    +0.000 A 
ATOM      5  C   UNL     1       1.047   3.144  20.095  0.00  0.00    +0.000 A 
ATOM      6  C   UNL     1       1.291   4.465  20.470  0.00  0.00    +0.000 A 
ATOM      7  C   UNL     1       2.330   5.243  19.913  0.00  0.00    +0.000 A 
ATOM      8  C   UNL     1       3.093   4.582  18.933  0.00  0.00    +0.000 A 
ATOM      9  O   UNL     1       4.167   5.098  18.245  0.00  0.00    +0.000 OA
ENDROOT
BRANCH   1  11
ATOM     10  C   UNL     1       5.515   4.563  15.088  0.00  0.00    +0.000 C 
ATOM     11  C   UNL     1       5.776   4.326  16.552  0.00  0.00    +0.000 C 
ATOM     12  O   UNL     1       6.927   4.353  16.984  0.00  0.00    +0.000 OA
ENDBRANCH   1  11
BRANCH   7  13
ATOM     13  N   UNL     1       2.529   6.582  20.307  0.00  0.00    +0.000 N 
ATOM     14  H   UNL     1       2.866   6.697  21.257  0.00  0.00    +0.000 HD
BRANCH  13  15
ATOM     15  C   UNL     1       1.973   7.747  19.734  0.00  0.00    +0.000 A 
ATOM     16  C   UNL     1       2.230   8.112  18.402  0.00  0.00    +0.000 A 
ATOM     17  C   UNL     1       1.779   9.329  17.879  0.00  0.00    +0.000 A 
ATOM     18  C   UNL     1       1.054  10.195  18.686  0.00  0.00    +0.000 A 
ATOM     19  C   UNL     1       0.765   9.826  19.995  0.00  0.00    +0.000 A 
ATOM     20  F   UNL     1       0.071  10.665  20.774  0.00  0.00    +0.000 F 
ATOM     21  C   UNL     1       1.206   8.610  20.520  0.00  0.00    +0.000 A 
ENDBRANCH  13  15
ENDBRANCH   7  13
TORSDOF 3
ENDMDL
MODEL 9
REMARK VINA RESULT:      -8.1      6.164      8.082
REMARK  Name = 
REMARK  4 active torsions:
REMARK  status: ('A' for Active; 'I' for Inactive)
REMARK    1  A    between atoms: C_1  and  C_2
REMARK    2  A    between atoms: C_2  and  C_4
REMARK    3  A    between atoms: C_10  and  N_11
REMARK    4  A    between atoms: N_11  and  C_12
REMARK                            x       y       z     vdW  Elec       q    Type
REMARK                         _______ _______ _______ _____ _____    ______ ____
ROOT
ATOM      1  C   UNL     1       6.362   4.106  13.950  0.00  0.00    +0.000 A 
ATOM      2  C   UNL     1       7.072   5.192  14.420  0.00  0.00    +0.000 A 
ATOM      3  C   UNL     1       6.824   5.281  15.810  0.00  0.00    +0.000 A 
ATOM      4  C   UNL     1       7.227   6.167  16.821  0.00  0.00    +0.000 A 
ATOM      5  C   UNL     1       6.777   5.948  18.121  0.00  0.00    +0.000 A 
ATOM      6  C   UNL     1       5.944   4.866  18.408  0.00  0.00    +0.000 A 
ATOM      7  C   UNL     1       5.504   3.953  17.423  0.00  0.00    +0.000 A 
ATOM      8  C   UNL     1       5.988   4.213  16.128  0.00  0.00    +0.000 A 
ATOM      9  O   UNL     1       5.705   3.495  14.989  0.00  0.00    +0.000 OA
ENDROOT
BRANCH   1  11
ATOM     10  C   UNL     1       4.880   3.260  12.088  0.00  0.00    +0.000 C 
ATOM     11  C   UNL     1       6.256   3.605  12.594  0.00  0.00    +0.000 C 
ATOM     12  O   UNL     1       7.231   3.489  11.853  0.00  0.00    +0.000 OA
ENDBRANCH   1  11
BRANCH   7  13
ATOM     13  N   UNL     1       4.677   2.862  17.761  0.00  0.00    +0.000 N 
ATOM     14  H   UNL     1       4.687   2.101  17.090  0.00  0.00    +0.000 HD
BRANCH  13  15
ATOM     15  C   UNL     1       3.584   2.845  18.655  0.00  0.00    +0.000 A 
ATOM     16  C   UNL     1       3.762   2.962  20.044  0.00  0.00    +0.000 A 
ATOM     17  C   UNL     1       2.690   2.820  20.931  0.00  0.00    +0.000 A 
ATOM     18  C   UNL     1       1.418   2.566  20.434  0.00  0.00    +0.000 A 
ATOM     19  C   UNL     1       1.228   2.484  19.060  0.00  0.00    +0.000 A 
ATOM     20  F   UNL     1       0.002   2.233  18.583  0.00  0.00    +0.000 F 
ATOM     21  C   UNL     1       2.293   2.632  18.170  0.00  0.00    +0.000 A 
ENDBRANCH  13  15
ENDBRANCH   7  13
TORSDOF 3
ENDMDL
