MODEL 1
REMARK VINA RESULT:      -7.6      0.000      0.000
REMARK  Name = 
REMARK  7 active torsions:
REMARK  status: ('A' for Active; 'I' for Inactive)
REMARK    1  A    between atoms: C_1  and  C_2
REMARK    2  A    between atoms: C_5  and  O_6
REMARK    3  A    between atoms: O_6  and  C_7
REMARK    4  A    between atoms: C_7  and  C_8
REMARK    5  A    between atoms: C_11  and  C_12
REMARK    6  A    between atoms: N_14  and  N_15
REMARK    7  A    between atoms: C_17  and  N_18
REMARK                            x       y       z     vdW  Elec       q    Type
REMARK                         _______ _______ _______ _____ _____    ______ ____
ROOT
ATOM      1  C   UNL     1       4.003   3.202  18.274  0.00  0.00    +0.000 C 
ENDROOT
BRANCH   1   2
ATOM      2  C   UNL     1       5.196   3.911  17.735  0.00  0.00    +0.000 A 
ATOM      3  C   UNL     1       6.228   4.662  18.264  0.00  0.00    +0.000 A 
ATOM      4  C   UNL     1       7.069   5.020  17.179  0.00  0.00    +0.000 A 
ATOM      5  C   UNL     1       6.507   4.474  16.042  0.00  0.00    +0.000 A 
ATOM      6  O   UNL     1       5.366   3.799  16.386  0.00  0.00    +0.000 OA
BRANCH   5   7
ATOM      7  C   UNL     1       6.902   4.518  14.648  0.00  0.00    +0.000 C 
ATOM      8  O   UNL     1       7.689   5.337  14.173  0.00  0.00    +0.000 OA
ATOM      9  N   UNL     1       6.283   3.542  13.865  0.00  0.00    +0.000 N 
ATOM     10  H   UNL     1       5.716   2.838  14.335  0.00  0.00    +0.000 HD
BRANCH   9  11
ATOM     11  N   UNL     1       6.559   3.424  12.486  0.00  0.00    +0.000 NA
ATOM     12  H   UNL     1       5.697   3.668  11.980  0.00  0.00    +0.000 HD
ATOM     13  H   UNL     1       6.712   2.435  12.274  0.00  0.00    +0.000 HD
ENDBRANCH   9  11
ENDBRANCH   5   7
ENDBRANCH   1   2
BRANCH   1  14
ATOM     14  O   UNL     1       2.852   4.007  18.056  0.00  0.00    +0.000 OA
BRANCH  14  19
ATOM     15  C   UNL     1       1.319   8.513  21.205  0.00  0.00    +0.000 C 
ATOM     16  C   UNL     1       1.721   7.299  20.423  0.00  0.00    +0.000 A 
ATOM     17  C   UNL     1       2.257   7.397  19.141  0.00  0.00    +0.000 A 
ATOM     18  C   UNL     1       2.613   6.242  18.430  0.00  0.00    +0.000 A 
ATOM     19  C   UNL     1       2.448   4.950  18.960  0.00  0.00    +0.000 A 
ATOM     20  C   UNL     1       1.906   4.870  20.249  0.00  0.00    +0.000 A 
ATOM     21  C   UNL     1       1.549   6.027  20.975  0.00  0.00    +0.000 A 
BRANCH  20  22
ATOM     22  N   UNL     1       1.650   3.633  20.953  0.00  0.00    +0.000 N 
ATOM     23  O   UNL     1       0.949   2.786  20.386  0.00  0.00    +0.000 OA
ATOM     24  O   UNL     1       2.210   3.482  22.048  0.00  0.00    +0.000 OA
ENDBRANCH  20  22
ENDBRANCH  14  19
ENDBRANCH   1  14
TORSDOF 6
ENDMDL
MODEL 2
REMARK VINA RESULT:      -7.5      2.106      2.833
REMARK  Name = 
REMARK  7 active torsions:
REMARK  status: ('A' for Active; 'I' for Inactive)
REMARK    1  A    between atoms: C_1  and  C_2
REMARK    2  A    between atoms: C_5  and  O_6
REMARK    3  A    between atoms: O_6  and  C_7
REMARK    4  A    between atoms: C_7  and  C_8
REMARK    5  A    between atoms: C_11  and  C_12
REMARK    6  A    between atoms: N_14  and  N_15
REMARK    7  A    between atoms: C_17  and  N_18
REMARK                            x       y       z     vdW  Elec       q    Type
REMARK                         _______ _______ _______ _____ _____    ______ ____
ROOT
ATOM      1  C   UNL     1       4.082   6.885  17.981  0.00  0.00    +0.000 C 
ENDROOT
BRANCH   1   2
ATOM      2  C   UNL     1       5.243   6.047  17.577  0.00  0.00    +0.000 A 
ATOM      3  C   UNL     1       6.240   5.347  18.229  0.00  0.00    +0.000 A 
ATOM      4  C   UNL     1       7.024   4.723  17.225  0.00  0.00    +0.000 A 
ATOM      5  C   UNL     1       6.470   5.075  16.011  0.00  0.00    +0.000 A 
ATOM      6  O   UNL     1       5.386   5.881  16.229  0.00  0.00    +0.000 OA
BRANCH   5   7
ATOM      7  C   UNL     1       6.845   4.759  14.646  0.00  0.00    +0.000 C 
ATOM      8  O   UNL     1       7.715   5.351  14.008  0.00  0.00    +0.000 OA
ATOM      9  N   UNL     1       6.104   3.711  14.097  0.00  0.00    +0.000 N 
ATOM     10  H   UNL     1       5.466   3.202  14.707  0.00  0.00    +0.000 HD
BRANCH   9  11
ATOM     11  N   UNL     1       6.342   3.255  12.782  0.00  0.00    +0.000 NA
ATOM     12  H   UNL     1       7.119   2.583  12.828  0.00  0.00    +0.000 HD
ATOM     13  H   UNL     1       6.709   4.038  12.235  0.00  0.00    +0.000 HD
ENDBRANCH   9  11
ENDBRANCH   5   7
ENDBRANCH   1   2
BRANCH   1  14
ATOM     14  O   UNL     1       2.895   6.109  17.872  0.00  0.00    +0.000 OA
BRANCH  14  19
ATOM     15  C   UNL     1       1.458   2.506  22.059  0.00  0.00    +0.000 C 
ATOM     16  C   UNL     1       1.860   3.411  20.932  0.00  0.00    +0.000 A 
ATOM     17  C   UNL     1       1.839   4.798  21.063  0.00  0.00    +0.000 A 
ATOM     18  C   UNL     1       2.210   5.618  19.989  0.00  0.00    +0.000 A 
ATOM     19  C   UNL     1       2.611   5.096  18.746  0.00  0.00    +0.000 A 
ATOM     20  C   UNL     1       2.625   3.700  18.632  0.00  0.00    +0.000 A 
ATOM     21  C   UNL     1       2.258   2.866  19.710  0.00  0.00    +0.000 A 
BRANCH  20  22
ATOM     22  N   UNL     1       2.994   2.982  17.432  0.00  0.00    +0.000 N 
ATOM     23  O   UNL     1       2.209   3.020  16.477  0.00  0.00    +0.000 OA
ATOM     24  O   UNL     1       4.106   2.435  17.423  0.00  0.00    +0.000 OA
ENDBRANCH  20  22
ENDBRANCH  14  19
ENDBRANCH   1  14
TORSDOF 6
ENDMDL
MODEL 3
REMARK VINA RESULT:      -7.3      2.897      4.065
REMARK  Name = 
REMARK  7 active torsions:
REMARK  status: ('A' for Active; 'I' for Inactive)
REMARK    1  A    between atoms: C_1  and  C_2
REMARK    2  A    between atoms: C_5  and  O_6
REMARK    3  A    between atoms: O_6  and  C_7
REMARK    4  A    between atoms: C_7  and  C_8
REMARK    5  A    between atoms: C_11  and  C_12
REMARK    6  A    between atoms: N_14  and  N_15
REMARK    7  A    between atoms: C_17  and  N_18
REMARK                            x       y       z     vdW  Elec       q    Type
REMARK                         _______ _______ _______ _____ _____    ______ ____
ROOT
ATOM      1  C   UNL     1       3.324   7.216  17.823  0.00  0.00    +0.000 C 
ENDROOT
BRANCH   1   2
ATOM      2  C   UNL     1       4.619   6.670  17.336  0.00  0.00    +0.000 A 
ATOM      3  C   UNL     1       5.247   6.544  16.111  0.00  0.00    +0.000 A 
ATOM      4  C   UNL     1       6.512   5.950  16.361  0.00  0.00    +0.000 A 
ATOM      5  C   UNL     1       6.590   5.739  17.723  0.00  0.00    +0.000 A 
ATOM      6  O   UNL     1       5.436   6.179  18.313  0.00  0.00    +0.000 OA
BRANCH   5   7
ATOM      7  C   UNL     1       7.623   5.152  18.555  0.00  0.00    +0.000 C 
ATOM      8  O   UNL     1       8.449   4.329  18.161  0.00  0.00    +0.000 OA
ATOM      9  N   UNL     1       7.587   5.595  19.878  0.00  0.00    +0.000 N 
ATOM     10  H   UNL     1       6.940   6.346  20.116  0.00  0.00    +0.000 HD
BRANCH   9  11
ATOM     11  N   UNL     1       8.527   5.142  20.829  0.00  0.00    +0.000 NA
ATOM     12  H   UNL     1       8.543   4.115  20.778  0.00  0.00    +0.000 HD
ATOM     13  H   UNL     1       8.162   5.349  21.762  0.00  0.00    +0.000 HD
ENDBRANCH   9  11
ENDBRANCH   5   7
ENDBRANCH   1   2
BRANCH   1  14
ATOM     14  O   UNL     1       2.334   6.199  17.736  0.00  0.00    +0.000 OA
BRANCH  14  19
ATOM     15  C   UNL     1       1.731   2.552  22.084  0.00  0.00    +0.000 C 
ATOM     16  C   UNL     1       1.918   3.472  20.915  0.00  0.00    +0.000 A 
ATOM     17  C   UNL     1       1.708   4.845  21.021  0.00  0.00    +0.000 A 
ATOM     18  C   UNL     1       1.880   5.678  19.907  0.00  0.00    +0.000 A 
ATOM     19  C   UNL     1       2.261   5.182  18.647  0.00  0.00    +0.000 A 
ATOM     20  C   UNL     1       2.465   3.800  18.557  0.00  0.00    +0.000 A 
ATOM     21  C   UNL     1       2.300   2.953  19.676  0.00  0.00    +0.000 A 
BRANCH  20  22
ATOM     22  N   UNL     1       2.845   3.106  17.347  0.00  0.00    +0.000 N 
ATOM     23  O   UNL     1       2.125   2.173  16.971  0.00  0.00    +0.000 OA
ATOM     24  O   UNL     1       3.829   3.542  16.734  0.00  0.00    +0.000 OA
ENDBRANCH  20  22
ENDBRANCH  14  19
ENDBRANCH   1  14
TORSDOF 6
ENDMDL
MODEL 4
REMARK VINA RESULT:      -7.3      3.408      7.482
REMARK  Name = 
REMARK  7 active torsions:
REMARK  status: ('A' for Active; 'I' for Inactive)
REMARK    1  A    between atoms: C_1  and  C_2
REMARK    2  A    between atoms: C_5  and  O_6
REMARK    3  A    between atoms: O_6  and  C_7
REMARK    4  A    between atoms: C_7  and  C_8
REMARK    5  A    between atoms: C_11  and  C_12
REMARK    6  A    between atoms: N_14  and  N_15
REMARK    7  A    between atoms: C_17  and  N_18
REMARK                            x       y       z     vdW  Elec       q    Type
REMARK                         _______ _______ _______ _____ _____    ______ ____
ROOT
ATOM      1  C   UNL     1       2.972   5.379  19.609  0.00  0.00    +0.000 C 
ENDROOT
BRANCH   1   2
ATOM      2  C   UNL     1       2.450   6.759  19.417  0.00  0.00    +0.000 A 
ATOM      3  C   UNL     1       2.462   7.693  18.400  0.00  0.00    +0.000 A 
ATOM      4  C   UNL     1       1.735   8.818  18.870  0.00  0.00    +0.000 A 
ATOM      5  C   UNL     1       1.320   8.515  20.152  0.00  0.00    +0.000 A 
ATOM      6  O   UNL     1       1.757   7.260  20.481  0.00  0.00    +0.000 OA
BRANCH   5   7
ATOM      7  C   UNL     1       0.564   9.274  21.130  0.00  0.00    +0.000 C 
ATOM      8  O   UNL     1      -0.375  10.021  20.857  0.00  0.00    +0.000 OA
ATOM      9  N   UNL     1       1.017   9.096  22.438  0.00  0.00    +0.000 N 
ATOM     10  H   UNL     1       1.735   8.393  22.607  0.00  0.00    +0.000 HD
BRANCH   9  11
ATOM     11  N   UNL     1       0.391   9.744  23.525  0.00  0.00    +0.000 NA
ATOM     12  H   UNL     1      -0.293   9.085  23.921  0.00  0.00    +0.000 HD
ATOM     13  H   UNL     1      -0.175  10.512  23.155  0.00  0.00    +0.000 HD
ENDBRANCH   9  11
ENDBRANCH   5   7
ENDBRANCH   1   2
BRANCH   1  14
ATOM     14  O   UNL     1       4.393   5.421  19.616  0.00  0.00    +0.000 OA
BRANCH  14  19
ATOM     15  C   UNL     1       6.710   4.172  14.552  0.00  0.00    +0.000 C 
ATOM     16  C   UNL     1       6.152   4.502  15.904  0.00  0.00    +0.000 A 
ATOM     17  C   UNL     1       4.808   4.302  16.211  0.00  0.00    +0.000 A 
ATOM     18  C   UNL     1       4.313   4.631  17.480  0.00  0.00    +0.000 A 
ATOM     19  C   UNL     1       5.128   5.173  18.490  0.00  0.00    +0.000 A 
ATOM     20  C   UNL     1       6.476   5.370  18.164  0.00  0.00    +0.000 A 
ATOM     21  C   UNL     1       6.985   5.037  16.889  0.00  0.00    +0.000 A 
BRANCH  20  22
ATOM     22  N   UNL     1       7.462   5.928  19.063  0.00  0.00    +0.000 N 
ATOM     23  O   UNL     1       7.613   5.378  20.160  0.00  0.00    +0.000 OA
ATOM     24  O   UNL     1       8.134   6.878  18.640  0.00  0.00    +0.000 OA
ENDBRANCH  20  22
ENDBRANCH  14  19
ENDBRANCH   1  14
TORSDOF 6
ENDMDL
MODEL 5
REMARK VINA RESULT:      -7.3      2.363      2.717
REMARK  Name = 
REMARK  7 active torsions:
REMARK  status: ('A' for Active; 'I' for Inactive)
REMARK    1  A    between atoms: C_1  and  C_2
REMARK    2  A    between atoms: C_5  and  O_6
REMARK    3  A    between atoms: O_6  and  C_7
REMARK    4  A    between atoms: C_7  and  C_8
REMARK    5  A    between atoms: C_11  and  C_12
REMARK    6  A    between atoms: N_14  and  N_15
REMARK    7  A    between atoms: C_17  and  N_18
REMARK                            x       y       z     vdW  Elec       q    Type
REMARK                         _______ _______ _______ _____ _____    ______ ____
ROOT
ATOM      1  C   UNL     1       4.034   3.357  17.425  0.00  0.00    +0.000 C 
ENDROOT
BRANCH   1   2
ATOM      2  C   UNL     1       5.216   4.099  16.908  0.00  0.00    +0.000 A 
ATOM      3  C   UNL     1       5.939   4.120  15.731  0.00  0.00    +0.000 A 
ATOM      4  C   UNL     1       6.947   5.106  15.890  0.00  0.00    +0.000 A 
ATOM      5  C   UNL     1       6.793   5.633  17.157  0.00  0.00    +0.000 A 
ATOM      6  O   UNL     1       5.737   5.017  17.773  0.00  0.00    +0.000 OA
BRANCH   5   7
ATOM      7  C   UNL     1       7.532   6.648  17.881  0.00  0.00    +0.000 C 
ATOM      8  O   UNL     1       8.123   6.454  18.943  0.00  0.00    +0.000 OA
ATOM      9  N   UNL     1       7.500   7.901  17.267  0.00  0.00    +0.000 N 
ATOM     10  H   UNL     1       7.074   7.973  16.343  0.00  0.00    +0.000 HD
BRANCH   9  11
ATOM     11  N   UNL     1       8.179   9.008  17.822  0.00  0.00    +0.000 NA
ATOM     12  H   UNL     1       7.555   9.822  17.738  0.00  0.00    +0.000 HD
ATOM     13  H   UNL     1       8.975   9.229  17.218  0.00  0.00    +0.000 HD
ENDBRANCH   9  11
ENDBRANCH   5   7
ENDBRANCH   1   2
BRANCH   1  14
ATOM     14  O   UNL     1       2.895   4.207  17.362  0.00  0.00    +0.000 OA
BRANCH  14  19
ATOM     15  C   UNL     1       1.451   8.172  21.205  0.00  0.00    +0.000 C 
ATOM     16  C   UNL     1       1.834   7.094  20.236  0.00  0.00    +0.000 A 
ATOM     17  C   UNL     1       2.281   7.389  18.950  0.00  0.00    +0.000 A 
ATOM     18  C   UNL     1       2.621   6.358  18.062  0.00  0.00    +0.000 A 
ATOM     19  C   UNL     1       2.526   4.999  18.414  0.00  0.00    +0.000 A 
ATOM     20  C   UNL     1       2.073   4.721  19.710  0.00  0.00    +0.000 A 
ATOM     21  C   UNL     1       1.733   5.753  20.612  0.00  0.00    +0.000 A 
BRANCH  20  22
ATOM     22  N   UNL     1       1.898   3.389  20.246  0.00  0.00    +0.000 N 
ATOM     23  O   UNL     1       0.808   2.834  20.056  0.00  0.00    +0.000 OA
ATOM     24  O   UNL     1       2.877   2.873  20.800  0.00  0.00    +0.000 OA
ENDBRANCH  20  22
ENDBRANCH  14  19
ENDBRANCH   1  14
TORSDOF 6
ENDMDL
MODEL 6
REMARK VINA RESULT:      -7.2      2.525      6.030
REMARK  Name = 
REMARK  7 active torsions:
REMARK  status: ('A' for Active; 'I' for Inactive)
REMARK    1  A    between atoms: C_1  and  C_2
REMARK    2  A    between atoms: C_5  and  O_6
REMARK    3  A    between atoms: O_6  and  C_7
REMARK    4  A    between atoms: C_7  and  C_8
REMARK    5  A    between atoms: C_11  and  C_12
REMARK    6  A    between atoms: N_14  and  N_15
REMARK    7  A    between atoms: C_17  and  N_18
REMARK                            x       y       z     vdW  Elec       q    Type
REMARK                         _______ _______ _______ _____ _____    ______ ____
ROOT
ATOM      1  C   UNL     1       3.396   7.099  18.034  0.00  0.00    +0.000 C 
ENDROOT
BRANCH   1   2
ATOM      2  C   UNL     1       2.864   6.037  18.931  0.00  0.00    +0.000 A 
ATOM      3  C   UNL     1       2.188   6.000  20.135  0.00  0.00    +0.000 A 
ATOM      4  C   UNL     1       1.945   4.632  20.424  0.00  0.00    +0.000 A 
ATOM      5  C   UNL     1       2.488   3.903  19.385  0.00  0.00    +0.000 A 
ATOM      6  O   UNL     1       3.046   4.763  18.478  0.00  0.00    +0.000 OA
BRANCH   5   7
ATOM      7  C   UNL     1       2.565   2.476  19.139  0.00  0.00    +0.000 C 
ATOM      8  O   UNL     1       1.626   1.694  19.283  0.00  0.00    +0.000 OA
ATOM      9  N   UNL     1       3.832   2.052  18.733  0.00  0.00    +0.000 N 
ATOM     10  H   UNL     1       4.538   2.761  18.542  0.00  0.00    +0.000 HD
BRANCH   9  11
ATOM     11  N   UNL     1       4.089   0.696  18.433  0.00  0.00    +0.000 NA
ATOM     12  H   UNL     1       3.241   0.314  17.994  0.00  0.00    +0.000 HD
ATOM     13  H   UNL     1       4.176   0.185  19.316  0.00  0.00    +0.000 HD
ENDBRANCH   9  11
ENDBRANCH   5   7
ENDBRANCH   1   2
BRANCH   1  14
ATOM     14  O   UNL     1       4.803   6.935  17.912  0.00  0.00    +0.000 OA
BRANCH  14  19
ATOM     15  C   UNL     1       6.725   3.968  13.431  0.00  0.00    +0.000 C 
ATOM     16  C   UNL     1       6.237   4.707  14.641  0.00  0.00    +0.000 A 
ATOM     17  C   UNL     1       5.348   5.775  14.538  0.00  0.00    +0.000 A 
ATOM     18  C   UNL     1       4.918   6.454  15.687  0.00  0.00    +0.000 A 
ATOM     19  C   UNL     1       5.355   6.103  16.978  0.00  0.00    +0.000 A 
ATOM     20  C   UNL     1       6.250   5.028  17.061  0.00  0.00    +0.000 A 
ATOM     21  C   UNL     1       6.684   4.335  15.910  0.00  0.00    +0.000 A 
BRANCH  20  22
ATOM     22  N   UNL     1       6.818   4.532  18.295  0.00  0.00    +0.000 N 
ATOM     23  O   UNL     1       6.036   4.116  19.159  0.00  0.00    +0.000 OA
ATOM     24  O   UNL     1       8.053   4.496  18.371  0.00  0.00    +0.000 OA
ENDBRANCH  20  22
ENDBRANCH  14  19
ENDBRANCH   1  14
TORSDOF 6
ENDMDL
MODEL 7
REMARK VINA RESULT:      -7.2      3.246      7.517
REMARK  Name = 
REMARK  7 active torsions:
REMARK  status: ('A' for Active; 'I' for Inactive)
REMARK    1  A    between atoms: C_1  and  C_2
REMARK    2  A    between atoms: C_5  and  O_6
REMARK    3  A    between atoms: O_6  and  C_7
REMARK    4  A    between atoms: C_7  and  C_8
REMARK    5  A    between atoms: C_11  and  C_12
REMARK    6  A    between atoms: N_14  and  N_15
REMARK    7  A    between atoms: C_17  and  N_18
REMARK                            x       y       z     vdW  Elec       q    Type
REMARK                         _______ _______ _______ _____ _____    ______ ____
ROOT
ATOM      1  C   UNL     1       3.590   5.357  19.463  0.00  0.00    +0.000 C 
ENDROOT
BRANCH   1   2
ATOM      2  C   UNL     1       2.886   6.641  19.201  0.00  0.00    +0.000 A 
ATOM      3  C   UNL     1       2.664   7.447  18.101  0.00  0.00    +0.000 A 
ATOM      4  C   UNL     1       1.868   8.534  18.546  0.00  0.00    +0.000 A 
ATOM      5  C   UNL     1       1.647   8.340  19.895  0.00  0.00    +0.000 A 
ATOM      6  O   UNL     1       2.268   7.186  20.290  0.00  0.00    +0.000 OA
BRANCH   5   7
ATOM      7  C   UNL     1       0.927   9.121  20.882  0.00  0.00    +0.000 C 
ATOM      8  O   UNL     1       0.001   9.888  20.621  0.00  0.00    +0.000 OA
ATOM      9  N   UNL     1       1.398   8.940  22.183  0.00  0.00    +0.000 N 
ATOM     10  H   UNL     1       2.103   8.221  22.343  0.00  0.00    +0.000 HD
BRANCH   9  11
ATOM     11  N   UNL     1       0.807   9.609  23.277  0.00  0.00    +0.000 NA
ATOM     12  H   UNL     1       0.674  10.591  22.999  0.00  0.00    +0.000 HD
ATOM     13  H   UNL     1       1.492   9.646  24.036  0.00  0.00    +0.000 HD
ENDBRANCH   9  11
ENDBRANCH   5   7
ENDBRANCH   1   2
BRANCH   1  14
ATOM     14  O   UNL     1       4.972   5.522  19.170  0.00  0.00    +0.000 OA
BRANCH  14  19
ATOM     15  C   UNL     1       6.400   3.996  13.860  0.00  0.00    +0.000 C 
ATOM     16  C   UNL     1       6.075   4.418  15.261  0.00  0.00    +0.000 A 
ATOM     17  C   UNL     1       4.977   3.902  15.946  0.00  0.00    +0.000 A 
ATOM     18  C   UNL     1       4.693   4.324  17.252  0.00  0.00    +0.000 A 
ATOM     19  C   UNL     1       5.481   5.274  17.926  0.00  0.00    +0.000 A 
ATOM     20  C   UNL     1       6.579   5.784  17.221  0.00  0.00    +0.000 A 
ATOM     21  C   UNL     1       6.877   5.361  15.907  0.00  0.00    +0.000 A 
BRANCH  20  22
ATOM     22  N   UNL     1       7.494   6.776  17.741  0.00  0.00    +0.000 N 
ATOM     23  O   UNL     1       7.580   7.850  17.132  0.00  0.00    +0.000 OA
ATOM     24  O   UNL     1       8.077   6.505  18.799  0.00  0.00    +0.000 OA
ENDBRANCH  20  22
ENDBRANCH  14  19
ENDBRANCH   1  14
TORSDOF 6
ENDMDL
MODEL 8
REMARK VINA RESULT:      -7.2      3.006      4.441
REMARK  Name = 
REMARK  7 active torsions:
REMARK  status: ('A' for Active; 'I' for Inactive)
REMARK    1  A    between atoms: C_1  and  C_2
REMARK    2  A    between atoms: C_5  and  O_6
REMARK    3  A    between atoms: O_6  and  C_7
REMARK    4  A    between atoms: C_7  and  C_8
REMARK    5  A    between atoms: C_11  and  C_12
REMARK    6  A    between atoms: N_14  and  N_15
REMARK    7  A    between atoms: C_17  and  N_18
REMARK                            x       y       z     vdW  Elec       q    Type
REMARK                         _______ _______ _______ _____ _____    ______ ____
ROOT
ATOM      1  C   UNL     1       7.016   5.045  15.552  0.00  0.00    +0.000 C 
ENDROOT
BRANCH   1   2
ATOM      2  C   UNL     1       7.042   4.759  14.092  0.00  0.00    +0.000 A 
ATOM      3  C   UNL     1       7.649   5.312  12.981  0.00  0.00    +0.000 A 
ATOM      4  C   UNL     1       7.273   4.512  11.870  0.00  0.00    +0.000 A 
ATOM      5  C   UNL     1       6.453   3.514  12.358  0.00  0.00    +0.000 A 
ATOM      6  O   UNL     1       6.316   3.668  13.711  0.00  0.00    +0.000 OA
BRANCH   5   7
ATOM      7  C   UNL     1       5.758   2.424  11.701  0.00  0.00    +0.000 C 
ATOM      8  O   UNL     1       4.596   2.483  11.299  0.00  0.00    +0.000 OA
ATOM      9  N   UNL     1       6.530   1.268  11.578  0.00  0.00    +0.000 N 
ATOM     10  H   UNL     1       7.512   1.316  11.845  0.00  0.00    +0.000 HD
BRANCH   9  11
ATOM     11  N   UNL     1       6.022   0.110  10.950  0.00  0.00    +0.000 NA
ATOM     12  H   UNL     1       5.790   0.365   9.981  0.00  0.00    +0.000 HD
ATOM     13  H   UNL     1       5.121  -0.116  11.381  0.00  0.00    +0.000 HD
ENDBRANCH   9  11
ENDBRANCH   5   7
ENDBRANCH   1   2
BRANCH   1  14
ATOM     14  O   UNL     1       6.157   4.109  16.189  0.00  0.00    +0.000 OA
BRANCH  14  19
ATOM     15  C   UNL     1       2.094   5.161  20.057  0.00  0.00    +0.000 C 
ATOM     16  C   UNL     1       3.193   4.923  19.064  0.00  0.00    +0.000 A 
ATOM     17  C   UNL     1       2.969   4.232  17.875  0.00  0.00    +0.000 A 
ATOM     18  C   UNL     1       4.019   4.015  16.972  0.00  0.00    +0.000 A 
ATOM     19  C   UNL     1       5.328   4.472  17.214  0.00  0.00    +0.000 A 
ATOM     20  C   UNL     1       5.534   5.162  18.415  0.00  0.00    +0.000 A 
ATOM     21  C   UNL     1       4.482   5.390  19.328  0.00  0.00    +0.000 A 
BRANCH  20  22
ATOM     22  N   UNL     1       6.810   5.693  18.843  0.00  0.00    +0.000 N 
ATOM     23  O   UNL     1       7.449   5.043  19.679  0.00  0.00    +0.000 OA
ATOM     24  O   UNL     1       7.202   6.729  18.290  0.00  0.00    +0.000 OA
ENDBRANCH  20  22
ENDBRANCH  14  19
ENDBRANCH   1  14
TORSDOF 6
ENDMDL
MODEL 9
REMARK VINA RESULT:      -7.2      2.589      2.997
REMARK  Name = 
REMARK  7 active torsions:
REMARK  status: ('A' for Active; 'I' for Inactive)
REMARK    1  A    between atoms: C_1  and  C_2
REMARK    2  A    between atoms: C_5  and  O_6
REMARK    3  A    between atoms: O_6  and  C_7
REMARK    4  A    between atoms: C_7  and  C_8
REMARK    5  A    between atoms: C_11  and  C_12
REMARK    6  A    between atoms: N_14  and  N_15
REMARK    7  A    between atoms: C_17  and  N_18
REMARK                            x       y       z     vdW  Elec       q    Type
REMARK                         _______ _______ _______ _____ _____    ______ ____
ROOT
ATOM      1  C   UNL     1       3.806   3.438  17.065  0.00  0.00    +0.000 C 
ENDROOT
BRANCH   1   2
ATOM      2  C   UNL     1       4.861   4.477  16.916  0.00  0.00    +0.000 A 
ATOM      3  C   UNL     1       5.256   5.357  15.927  0.00  0.00    +0.000 A 
ATOM      4  C   UNL     1       6.333   6.112  16.460  0.00  0.00    +0.000 A 
ATOM      5  C   UNL     1       6.543   5.654  17.745  0.00  0.00    +0.000 A 
ATOM      6  O   UNL     1       5.644   4.658  18.019  0.00  0.00    +0.000 OA
BRANCH   5   7
ATOM      7  C   UNL     1       7.508   6.027  18.762  0.00  0.00    +0.000 C 
ATOM      8  O   UNL     1       8.244   7.011  18.694  0.00  0.00    +0.000 OA
ATOM      9  N   UNL     1       7.545   5.143  19.841  0.00  0.00    +0.000 N 
ATOM     10  H   UNL     1       6.846   4.402  19.880  0.00  0.00    +0.000 HD
BRANCH   9  11
ATOM     11  N   UNL     1       8.414   5.355  20.933  0.00  0.00    +0.000 NA
ATOM     12  H   UNL     1       8.028   4.840  21.735  0.00  0.00    +0.000 HD
ATOM     13  H   UNL     1       8.352   6.340  21.203  0.00  0.00    +0.000 HD
ENDBRANCH   9  11
ENDBRANCH   5   7
ENDBRANCH   1   2
BRANCH   1  14
ATOM     14  O   UNL     1       2.554   4.079  17.267  0.00  0.00    +0.000 OA
BRANCH  14  19
ATOM     15  C   UNL     1       1.611   8.120  21.186  0.00  0.00    +0.000 C 
ATOM     16  C   UNL     1       1.867   7.023  20.197  0.00  0.00    +0.000 A 
ATOM     17  C   UNL     1       2.136   7.292  18.857  0.00  0.00    +0.000 A 
ATOM     18  C   UNL     1       2.361   6.244  17.953  0.00  0.00    +0.000 A 
ATOM     19  C   UNL     1       2.324   4.892  18.343  0.00  0.00    +0.000 A 
ATOM     20  C   UNL     1       2.050   4.640  19.693  0.00  0.00    +0.000 A 
ATOM     21  C   UNL     1       1.827   5.689  20.611  0.00  0.00    +0.000 A 
BRANCH  20  22
ATOM     22  N   UNL     1       1.957   3.320  20.275  0.00  0.00    +0.000 N 
ATOM     23  O   UNL     1       0.835   2.919  20.610  0.00  0.00    +0.000 OA
ATOM     24  O   UNL     1       3.001   2.656  20.335  0.00  0.00    +0.000 OA
ENDBRANCH  20  22
ENDBRANCH  14  19
ENDBRANCH   1  14
TORSDOF 6
ENDMDL
