MODEL 1
REMARK VINA RESULT:      -8.2      0.000      0.000
REMARK  Name = 
REMARK  5 active torsions:
REMARK  status: ('A' for Active; 'I' for Inactive)
REMARK    1  A    between atoms: C_1  and  N_2
REMARK    2  A    between atoms: C_3  and  C_5
REMARK    3  A    between atoms: C_10  and  N_11
REMARK    4  A    between atoms: N_15  and  C_16
REMARK    5  A    between atoms: C_19  and  C_20
REMARK                            x       y       z     vdW  Elec       q    Type
REMARK                         _______ _______ _______ _____ _____    ______ ____
ROOT
ATOM      1  N   UNL     1       5.094   6.317  17.885  0.00  0.00    +0.000 N 
ATOM      2  C   UNL     1       4.146   5.721  18.698  0.00  0.00    +0.000 A 
ATOM      3  N   UNL     1       3.246   6.575  19.308  0.00  0.00    +0.000 NA
ATOM      4  C   UNL     1       2.435   6.124  20.227  0.00  0.00    +0.000 A 
ATOM      5  N   UNL     1       1.562   6.911  20.963  0.00  0.00    +0.000 N 
ATOM      6  N   UNL     1       2.467   4.757  20.514  0.00  0.00    +0.000 N 
ATOM      7  C   UNL     1       1.787   3.994  21.433  0.00  0.00    +0.000 A 
ATOM      8  C   UNL     1       2.280   2.722  21.264  0.00  0.00    +0.000 A 
ATOM      9  N   UNL     1       3.184   2.685  20.237  0.00  0.00    +0.000 NA
ATOM     10  C   UNL     1       3.301   3.925  19.813  0.00  0.00    +0.000 A 
ATOM     11  N   UNL     1       4.155   4.435  18.904  0.00  0.00    +0.000 NA
ATOM     12  H   UNL     1       4.905   7.301  17.730  0.00  0.00    +0.000 HD
ATOM     13  H   UNL     1       1.559   6.755  21.963  0.00  0.00    +0.000 HD
ENDROOT
BRANCH   1  19
ATOM     14  C   UNL     1       6.917   5.080  16.709  0.00  0.00    +0.000 A 
ATOM     15  C   UNL     1       7.421   4.560  15.495  0.00  0.00    +0.000 A 
ATOM     16  C   UNL     1       6.689   4.641  14.312  0.00  0.00    +0.000 A 
ATOM     17  C   UNL     1       5.446   5.248  14.321  0.00  0.00    +0.000 A 
ATOM     18  C   UNL     1       4.937   5.772  15.508  0.00  0.00    +0.000 A 
ATOM     19  C   UNL     1       5.642   5.693  16.730  0.00  0.00    +0.000 A 
BRANCH  14  22
ATOM     20  C   UNL     1       8.402   5.427  20.187  0.00  0.00    +0.000 C 
ATOM     21  N   UNL     1       7.719   5.733  18.950  0.00  0.00    +0.000 N 
ATOM     22  C   UNL     1       7.831   4.875  17.878  0.00  0.00    +0.000 C 
ATOM     23  O   UNL     1       8.610   3.926  17.884  0.00  0.00    +0.000 OA
ATOM     24  H   UNL     1       6.974   6.420  18.948  0.00  0.00    +0.000 HD
ENDBRANCH  14  22
ENDBRANCH   1  19
BRANCH   5  25
ATOM     25  C   UNL     1       1.047   8.160  20.565  0.00  0.00    +0.000 A 
ATOM     26  C   UNL     1       0.154   8.878  21.371  0.00  0.00    +0.000 A 
ATOM     27  C   UNL     1      -0.380  10.105  20.950  0.00  0.00    +0.000 A 
ATOM     28  C   UNL     1      -0.031  10.635  19.711  0.00  0.00    +0.000 A 
ATOM     29  C   UNL     1       0.880   9.944  18.904  0.00  0.00    +0.000 A 
ATOM     30  C   UNL     1       1.419   8.720  19.334  0.00  0.00    +0.000 A 
BRANCH  28  31
ATOM     31  C   UNL     1      -0.603  11.877  19.265  0.00  0.00    +0.000 C 
ATOM     32  N   UNL     1      -1.065  12.877  18.904  0.00  0.00    +0.000 NA
ENDBRANCH  28  31
ENDBRANCH   5  25
TORSDOF 4
ENDMDL
MODEL 2
REMARK VINA RESULT:      -7.9      5.064      8.380
REMARK  Name = 
REMARK  5 active torsions:
REMARK  status: ('A' for Active; 'I' for Inactive)
REMARK    1  A    between atoms: C_1  and  N_2
REMARK    2  A    between atoms: C_3  and  C_5
REMARK    3  A    between atoms: C_10  and  N_11
REMARK    4  A    between atoms: N_15  and  C_16
REMARK    5  A    between atoms: C_19  and  C_20
REMARK                            x       y       z     vdW  Elec       q    Type
REMARK                         _______ _______ _______ _____ _____    ______ ____
ROOT
ATOM      1  N   UNL     1      -0.069  10.823  19.302  0.00  0.00    +0.000 N 
ATOM      2  C   UNL     1       0.242  11.873  20.148  0.00  0.00    +0.000 A 
ATOM      3  N   UNL     1      -0.830  12.514  20.740  0.00  0.00    +0.000 NA
ATOM      4  C   UNL     1      -0.645  13.621  21.406  0.00  0.00    +0.000 A 
ATOM      5  N   UNL     1      -1.660  14.389  21.957  0.00  0.00    +0.000 N 
ATOM      6  N   UNL     1       0.664  14.087  21.550  0.00  0.00    +0.000 N 
ATOM      7  C   UNL     1       1.179  15.214  22.143  0.00  0.00    +0.000 A 
ATOM      8  C   UNL     1       2.534  15.137  21.923  0.00  0.00    +0.000 A 
ATOM      9  N   UNL     1       2.854  13.976  21.273  0.00  0.00    +0.000 NA
ATOM     10  C   UNL     1       1.711  13.367  21.036  0.00  0.00    +0.000 A 
ATOM     11  N   UNL     1       1.476  12.253  20.317  0.00  0.00    +0.000 NA
ATOM     12  H   UNL     1      -1.049  10.569  19.348  0.00  0.00    +0.000 HD
ATOM     13  H   UNL     1      -1.612  15.384  21.778  0.00  0.00    +0.000 HD
ENDROOT
BRANCH   1  19
ATOM     14  C   UNL     1       0.985   8.715  20.130  0.00  0.00    +0.000 A 
ATOM     15  C   UNL     1       1.898   7.662  19.897  0.00  0.00    +0.000 A 
ATOM     16  C   UNL     1       2.595   7.558  18.694  0.00  0.00    +0.000 A 
ATOM     17  C   UNL     1       2.396   8.508  17.708  0.00  0.00    +0.000 A 
ATOM     18  C   UNL     1       1.503   9.558  17.925  0.00  0.00    +0.000 A 
ATOM     19  C   UNL     1       0.767   9.685  19.123  0.00  0.00    +0.000 A 
BRANCH  14  22
ATOM     20  C   UNL     1       0.003   9.608  23.687  0.00  0.00    +0.000 C 
ATOM     21  N   UNL     1       0.771   9.467  22.471  0.00  0.00    +0.000 N 
ATOM     22  C   UNL     1       0.311   8.645  21.466  0.00  0.00    +0.000 C 
ATOM     23  O   UNL     1      -0.661   7.910  21.620  0.00  0.00    +0.000 OA
ATOM     24  H   UNL     1       1.492  10.145  22.254  0.00  0.00    +0.000 HD
ENDBRANCH  14  22
ENDBRANCH   1  19
BRANCH   5  25
ATOM     25  C   UNL     1      -2.938  13.922  22.322  0.00  0.00    +0.000 A 
ATOM     26  C   UNL     1      -4.052  14.104  21.491  0.00  0.00    +0.000 A 
ATOM     27  C   UNL     1      -5.327  13.666  21.878  0.00  0.00    +0.000 A 
ATOM     28  C   UNL     1      -5.511  13.040  23.107  0.00  0.00    +0.000 A 
ATOM     29  C   UNL     1      -4.405  12.827  23.939  0.00  0.00    +0.000 A 
ATOM     30  C   UNL     1      -3.129  13.259  23.542  0.00  0.00    +0.000 A 
BRANCH  28  31
ATOM     31  C   UNL     1      -6.824  12.619  23.520  0.00  0.00    +0.000 C 
ATOM     32  N   UNL     1      -7.880  12.278  23.853  0.00  0.00    +0.000 NA
ENDBRANCH  28  31
ENDBRANCH   5  25
TORSDOF 4
ENDMDL
MODEL 3
REMARK VINA RESULT:      -7.8      1.686      1.916
REMARK  Name = 
REMARK  5 active torsions:
REMARK  status: ('A' for Active; 'I' for Inactive)
REMARK    1  A    between atoms: C_1  and  N_2
REMARK    2  A    between atoms: C_3  and  C_5
REMARK    3  A    between atoms: C_10  and  N_11
REMARK    4  A    between atoms: N_15  and  C_16
REMARK    5  A    between atoms: C_19  and  C_20
REMARK                            x       y       z     vdW  Elec       q    Type
REMARK                         _______ _______ _______ _____ _____    ______ ____
ROOT
ATOM      1  N   UNL     1       5.082   5.898  18.586  0.00  0.00    +0.000 N 
ATOM      2  C   UNL     1       3.864   5.368  18.974  0.00  0.00    +0.000 A 
ATOM      3  N   UNL     1       3.025   6.218  19.669  0.00  0.00    +0.000 NA
ATOM      4  C   UNL     1       1.940   5.755  20.228  0.00  0.00    +0.000 A 
ATOM      5  N   UNL     1       1.082   6.501  21.022  0.00  0.00    +0.000 N 
ATOM      6  N   UNL     1       1.633   4.404  20.041  0.00  0.00    +0.000 N 
ATOM      7  C   UNL     1       0.612   3.619  20.519  0.00  0.00    +0.000 A 
ATOM      8  C   UNL     1       0.874   2.364  20.022  0.00  0.00    +0.000 A 
ATOM      9  N   UNL     1       1.980   2.384  19.216  0.00  0.00    +0.000 NA
ATOM     10  C   UNL     1       2.437   3.617  19.259  0.00  0.00    +0.000 A 
ATOM     11  N   UNL     1       3.572   4.121  18.736  0.00  0.00    +0.000 NA
ATOM     12  H   UNL     1       5.132   6.899  18.738  0.00  0.00    +0.000 HD
ATOM     13  H   UNL     1       0.801   6.074  21.895  0.00  0.00    +0.000 HD
ENDROOT
BRANCH   1  19
ATOM     14  C   UNL     1       6.979   6.099  16.974  0.00  0.00    +0.000 A 
ATOM     15  C   UNL     1       7.548   5.710  15.741  0.00  0.00    +0.000 A 
ATOM     16  C   UNL     1       6.938   4.754  14.929  0.00  0.00    +0.000 A 
ATOM     17  C   UNL     1       5.748   4.179  15.334  0.00  0.00    +0.000 A 
ATOM     18  C   UNL     1       5.169   4.556  16.545  0.00  0.00    +0.000 A 
ATOM     19  C   UNL     1       5.768   5.507  17.401  0.00  0.00    +0.000 A 
BRANCH  14  22
ATOM     20  C   UNL     1       8.405   9.456  18.031  0.00  0.00    +0.000 C 
ATOM     21  N   UNL     1       7.843   8.398  17.222  0.00  0.00    +0.000 N 
ATOM     22  C   UNL     1       7.791   7.114  17.719  0.00  0.00    +0.000 C 
ATOM     23  O   UNL     1       8.338   6.802  18.774  0.00  0.00    +0.000 OA
ATOM     24  H   UNL     1       7.271   8.633  16.420  0.00  0.00    +0.000 HD
ENDBRANCH  14  22
ENDBRANCH   1  19
BRANCH   5  25
ATOM     25  C   UNL     1       0.935   7.901  20.983  0.00  0.00    +0.000 A 
ATOM     26  C   UNL     1       1.177   8.633  19.813  0.00  0.00    +0.000 A 
ATOM     27  C   UNL     1       1.061  10.030  19.793  0.00  0.00    +0.000 A 
ATOM     28  C   UNL     1       0.704  10.723  20.946  0.00  0.00    +0.000 A 
ATOM     29  C   UNL     1       0.433  10.005  22.117  0.00  0.00    +0.000 A 
ATOM     30  C   UNL     1       0.541   8.605  22.130  0.00  0.00    +0.000 A 
BRANCH  28  31
ATOM     31  C   UNL     1       0.617  12.159  20.935  0.00  0.00    +0.000 C 
ATOM     32  N   UNL     1       0.546  13.315  20.929  0.00  0.00    +0.000 NA
ENDBRANCH  28  31
ENDBRANCH   5  25
TORSDOF 4
ENDMDL
MODEL 4
REMARK VINA RESULT:      -7.7      3.059      5.642
REMARK  Name = 
REMARK  5 active torsions:
REMARK  status: ('A' for Active; 'I' for Inactive)
REMARK    1  A    between atoms: C_1  and  N_2
REMARK    2  A    between atoms: C_3  and  C_5
REMARK    3  A    between atoms: C_10  and  N_11
REMARK    4  A    between atoms: N_15  and  C_16
REMARK    5  A    between atoms: C_19  and  C_20
REMARK                            x       y       z     vdW  Elec       q    Type
REMARK                         _______ _______ _______ _____ _____    ______ ____
ROOT
ATOM      1  N   UNL     1       1.966   7.691  19.209  0.00  0.00    +0.000 N 
ATOM      2  C   UNL     1       1.090   8.453  19.963  0.00  0.00    +0.000 A 
ATOM      3  N   UNL     1       0.189   9.223  19.252  0.00  0.00    +0.000 NA
ATOM      4  C   UNL     1      -0.550  10.104  19.870  0.00  0.00    +0.000 A 
ATOM      5  N   UNL     1      -1.415  10.988  19.242  0.00  0.00    +0.000 N 
ATOM      6  N   UNL     1      -0.444  10.187  21.261  0.00  0.00    +0.000 N 
ATOM      7  C   UNL     1      -1.038  11.016  22.181  0.00  0.00    +0.000 A 
ATOM      8  C   UNL     1      -0.500  10.640  23.389  0.00  0.00    +0.000 A 
ATOM      9  N   UNL     1       0.347   9.578  23.233  0.00  0.00    +0.000 NA
ATOM     10  C   UNL     1       0.387   9.334  21.940  0.00  0.00    +0.000 A 
ATOM     11  N   UNL     1       1.166   8.469  21.263  0.00  0.00    +0.000 NA
ATOM     12  H   UNL     1       1.726   7.690  18.224  0.00  0.00    +0.000 HD
ATOM     13  H   UNL     1      -1.357  11.953  19.540  0.00  0.00    +0.000 HD
ENDROOT
BRANCH   1  19
ATOM     14  C   UNL     1       3.615   5.822  19.054  0.00  0.00    +0.000 A 
ATOM     15  C   UNL     1       4.003   4.530  19.476  0.00  0.00    +0.000 A 
ATOM     16  C   UNL     1       3.285   3.839  20.452  0.00  0.00    +0.000 A 
ATOM     17  C   UNL     1       2.166   4.424  21.014  0.00  0.00    +0.000 A 
ATOM     18  C   UNL     1       1.765   5.695  20.604  0.00  0.00    +0.000 A 
ATOM     19  C   UNL     1       2.477   6.432  19.632  0.00  0.00    +0.000 A 
BRANCH  14  22
ATOM     20  C   UNL     1       6.699   6.403  16.916  0.00  0.00    +0.000 C 
ATOM     21  N   UNL     1       5.850   6.048  18.031  0.00  0.00    +0.000 N 
ATOM     22  C   UNL     1       4.522   6.416  18.021  0.00  0.00    +0.000 C 
ATOM     23  O   UNL     1       4.061   7.164  17.162  0.00  0.00    +0.000 OA
ATOM     24  H   UNL     1       6.151   5.332  18.681  0.00  0.00    +0.000 HD
ENDBRANCH  14  22
ENDBRANCH   1  19
BRANCH   5  25
ATOM     25  C   UNL     1      -2.004  10.801  17.977  0.00  0.00    +0.000 A 
ATOM     26  C   UNL     1      -3.082  11.586  17.544  0.00  0.00    +0.000 A 
ATOM     27  C   UNL     1      -3.684  11.369  16.296  0.00  0.00    +0.000 A 
ATOM     28  C   UNL     1      -3.221  10.359  15.459  0.00  0.00    +0.000 A 
ATOM     29  C   UNL     1      -2.129   9.582  15.864  0.00  0.00    +0.000 A 
ATOM     30  C   UNL     1      -1.523   9.809  17.110  0.00  0.00    +0.000 A 
BRANCH  28  31
ATOM     31  C   UNL     1      -3.859  10.114  14.192  0.00  0.00    +0.000 C 
ATOM     32  N   UNL     1      -4.371   9.915  13.172  0.00  0.00    +0.000 NA
ENDBRANCH  28  31
ENDBRANCH   5  25
TORSDOF 4
ENDMDL
MODEL 5
REMARK VINA RESULT:      -7.7      5.256      8.724
REMARK  Name = 
REMARK  5 active torsions:
REMARK  status: ('A' for Active; 'I' for Inactive)
REMARK    1  A    between atoms: C_1  and  N_2
REMARK    2  A    between atoms: C_3  and  C_5
REMARK    3  A    between atoms: C_10  and  N_11
REMARK    4  A    between atoms: N_15  and  C_16
REMARK    5  A    between atoms: C_19  and  C_20
REMARK                            x       y       z     vdW  Elec       q    Type
REMARK                         _______ _______ _______ _____ _____    ______ ____
ROOT
ATOM      1  N   UNL     1      -0.560  10.564  18.847  0.00  0.00    +0.000 N 
ATOM      2  C   UNL     1      -0.361  11.878  19.228  0.00  0.00    +0.000 A 
ATOM      3  N   UNL     1      -1.458  12.530  19.762  0.00  0.00    +0.000 NA
ATOM      4  C   UNL     1      -1.414  13.816  19.980  0.00  0.00    +0.000 A 
ATOM      5  N   UNL     1      -2.484  14.578  20.424  0.00  0.00    +0.000 N 
ATOM      6  N   UNL     1      -0.213  14.482  19.723  0.00  0.00    +0.000 N 
ATOM      7  C   UNL     1       0.140  15.808  19.808  0.00  0.00    +0.000 A 
ATOM      8  C   UNL     1       1.447  15.849  19.382  0.00  0.00    +0.000 A 
ATOM      9  N   UNL     1       1.906  14.591  19.104  0.00  0.00    +0.000 NA
ATOM     10  C   UNL     1       0.884  13.783  19.293  0.00  0.00    +0.000 A 
ATOM     11  N   UNL     1       0.786  12.464  19.036  0.00  0.00    +0.000 NA
ATOM     12  H   UNL     1      -1.459  10.206  19.152  0.00  0.00    +0.000 HD
ATOM     13  H   UNL     1      -2.654  15.439  19.922  0.00  0.00    +0.000 HD
ENDROOT
BRANCH   1  19
ATOM     14  C   UNL     1       0.769   8.845  20.079  0.00  0.00    +0.000 A 
ATOM     15  C   UNL     1       1.849   7.934  20.068  0.00  0.00    +0.000 A 
ATOM     16  C   UNL     1       2.617   7.731  18.922  0.00  0.00    +0.000 A 
ATOM     17  C   UNL     1       2.322   8.440  17.772  0.00  0.00    +0.000 A 
ATOM     18  C   UNL     1       1.264   9.348  17.767  0.00  0.00    +0.000 A 
ATOM     19  C   UNL     1       0.454   9.566  18.903  0.00  0.00    +0.000 A 
BRANCH  14  22
ATOM     20  C   UNL     1      -0.634  10.232  23.324  0.00  0.00    +0.000 C 
ATOM     21  N   UNL     1       0.225  10.020  22.180  0.00  0.00    +0.000 N 
ATOM     22  C   UNL     1       0.045   8.907  21.389  0.00  0.00    +0.000 C 
ATOM     23  O   UNL     1      -0.729   8.006  21.701  0.00  0.00    +0.000 OA
ATOM     24  H   UNL     1       0.774  10.791  21.818  0.00  0.00    +0.000 HD
ENDBRANCH  14  22
ENDBRANCH   1  19
BRANCH   5  25
ATOM     25  C   UNL     1      -3.592  14.095  21.147  0.00  0.00    +0.000 A 
ATOM     26  C   UNL     1      -4.738  13.612  20.502  0.00  0.00    +0.000 A 
ATOM     27  C   UNL     1      -5.850  13.165  21.232  0.00  0.00    +0.000 A 
ATOM     28  C   UNL     1      -5.836  13.198  22.623  0.00  0.00    +0.000 A 
ATOM     29  C   UNL     1      -4.689  13.654  23.285  0.00  0.00    +0.000 A 
ATOM     30  C   UNL     1      -3.576  14.090  22.549  0.00  0.00    +0.000 A 
BRANCH  28  31
ATOM     31  C   UNL     1      -6.988  12.771  23.372  0.00  0.00    +0.000 C 
ATOM     32  N   UNL     1      -7.916  12.428  23.974  0.00  0.00    +0.000 NA
ENDBRANCH  28  31
ENDBRANCH   5  25
TORSDOF 4
ENDMDL
MODEL 6
REMARK VINA RESULT:      -7.6      3.580      8.535
REMARK  Name = 
REMARK  5 active torsions:
REMARK  status: ('A' for Active; 'I' for Inactive)
REMARK    1  A    between atoms: C_1  and  N_2
REMARK    2  A    between atoms: C_3  and  C_5
REMARK    3  A    between atoms: C_10  and  N_11
REMARK    4  A    between atoms: N_15  and  C_16
REMARK    5  A    between atoms: C_19  and  C_20
REMARK                            x       y       z     vdW  Elec       q    Type
REMARK                         _______ _______ _______ _____ _____    ______ ____
ROOT
ATOM      1  N   UNL     1       1.846  11.475  17.972  0.00  0.00    +0.000 N 
ATOM      2  C   UNL     1       1.573  10.564  18.978  0.00  0.00    +0.000 A 
ATOM      3  N   UNL     1       2.105   9.299  18.814  0.00  0.00    +0.000 NA
ATOM      4  C   UNL     1       1.753   8.331  19.615  0.00  0.00    +0.000 A 
ATOM      5  N   UNL     1       2.155   7.010  19.481  0.00  0.00    +0.000 N 
ATOM      6  N   UNL     1       0.885   8.636  20.667  0.00  0.00    +0.000 N 
ATOM      7  C   UNL     1       0.306   7.854  21.637  0.00  0.00    +0.000 A 
ATOM      8  C   UNL     1      -0.483   8.719  22.358  0.00  0.00    +0.000 A 
ATOM      9  N   UNL     1      -0.350   9.998  21.892  0.00  0.00    +0.000 NA
ATOM     10  C   UNL     1       0.461   9.925  20.858  0.00  0.00    +0.000 A 
ATOM     11  N   UNL     1       0.810  10.887  19.983  0.00  0.00    +0.000 NA
ATOM     12  H   UNL     1       2.533  11.126  17.314  0.00  0.00    +0.000 HD
ATOM     13  H   UNL     1       1.424   6.314  19.556  0.00  0.00    +0.000 HD
ENDROOT
BRANCH   1  19
ATOM     14  C   UNL     1       0.890  13.737  18.425  0.00  0.00    +0.000 A 
ATOM     15  C   UNL     1       1.112  15.126  18.551  0.00  0.00    +0.000 A 
ATOM     16  C   UNL     1       2.392  15.670  18.449  0.00  0.00    +0.000 A 
ATOM     17  C   UNL     1       3.468  14.834  18.214  0.00  0.00    +0.000 A 
ATOM     18  C   UNL     1       3.266  13.460  18.080  0.00  0.00    +0.000 A 
ATOM     19  C   UNL     1       1.986  12.873  18.195  0.00  0.00    +0.000 A 
BRANCH  14  22
ATOM     20  C   UNL     1      -2.398  11.914  17.885  0.00  0.00    +0.000 C 
ATOM     21  N   UNL     1      -1.107  12.516  17.639  0.00  0.00    +0.000 N 
ATOM     22  C   UNL     1      -0.545  13.338  18.591  0.00  0.00    +0.000 C 
ATOM     23  O   UNL     1      -1.166  13.698  19.588  0.00  0.00    +0.000 OA
ATOM     24  H   UNL     1      -0.514  12.145  16.906  0.00  0.00    +0.000 HD
ENDBRANCH  14  22
ENDBRANCH   1  19
BRANCH   5  25
ATOM     25  C   UNL     1       3.318   6.569  18.821  0.00  0.00    +0.000 A 
ATOM     26  C   UNL     1       3.677   7.057  17.558  0.00  0.00    +0.000 A 
ATOM     27  C   UNL     1       4.819   6.586  16.894  0.00  0.00    +0.000 A 
ATOM     28  C   UNL     1       5.622   5.612  17.481  0.00  0.00    +0.000 A 
ATOM     29  C   UNL     1       5.292   5.132  18.754  0.00  0.00    +0.000 A 
ATOM     30  C   UNL     1       4.153   5.614  19.419  0.00  0.00    +0.000 A 
BRANCH  28  31
ATOM     31  C   UNL     1       6.775   5.104  16.787  0.00  0.00    +0.000 C 
ATOM     32  N   UNL     1       7.705   4.697  16.229  0.00  0.00    +0.000 NA
ENDBRANCH  28  31
ENDBRANCH   5  25
TORSDOF 4
ENDMDL
MODEL 7
REMARK VINA RESULT:      -7.6      3.665      8.542
REMARK  Name = 
REMARK  5 active torsions:
REMARK  status: ('A' for Active; 'I' for Inactive)
REMARK    1  A    between atoms: C_1  and  N_2
REMARK    2  A    between atoms: C_3  and  C_5
REMARK    3  A    between atoms: C_10  and  N_11
REMARK    4  A    between atoms: N_15  and  C_16
REMARK    5  A    between atoms: C_19  and  C_20
REMARK                            x       y       z     vdW  Elec       q    Type
REMARK                         _______ _______ _______ _____ _____    ______ ____
ROOT
ATOM      1  N   UNL     1       0.510  12.602  18.455  0.00  0.00    +0.000 N 
ATOM      2  C   UNL     1       0.508  11.745  19.541  0.00  0.00    +0.000 A 
ATOM      3  N   UNL     1       1.008  10.476  19.316  0.00  0.00    +0.000 NA
ATOM      4  C   UNL     1       0.880   9.551  20.227  0.00  0.00    +0.000 A 
ATOM      5  N   UNL     1       1.262   8.227  20.066  0.00  0.00    +0.000 N 
ATOM      6  N   UNL     1       0.291   9.906  21.443  0.00  0.00    +0.000 N 
ATOM      7  C   UNL     1      -0.019   9.174  22.564  0.00  0.00    +0.000 A 
ATOM      8  C   UNL     1      -0.624  10.072  23.411  0.00  0.00    +0.000 A 
ATOM      9  N   UNL     1      -0.633  11.325  22.863  0.00  0.00    +0.000 NA
ATOM     10  C   UNL     1      -0.098  11.201  21.667  0.00  0.00    +0.000 A 
ATOM     11  N   UNL     1       0.009  12.117  20.685  0.00  0.00    +0.000 NA
ATOM     12  H   UNL     1       1.021  12.222  17.666  0.00  0.00    +0.000 HD
ATOM     13  H   UNL     1       0.586   7.532  20.352  0.00  0.00    +0.000 HD
ENDROOT
BRANCH   1  19
ATOM     14  C   UNL     1       1.930  14.656  18.478  0.00  0.00    +0.000 A 
ATOM     15  C   UNL     1       2.012  16.051  18.685  0.00  0.00    +0.000 A 
ATOM     16  C   UNL     1       0.880  16.810  18.978  0.00  0.00    +0.000 A 
ATOM     17  C   UNL     1      -0.350  16.186  19.076  0.00  0.00    +0.000 A 
ATOM     18  C   UNL     1      -0.448  14.809  18.881  0.00  0.00    +0.000 A 
ATOM     19  C   UNL     1       0.674  14.011  18.565  0.00  0.00    +0.000 A 
BRANCH  14  22
ATOM     20  C   UNL     1       5.647  14.270  17.804  0.00  0.00    +0.000 C 
ATOM     21  N   UNL     1       4.320  14.836  17.886  0.00  0.00    +0.000 N 
ATOM     22  C   UNL     1       3.243  14.017  18.145  0.00  0.00    +0.000 C 
ATOM     23  O   UNL     1       3.348  12.793  18.168  0.00  0.00    +0.000 OA
ATOM     24  H   UNL     1       4.210  15.836  18.006  0.00  0.00    +0.000 HD
ENDBRANCH  14  22
ENDBRANCH   1  19
BRANCH   5  25
ATOM     25  C   UNL     1       2.237   7.757  19.164  0.00  0.00    +0.000 A 
ATOM     26  C   UNL     1       2.577   8.475  18.009  0.00  0.00    +0.000 A 
ATOM     27  C   UNL     1       3.524   7.982  17.100  0.00  0.00    +0.000 A 
ATOM     28  C   UNL     1       4.146   6.758  17.327  0.00  0.00    +0.000 A 
ATOM     29  C   UNL     1       3.837   6.040  18.489  0.00  0.00    +0.000 A 
ATOM     30  C   UNL     1       2.896   6.542  19.401  0.00  0.00    +0.000 A 
BRANCH  28  31
ATOM     31  C   UNL     1       5.094   6.236  16.379  0.00  0.00    +0.000 C 
ATOM     32  N   UNL     1       5.856   5.817  15.613  0.00  0.00    +0.000 NA
ENDBRANCH  28  31
ENDBRANCH   5  25
TORSDOF 4
ENDMDL
MODEL 8
REMARK VINA RESULT:      -7.5      5.581     11.737
REMARK  Name = 
REMARK  5 active torsions:
REMARK  status: ('A' for Active; 'I' for Inactive)
REMARK    1  A    between atoms: C_1  and  N_2
REMARK    2  A    between atoms: C_3  and  C_5
REMARK    3  A    between atoms: C_10  and  N_11
REMARK    4  A    between atoms: N_15  and  C_16
REMARK    5  A    between atoms: C_19  and  C_20
REMARK                            x       y       z     vdW  Elec       q    Type
REMARK                         _______ _______ _______ _____ _____    ______ ____
ROOT
ATOM      1  N   UNL     1      -5.298  12.381  20.456  0.00  0.00    +0.000 N 
ATOM      2  C   UNL     1      -4.324  13.134  21.087  0.00  0.00    +0.000 A 
ATOM      3  N   UNL     1      -3.208  12.443  21.521  0.00  0.00    +0.000 NA
ATOM      4  C   UNL     1      -2.326  13.034  22.280  0.00  0.00    +0.000 A 
ATOM      5  N   UNL     1      -1.223  12.407  22.843  0.00  0.00    +0.000 N 
ATOM      6  N   UNL     1      -2.517  14.386  22.575  0.00  0.00    +0.000 N 
ATOM      7  C   UNL     1      -1.810  15.265  23.360  0.00  0.00    +0.000 A 
ATOM      8  C   UNL     1      -2.517  16.442  23.289  0.00  0.00    +0.000 A 
ATOM      9  N   UNL     1      -3.585  16.316  22.443  0.00  0.00    +0.000 NA
ATOM     10  C   UNL     1      -3.582  15.063  22.040  0.00  0.00    +0.000 A 
ATOM     11  N   UNL     1      -4.495  14.407  21.298  0.00  0.00    +0.000 NA
ATOM     12  H   UNL     1      -4.989  11.434  20.264  0.00  0.00    +0.000 HD
ATOM     13  H   UNL     1      -1.066  12.585  23.826  0.00  0.00    +0.000 HD
ENDROOT
BRANCH   1  19
ATOM     14  C   UNL     1      -5.975  12.546  18.057  0.00  0.00    +0.000 A 
ATOM     15  C   UNL     1      -6.795  13.161  17.085  0.00  0.00    +0.000 A 
ATOM     16  C   UNL     1      -7.760  14.103  17.440  0.00  0.00    +0.000 A 
ATOM     17  C   UNL     1      -7.916  14.449  18.769  0.00  0.00    +0.000 A 
ATOM     18  C   UNL     1      -7.110  13.857  19.741  0.00  0.00    +0.000 A 
ATOM     19  C   UNL     1      -6.134  12.886  19.421  0.00  0.00    +0.000 A 
BRANCH  14  22
ATOM     20  C   UNL     1      -3.085  11.088  16.072  0.00  0.00    +0.000 C 
ATOM     21  N   UNL     1      -4.179  11.942  16.475  0.00  0.00    +0.000 N 
ATOM     22  C   UNL     1      -5.018  11.542  17.492  0.00  0.00    +0.000 C 
ATOM     23  O   UNL     1      -4.959  10.415  17.978  0.00  0.00    +0.000 OA
ATOM     24  H   UNL     1      -4.180  12.917  16.198  0.00  0.00    +0.000 HD
ENDBRANCH  14  22
ENDBRANCH   1  19
BRANCH   5  25
ATOM     25  C   UNL     1      -0.601  11.243  22.352  0.00  0.00    +0.000 A 
ATOM     26  C   UNL     1      -0.622  10.039  23.070  0.00  0.00    +0.000 A 
ATOM     27  C   UNL     1       0.030   8.895  22.589  0.00  0.00    +0.000 A 
ATOM     28  C   UNL     1       0.720   8.935  21.381  0.00  0.00    +0.000 A 
ATOM     29  C   UNL     1       0.730  10.122  20.638  0.00  0.00    +0.000 A 
ATOM     30  C   UNL     1       0.067  11.262  21.120  0.00  0.00    +0.000 A 
BRANCH  28  31
ATOM     31  C   UNL     1       1.417   7.770  20.902  0.00  0.00    +0.000 C 
ATOM     32  N   UNL     1       1.980   6.834  20.518  0.00  0.00    +0.000 NA
ENDBRANCH  28  31
ENDBRANCH   5  25
TORSDOF 4
ENDMDL
MODEL 9
REMARK VINA RESULT:      -7.5      5.389      8.845
REMARK  Name = 
REMARK  5 active torsions:
REMARK  status: ('A' for Active; 'I' for Inactive)
REMARK    1  A    between atoms: C_1  and  N_2
REMARK    2  A    between atoms: C_3  and  C_5
REMARK    3  A    between atoms: C_10  and  N_11
REMARK    4  A    between atoms: N_15  and  C_16
REMARK    5  A    between atoms: C_19  and  C_20
REMARK                            x       y       z     vdW  Elec       q    Type
REMARK                         _______ _______ _______ _____ _____    ______ ____
ROOT
ATOM      1  N   UNL     1       4.824  14.067  17.726  0.00  0.00    +0.000 N 
ATOM      2  C   UNL     1       3.517  14.155  18.170  0.00  0.00    +0.000 A 
ATOM      3  N   UNL     1       2.823  12.963  18.260  0.00  0.00    +0.000 NA
ATOM      4  C   UNL     1       1.540  12.968  18.495  0.00  0.00    +0.000 A 
ATOM      5  N   UNL     1       0.736  11.838  18.513  0.00  0.00    +0.000 N 
ATOM      6  N   UNL     1       0.920  14.201  18.716  0.00  0.00    +0.000 N 
ATOM      7  C   UNL     1      -0.391  14.543  18.944  0.00  0.00    +0.000 A 
ATOM      8  C   UNL     1      -0.382  15.915  19.041  0.00  0.00    +0.000 A 
ATOM      9  N   UNL     1       0.893  16.399  18.941  0.00  0.00    +0.000 NA
ATOM     10  C   UNL     1       1.661  15.353  18.721  0.00  0.00    +0.000 A 
ATOM     11  N   UNL     1       2.976  15.311  18.430  0.00  0.00    +0.000 NA
ATOM     12  H   UNL     1       5.146  13.107  17.666  0.00  0.00    +0.000 HD
ATOM     13  H   UNL     1      -0.130  11.900  17.994  0.00  0.00    +0.000 HD
ENDROOT
BRANCH   1  19
ATOM     14  C   UNL     1       7.223  14.577  18.199  0.00  0.00    +0.000 A 
ATOM     15  C   UNL     1       8.174  15.487  18.711  0.00  0.00    +0.000 A 
ATOM     16  C   UNL     1       7.798  16.748  19.173  0.00  0.00    +0.000 A 
ATOM     17  C   UNL     1       6.466  17.115  19.136  0.00  0.00    +0.000 A 
ATOM     18  C   UNL     1       5.512  16.226  18.639  0.00  0.00    +0.000 A 
ATOM     19  C   UNL     1       5.859  14.949  18.147  0.00  0.00    +0.000 A 
BRANCH  14  22
ATOM     20  C   UNL     1       9.441  11.497  18.076  0.00  0.00    +0.000 C 
ATOM     21  N   UNL     1       8.974  12.841  18.328  0.00  0.00    +0.000 N 
ATOM     22  C   UNL     1       7.818  13.286  17.725  0.00  0.00    +0.000 C 
ATOM     23  O   UNL     1       7.240  12.630  16.862  0.00  0.00    +0.000 OA
ATOM     24  H   UNL     1       9.338  13.356  19.121  0.00  0.00    +0.000 HD
ENDBRANCH  14  22
ENDBRANCH   1  19
BRANCH   5  25
ATOM     25  C   UNL     1       1.175  10.522  18.761  0.00  0.00    +0.000 A 
ATOM     26  C   UNL     1       0.958   9.895  19.995  0.00  0.00    +0.000 A 
ATOM     27  C   UNL     1       1.428   8.598  20.244  0.00  0.00    +0.000 A 
ATOM     28  C   UNL     1       2.130   7.904  19.262  0.00  0.00    +0.000 A 
ATOM     29  C   UNL     1       2.333   8.506  18.014  0.00  0.00    +0.000 A 
ATOM     30  C   UNL     1       1.851   9.801  17.767  0.00  0.00    +0.000 A 
BRANCH  28  31
ATOM     31  C   UNL     1       2.642   6.586  19.527  0.00  0.00    +0.000 C 
ATOM     32  N   UNL     1       3.051   5.524  19.741  0.00  0.00    +0.000 NA
ENDBRANCH  28  31
ENDBRANCH   5  25
TORSDOF 4
ENDMDL
