MODEL 1
REMARK VINA RESULT:      -9.1      0.000      0.000
REMARK  Name = 
REMARK  8 active torsions:
REMARK  status: ('A' for Active; 'I' for Inactive)
REMARK    1  A    between atoms: C_1  and  C_2
REMARK    2  A    between atoms: C_2  and  C_3
REMARK    3  A    between atoms: N_7  and  C_8
REMARK    4  A    between atoms: C_8  and  C_9
REMARK    5  A    between atoms: C_12  and  C_13
REMARK    6  A    between atoms: C_18  and  C_19
REMARK    7  A    between atoms: C_31  and  C_32
REMARK    8  A    between atoms: C_32  and  O_34
REMARK                            x       y       z     vdW  Elec       q    Type
REMARK                         _______ _______ _______ _____ _____    ______ ____
ROOT
ATOM      1  C   UNL     1       0.763  11.115  19.020  0.00  0.00    +0.000 C 
ENDROOT
BRANCH   1   6
ATOM      2  C   UNL     1      -1.257  11.965  20.296  0.00  0.00    +0.000 A 
ATOM      3  N   UNL     1      -2.556  12.119  20.103  0.00  0.00    +0.000 NA
ATOM      4  C   UNL     1      -2.810  11.618  18.860  0.00  0.00    +0.000 A 
ATOM      5  C   UNL     1      -1.668  11.091  18.288  0.00  0.00    +0.000 A 
ATOM      6  N   UNL     1      -0.654  11.432  19.165  0.00  0.00    +0.000 N 
ATOM      7  C   UNL     1      -1.505  10.300  17.023  0.00  0.00    +0.000 C 
ATOM      8  C   UNL     1      -2.749   9.462  16.698  0.00  0.00    +0.000 C 
ATOM      9  C   UNL     1      -3.933  10.270  16.149  0.00  0.00    +0.000 C 
ATOM     10  C   UNL     1      -4.126  11.648  16.786  0.00  0.00    +0.000 C 
ATOM     11  C   UNL     1      -4.133  11.590  18.296  0.00  0.00    +0.000 C 
ATOM     12  C   UNL     1      -5.251  11.514  19.053  0.00  0.00    +0.000 C 
BRANCH   2  14
ATOM     13  C   UNL     1      -0.897  11.438  22.731  0.00  0.00    +0.000 C 
ATOM     14  C   UNL     1      -0.515  12.318  21.551  0.00  0.00    +0.000 C 
ENDBRANCH   2  14
BRANCH  12  15
ATOM     15  C   UNL     1      -6.610  11.362  18.494  0.00  0.00    +0.000 C 
ATOM     16  O   UNL     1      -7.245  12.224  17.908  0.00  0.00    +0.000 OA
BRANCH  15  17
ATOM     17  O   UNL     1      -7.086  10.110  18.671  0.00  0.00    +0.000 OA
ATOM     18  H   UNL     1      -6.409   9.407  18.616  0.00  0.00    +0.000 HD
ENDBRANCH  15  17
ENDBRANCH  12  15
ENDBRANCH   1   6
BRANCH   1  19
ATOM     19  C   UNL     1       1.111   9.653  19.188  0.00  0.00    +0.000 A 
ATOM     20  C   UNL     1       1.682   8.894  18.160  0.00  0.00    +0.000 A 
ATOM     21  C   UNL     1       2.114   7.575  18.388  0.00  0.00    +0.000 A 
ATOM     22  C   UNL     1       2.035   6.972  19.658  0.00  0.00    +0.000 A 
ATOM     23  C   UNL     1       1.487   7.767  20.680  0.00  0.00    +0.000 A 
ATOM     24  C   UNL     1       0.985   9.054  20.442  0.00  0.00    +0.000 A 
BRANCH  22  25
ATOM     25  C   UNL     1       2.536   5.581  19.906  0.00  0.00    +0.000 A 
ATOM     26  C   UNL     1       1.874   4.781  20.872  0.00  0.00    +0.000 A 
ATOM     27  C   UNL     1       2.256   3.462  21.151  0.00  0.00    +0.000 A 
ATOM     28  C   UNL     1       3.299   2.882  20.449  0.00  0.00    +0.000 A 
ATOM     29  C   UNL     1       3.971   3.626  19.484  0.00  0.00    +0.000 A 
ATOM     30  C   UNL     1       3.622   4.970  19.218  0.00  0.00    +0.000 A 
BRANCH  30  31
ATOM     31  C   UNL     1       4.428   5.648  18.211  0.00  0.00    +0.000 A 
ATOM     32  N   UNL     1       5.572   6.345  18.537  0.00  0.00    +0.000 NA
ATOM     33  N   UNL     1       6.113   6.749  17.397  0.00  0.00    +0.000 NA
ATOM     34  N   UNL     1       5.279   6.297  16.452  0.00  0.00    +0.000 N 
ATOM     35  N   UNL     1       4.190   5.653  16.888  0.00  0.00    +0.000 NA
ATOM     36  H   UNL     1       5.481   6.411  15.463  0.00  0.00    +0.000 HD
ENDBRANCH  30  31
ENDBRANCH  22  25
ENDBRANCH   1  19
TORSDOF 7
ENDMDL
MODEL 2
REMARK VINA RESULT:      -9.1      1.482      1.953
REMARK  Name = 
REMARK  8 active torsions:
REMARK  status: ('A' for Active; 'I' for Inactive)
REMARK    1  A    between atoms: C_1  and  C_2
REMARK    2  A    between atoms: C_2  and  C_3
REMARK    3  A    between atoms: N_7  and  C_8
REMARK    4  A    between atoms: C_8  and  C_9
REMARK    5  A    between atoms: C_12  and  C_13
REMARK    6  A    between atoms: C_18  and  C_19
REMARK    7  A    between atoms: C_31  and  C_32
REMARK    8  A    between atoms: C_32  and  O_34
REMARK                            x       y       z     vdW  Elec       q    Type
REMARK                         _______ _______ _______ _____ _____    ______ ____
ROOT
ATOM      1  C   UNL     1       1.464  10.689  18.112  0.00  0.00    +0.000 C 
ENDROOT
BRANCH   1   6
ATOM      2  C   UNL     1       0.371  12.153  19.871  0.00  0.00    +0.000 A 
ATOM      3  N   UNL     1      -0.842  12.568  20.198  0.00  0.00    +0.000 NA
ATOM      4  C   UNL     1      -1.693  11.963  19.320  0.00  0.00    +0.000 A 
ATOM      5  C   UNL     1      -1.014  11.112  18.468  0.00  0.00    +0.000 A 
ATOM      6  N   UNL     1       0.322  11.338  18.748  0.00  0.00    +0.000 N 
ATOM      7  C   UNL     1      -1.547  10.130  17.466  0.00  0.00    +0.000 C 
ATOM      8  C   UNL     1      -2.910   9.558  17.882  0.00  0.00    +0.000 C 
ATOM      9  C   UNL     1      -4.086  10.526  17.698  0.00  0.00    +0.000 C 
ATOM     10  C   UNL     1      -3.778  11.990  18.022  0.00  0.00    +0.000 C 
ATOM     11  C   UNL     1      -3.117  12.154  19.371  0.00  0.00    +0.000 C 
ATOM     12  C   UNL     1      -3.777  12.445  20.516  0.00  0.00    +0.000 C 
BRANCH   2  14
ATOM     13  C   UNL     1       2.197  13.857  20.180  0.00  0.00    +0.000 C 
ATOM     14  C   UNL     1       1.636  12.506  20.594  0.00  0.00    +0.000 C 
ENDBRANCH   2  14
BRANCH  12  15
ATOM     15  C   UNL     1      -5.249  12.526  20.614  0.00  0.00    +0.000 C 
ATOM     16  O   UNL     1      -6.003  11.598  20.860  0.00  0.00    +0.000 OA
BRANCH  15  17
ATOM     17  O   UNL     1      -5.693  13.789  20.436  0.00  0.00    +0.000 OA
ATOM     18  H   UNL     1      -6.409  14.058  21.044  0.00  0.00    +0.000 HD
ENDBRANCH  15  17
ENDBRANCH  12  15
ENDBRANCH   1   6
BRANCH   1  19
ATOM     19  C   UNL     1       1.793   9.311  18.640  0.00  0.00    +0.000 A 
ATOM     20  C   UNL     1       1.464   8.907  19.939  0.00  0.00    +0.000 A 
ATOM     21  C   UNL     1       1.665   7.578  20.356  0.00  0.00    +0.000 A 
ATOM     22  C   UNL     1       2.161   6.589  19.486  0.00  0.00    +0.000 A 
ATOM     23  C   UNL     1       2.453   7.015  18.178  0.00  0.00    +0.000 A 
ATOM     24  C   UNL     1       2.328   8.352  17.778  0.00  0.00    +0.000 A 
BRANCH  22  25
ATOM     25  C   UNL     1       2.333   5.165  19.923  0.00  0.00    +0.000 A 
ATOM     26  C   UNL     1       1.281   4.542  20.641  0.00  0.00    +0.000 A 
ATOM     27  C   UNL     1       1.341   3.208  21.066  0.00  0.00    +0.000 A 
ATOM     28  C   UNL     1       2.450   2.436  20.761  0.00  0.00    +0.000 A 
ATOM     29  C   UNL     1       3.503   3.003  20.048  0.00  0.00    +0.000 A 
ATOM     30  C   UNL     1       3.472   4.358  19.646  0.00  0.00    +0.000 A 
BRANCH  30  31
ATOM     31  C   UNL     1       4.654   4.838  18.941  0.00  0.00    +0.000 A 
ATOM     32  N   UNL     1       5.666   5.517  19.585  0.00  0.00    +0.000 NA
ATOM     33  N   UNL     1       6.621   5.720  18.691  0.00  0.00    +0.000 NA
ATOM     34  N   UNL     1       6.147   5.176  17.564  0.00  0.00    +0.000 N 
ATOM     35  N   UNL     1       4.914   4.659  17.634  0.00  0.00    +0.000 NA
ATOM     36  H   UNL     1       6.704   5.132  16.716  0.00  0.00    +0.000 HD
ENDBRANCH  30  31
ENDBRANCH  22  25
ENDBRANCH   1  19
TORSDOF 7
ENDMDL
MODEL 3
REMARK VINA RESULT:      -8.9      0.413      1.114
REMARK  Name = 
REMARK  8 active torsions:
REMARK  status: ('A' for Active; 'I' for Inactive)
REMARK    1  A    between atoms: C_1  and  C_2
REMARK    2  A    between atoms: C_2  and  C_3
REMARK    3  A    between atoms: N_7  and  C_8
REMARK    4  A    between atoms: C_8  and  C_9
REMARK    5  A    between atoms: C_12  and  C_13
REMARK    6  A    between atoms: C_18  and  C_19
REMARK    7  A    between atoms: C_31  and  C_32
REMARK    8  A    between atoms: C_32  and  O_34
REMARK                            x       y       z     vdW  Elec       q    Type
REMARK                         _______ _______ _______ _____ _____    ______ ____
ROOT
ATOM      1  C   UNL     1       0.906  11.091  18.902  0.00  0.00    +0.000 C 
ENDROOT
BRANCH   1   6
ATOM      2  C   UNL     1      -1.115  11.858  20.230  0.00  0.00    +0.000 A 
ATOM      3  N   UNL     1      -2.420  11.984  20.059  0.00  0.00    +0.000 NA
ATOM      4  C   UNL     1      -2.681  11.508  18.808  0.00  0.00    +0.000 A 
ATOM      5  C   UNL     1      -1.535  11.025  18.206  0.00  0.00    +0.000 A 
ATOM      6  N   UNL     1      -0.517  11.369  19.076  0.00  0.00    +0.000 N 
ATOM      7  C   UNL     1      -1.371  10.271  16.917  0.00  0.00    +0.000 C 
ATOM      8  C   UNL     1      -2.599   9.410  16.589  0.00  0.00    +0.000 C 
ATOM      9  C   UNL     1      -3.811  10.203  16.079  0.00  0.00    +0.000 C 
ATOM     10  C   UNL     1      -4.028  11.559  16.755  0.00  0.00    +0.000 C 
ATOM     11  C   UNL     1      -4.011  11.461  18.262  0.00  0.00    +0.000 C 
ATOM     12  C   UNL     1      -5.115  11.338  19.033  0.00  0.00    +0.000 C 
BRANCH   2  14
ATOM     13  C   UNL     1      -0.870  11.439  22.699  0.00  0.00    +0.000 C 
ATOM     14  C   UNL     1      -0.364  12.197  21.483  0.00  0.00    +0.000 C 
ENDBRANCH   2  14
BRANCH  12  15
ATOM     15  C   UNL     1      -6.478  11.166  18.490  0.00  0.00    +0.000 C 
ATOM     16  O   UNL     1      -7.092  11.982  17.821  0.00  0.00    +0.000 OA
BRANCH  15  17
ATOM     17  O   UNL     1      -6.985   9.950  18.789  0.00  0.00    +0.000 OA
ATOM     18  H   UNL     1      -7.194   9.395  18.012  0.00  0.00    +0.000 HD
ENDBRANCH  15  17
ENDBRANCH  12  15
ENDBRANCH   1   6
BRANCH   1  19
ATOM     19  C   UNL     1       1.320   9.668  19.197  0.00  0.00    +0.000 A 
ATOM     20  C   UNL     1       1.132   9.075  20.450  0.00  0.00    +0.000 A 
ATOM     21  C   UNL     1       1.407   7.710  20.654  0.00  0.00    +0.000 A 
ATOM     22  C   UNL     1       1.840   6.871  19.610  0.00  0.00    +0.000 A 
ATOM     23  C   UNL     1       1.990   7.485  18.354  0.00  0.00    +0.000 A 
ATOM     24  C   UNL     1       1.791   8.859  18.161  0.00  0.00    +0.000 A 
BRANCH  22  25
ATOM     25  C   UNL     1       2.090   5.408  19.823  0.00  0.00    +0.000 A 
ATOM     26  C   UNL     1       1.177   4.670  20.619  0.00  0.00    +0.000 A 
ATOM     27  C   UNL     1       1.316   3.295  20.851  0.00  0.00    +0.000 A 
ATOM     28  C   UNL     1       2.362   2.599  20.267  0.00  0.00    +0.000 A 
ATOM     29  C   UNL     1       3.275   3.280  19.469  0.00  0.00    +0.000 A 
ATOM     30  C   UNL     1       3.170   4.674  19.257  0.00  0.00    +0.000 A 
BRANCH  30  31
ATOM     31  C   UNL     1       4.213   5.272  18.433  0.00  0.00    +0.000 A 
ATOM     32  N   UNL     1       4.140   5.286  17.057  0.00  0.00    +0.000 NA
ATOM     33  N   UNL     1       5.182   5.983  16.625  0.00  0.00    +0.000 NA
ATOM     34  N   UNL     1       5.831   6.339  17.740  0.00  0.00    +0.000 N 
ATOM     35  N   UNL     1       5.316   5.889  18.890  0.00  0.00    +0.000 NA
ATOM     36  H   UNL     1       6.649   6.941  17.712  0.00  0.00    +0.000 HD
ENDBRANCH  30  31
ENDBRANCH  22  25
ENDBRANCH   1  19
TORSDOF 7
ENDMDL
MODEL 4
REMARK VINA RESULT:      -8.9      2.128      3.748
REMARK  Name = 
REMARK  8 active torsions:
REMARK  status: ('A' for Active; 'I' for Inactive)
REMARK    1  A    between atoms: C_1  and  C_2
REMARK    2  A    between atoms: C_2  and  C_3
REMARK    3  A    between atoms: N_7  and  C_8
REMARK    4  A    between atoms: C_8  and  C_9
REMARK    5  A    between atoms: C_12  and  C_13
REMARK    6  A    between atoms: C_18  and  C_19
REMARK    7  A    between atoms: C_31  and  C_32
REMARK    8  A    between atoms: C_32  and  O_34
REMARK                            x       y       z     vdW  Elec       q    Type
REMARK                         _______ _______ _______ _____ _____    ______ ____
ROOT
ATOM      1  C   UNL     1       1.390  10.460  18.235  0.00  0.00    +0.000 C 
ENDROOT
BRANCH   1   6
ATOM      2  C   UNL     1      -1.101  10.867  18.482  0.00  0.00    +0.000 A 
ATOM      3  N   UNL     1      -1.917  11.564  19.256  0.00  0.00    +0.000 NA
ATOM      4  C   UNL     1      -1.117  12.266  20.107  0.00  0.00    +0.000 A 
ATOM      5  C   UNL     1       0.220  12.054  19.829  0.00  0.00    +0.000 A 
ATOM      6  N   UNL     1       0.219  11.059  18.869  0.00  0.00    +0.000 N 
ATOM      7  C   UNL     1       1.437  12.731  20.389  0.00  0.00    +0.000 C 
ATOM      8  C   UNL     1       1.159  14.187  20.789  0.00  0.00    +0.000 C 
ATOM      9  C   UNL     1       0.358  14.345  22.090  0.00  0.00    +0.000 C 
ATOM     10  C   UNL     1      -0.744  13.304  22.302  0.00  0.00    +0.000 C 
ATOM     11  C   UNL     1      -1.645  13.166  21.097  0.00  0.00    +0.000 C 
ATOM     12  C   UNL     1      -2.823  13.812  20.945  0.00  0.00    +0.000 C 
BRANCH   2  14
ATOM     13  C   UNL     1      -3.026   9.787  17.274  0.00  0.00    +0.000 C 
ATOM     14  C   UNL     1      -1.521   9.982  17.347  0.00  0.00    +0.000 C 
ENDBRANCH   2  14
BRANCH  12  15
ATOM     15  C   UNL     1      -3.327  14.831  21.890  0.00  0.00    +0.000 C 
ATOM     16  O   UNL     1      -3.030  16.014  21.893  0.00  0.00    +0.000 OA
BRANCH  15  17
ATOM     17  O   UNL     1      -4.215  14.307  22.762  0.00  0.00    +0.000 OA
ATOM     18  H   UNL     1      -4.039  14.522  23.699  0.00  0.00    +0.000 HD
ENDBRANCH  15  17
ENDBRANCH  12  15
ENDBRANCH   1   6
BRANCH   1  19
ATOM     19  C   UNL     1       1.756   9.084  18.740  0.00  0.00    +0.000 A 
ATOM     20  C   UNL     1       1.532   8.684  20.062  0.00  0.00    +0.000 A 
ATOM     21  C   UNL     1       1.763   7.356  20.467  0.00  0.00    +0.000 A 
ATOM     22  C   UNL     1       2.185   6.363  19.564  0.00  0.00    +0.000 A 
ATOM     23  C   UNL     1       2.373   6.784  18.235  0.00  0.00    +0.000 A 
ATOM     24  C   UNL     1       2.219   8.120  17.842  0.00  0.00    +0.000 A 
BRANCH  22  25
ATOM     25  C   UNL     1       2.388   4.940  19.991  0.00  0.00    +0.000 A 
ATOM     26  C   UNL     1       1.357   4.295  20.719  0.00  0.00    +0.000 A 
ATOM     27  C   UNL     1       1.447   2.960  21.136  0.00  0.00    +0.000 A 
ATOM     28  C   UNL     1       2.565   2.209  20.812  0.00  0.00    +0.000 A 
ATOM     29  C   UNL     1       3.598   2.799  20.089  0.00  0.00    +0.000 A 
ATOM     30  C   UNL     1       3.538   4.155  19.694  0.00  0.00    +0.000 A 
BRANCH  30  31
ATOM     31  C   UNL     1       4.701   4.660  18.976  0.00  0.00    +0.000 A 
ATOM     32  N   UNL     1       5.679   5.405  19.599  0.00  0.00    +0.000 NA
ATOM     33  N   UNL     1       6.630   5.616  18.700  0.00  0.00    +0.000 NA
ATOM     34  N   UNL     1       6.185   5.011  17.593  0.00  0.00    +0.000 N 
ATOM     35  N   UNL     1       4.975   4.445  17.678  0.00  0.00    +0.000 NA
ATOM     36  H   UNL     1       6.748   4.961  16.749  0.00  0.00    +0.000 HD
ENDBRANCH  30  31
ENDBRANCH  22  25
ENDBRANCH   1  19
TORSDOF 7
ENDMDL
MODEL 5
REMARK VINA RESULT:      -8.8      1.287      1.628
REMARK  Name = 
REMARK  8 active torsions:
REMARK  status: ('A' for Active; 'I' for Inactive)
REMARK    1  A    between atoms: C_1  and  C_2
REMARK    2  A    between atoms: C_2  and  C_3
REMARK    3  A    between atoms: N_7  and  C_8
REMARK    4  A    between atoms: C_8  and  C_9
REMARK    5  A    between atoms: C_12  and  C_13
REMARK    6  A    between atoms: C_18  and  C_19
REMARK    7  A    between atoms: C_31  and  C_32
REMARK    8  A    between atoms: C_32  and  O_34
REMARK                            x       y       z     vdW  Elec       q    Type
REMARK                         _______ _______ _______ _____ _____    ______ ____
ROOT
ATOM      1  C   UNL     1       1.346  10.810  18.323  0.00  0.00    +0.000 C 
ENDROOT
BRANCH   1   6
ATOM      2  C   UNL     1       0.135  12.261  20.014  0.00  0.00    +0.000 A 
ATOM      3  N   UNL     1      -1.103  12.646  20.281  0.00  0.00    +0.000 NA
ATOM      4  C   UNL     1      -1.896  12.008  19.373  0.00  0.00    +0.000 A 
ATOM      5  C   UNL     1      -1.156  11.168  18.563  0.00  0.00    +0.000 A 
ATOM      6  N   UNL     1       0.159  11.433  18.900  0.00  0.00    +0.000 N 
ATOM      7  C   UNL     1      -1.617  10.160  17.550  0.00  0.00    +0.000 C 
ATOM      8  C   UNL     1      -2.980   9.555  17.911  0.00  0.00    +0.000 C 
ATOM      9  C   UNL     1      -4.174  10.488  17.662  0.00  0.00    +0.000 C 
ATOM     10  C   UNL     1      -3.920  11.963  17.983  0.00  0.00    +0.000 C 
ATOM     11  C   UNL     1      -3.326  12.160  19.357  0.00  0.00    +0.000 C 
ATOM     12  C   UNL     1      -4.044  12.446  20.468  0.00  0.00    +0.000 C 
BRANCH   2  14
ATOM     13  C   UNL     1       1.287  14.082  21.314  0.00  0.00    +0.000 C 
ATOM     14  C   UNL     1       1.356  12.657  20.788  0.00  0.00    +0.000 C 
ENDBRANCH   2  14
BRANCH  12  15
ATOM     15  C   UNL     1      -5.521  12.487  20.500  0.00  0.00    +0.000 C 
ATOM     16  O   UNL     1      -6.257  11.571  20.833  0.00  0.00    +0.000 OA
BRANCH  15  17
ATOM     17  O   UNL     1      -5.995  13.700  20.144  0.00  0.00    +0.000 OA
ATOM     18  H   UNL     1      -6.923  13.865  20.400  0.00  0.00    +0.000 HD
ENDBRANCH  15  17
ENDBRANCH  12  15
ENDBRANCH   1   6
BRANCH   1  19
ATOM     19  C   UNL     1       1.544   9.356  18.686  0.00  0.00    +0.000 A 
ATOM     20  C   UNL     1       2.013   8.410  17.767  0.00  0.00    +0.000 A 
ATOM     21  C   UNL     1       2.310   7.094  18.170  0.00  0.00    +0.000 A 
ATOM     22  C   UNL     1       2.193   6.679  19.509  0.00  0.00    +0.000 A 
ATOM     23  C   UNL     1       1.751   7.658  20.417  0.00  0.00    +0.000 A 
ATOM     24  C   UNL     1       1.380   8.947  20.010  0.00  0.00    +0.000 A 
BRANCH  22  25
ATOM     25  C   UNL     1       2.552   5.289  19.941  0.00  0.00    +0.000 A 
ATOM     26  C   UNL     1       1.742   4.647  20.912  0.00  0.00    +0.000 A 
ATOM     27  C   UNL     1       1.985   3.340  21.355  0.00  0.00    +0.000 A 
ATOM     28  C   UNL     1       3.035   2.613  20.819  0.00  0.00    +0.000 A 
ATOM     29  C   UNL     1       3.850   3.199  19.855  0.00  0.00    +0.000 A 
ATOM     30  C   UNL     1       3.640   4.530  19.426  0.00  0.00    +0.000 A 
BRANCH  30  31
ATOM     31  C   UNL     1       4.588   5.036  18.441  0.00  0.00    +0.000 A 
ATOM     32  N   UNL     1       4.476   4.742  17.099  0.00  0.00    +0.000 NA
ATOM     33  N   UNL     1       5.422   5.429  16.476  0.00  0.00    +0.000 NA
ATOM     34  N   UNL     1       6.058   6.085  17.453  0.00  0.00    +0.000 N 
ATOM     35  N   UNL     1       5.628   5.848  18.698  0.00  0.00    +0.000 NA
ATOM     36  H   UNL     1       6.803   6.747  17.255  0.00  0.00    +0.000 HD
ENDBRANCH  30  31
ENDBRANCH  22  25
ENDBRANCH   1  19
TORSDOF 7
ENDMDL
MODEL 6
REMARK VINA RESULT:      -8.7      1.841      3.442
REMARK  Name = 
REMARK  8 active torsions:
REMARK  status: ('A' for Active; 'I' for Inactive)
REMARK    1  A    between atoms: C_1  and  C_2
REMARK    2  A    between atoms: C_2  and  C_3
REMARK    3  A    between atoms: N_7  and  C_8
REMARK    4  A    between atoms: C_8  and  C_9
REMARK    5  A    between atoms: C_12  and  C_13
REMARK    6  A    between atoms: C_18  and  C_19
REMARK    7  A    between atoms: C_31  and  C_32
REMARK    8  A    between atoms: C_32  and  O_34
REMARK                            x       y       z     vdW  Elec       q    Type
REMARK                         _______ _______ _______ _____ _____    ______ ____
ROOT
ATOM      1  C   UNL     1       1.037  10.740  18.637  0.00  0.00    +0.000 C 
ENDROOT
BRANCH   1   6
ATOM      2  C   UNL     1      -1.496  10.832  18.543  0.00  0.00    +0.000 A 
ATOM      3  N   UNL     1      -2.500  11.234  19.304  0.00  0.00    +0.000 NA
ATOM      4  C   UNL     1      -1.930  11.780  20.416  0.00  0.00    +0.000 A 
ATOM      5  C   UNL     1      -0.551  11.772  20.328  0.00  0.00    +0.000 A 
ATOM      6  N   UNL     1      -0.282  11.049  19.181  0.00  0.00    +0.000 N 
ATOM      7  C   UNL     1       0.472  12.406  21.226  0.00  0.00    +0.000 C 
ATOM      8  C   UNL     1      -0.054  13.684  21.893  0.00  0.00    +0.000 C 
ATOM      9  C   UNL     1      -1.044  13.440  23.040  0.00  0.00    +0.000 C 
ATOM     10  C   UNL     1      -2.016  12.278  22.820  0.00  0.00    +0.000 C 
ATOM     11  C   UNL     1      -2.709  12.353  21.480  0.00  0.00    +0.000 C 
ATOM     12  C   UNL     1      -3.931  12.900  21.281  0.00  0.00    +0.000 C 
BRANCH   2  14
ATOM     13  C   UNL     1      -2.681  10.899  16.323  0.00  0.00    +0.000 C 
ATOM     14  C   UNL     1      -1.628  10.217  17.181  0.00  0.00    +0.000 C 
ENDBRANCH   2  14
BRANCH  12  15
ATOM     15  C   UNL     1      -4.696  13.602  22.333  0.00  0.00    +0.000 C 
ATOM     16  O   UNL     1      -4.634  14.793  22.590  0.00  0.00    +0.000 OA
BRANCH  15  17
ATOM     17  O   UNL     1      -5.533  12.765  22.983  0.00  0.00    +0.000 OA
ATOM     18  H   UNL     1      -6.379  12.599  22.524  0.00  0.00    +0.000 HD
ENDBRANCH  15  17
ENDBRANCH  12  15
ENDBRANCH   1   6
BRANCH   1  19
ATOM     19  C   UNL     1       1.465   9.297  18.777  0.00  0.00    +0.000 A 
ATOM     20  C   UNL     1       1.989   8.562  17.708  0.00  0.00    +0.000 A 
ATOM     21  C   UNL     1       2.498   7.265  17.902  0.00  0.00    +0.000 A 
ATOM     22  C   UNL     1       2.546   6.663  19.174  0.00  0.00    +0.000 A 
ATOM     23  C   UNL     1       2.042   7.436  20.235  0.00  0.00    +0.000 A 
ATOM     24  C   UNL     1       1.464   8.698  20.038  0.00  0.00    +0.000 A 
BRANCH  22  25
ATOM     25  C   UNL     1       3.129   5.298  19.383  0.00  0.00    +0.000 A 
ATOM     26  C   UNL     1       2.506   4.426  20.311  0.00  0.00    +0.000 A 
ATOM     27  C   UNL     1       2.965   3.124  20.551  0.00  0.00    +0.000 A 
ATOM     28  C   UNL     1       4.051   2.634  19.846  0.00  0.00    +0.000 A 
ATOM     29  C   UNL     1       4.688   3.451  18.917  0.00  0.00    +0.000 A 
ATOM     30  C   UNL     1       4.260   4.780  18.691  0.00  0.00    +0.000 A 
BRANCH  30  31
ATOM     31  C   UNL     1       5.036   5.541  17.720  0.00  0.00    +0.000 A 
ATOM     32  N   UNL     1       4.831   5.419  16.362  0.00  0.00    +0.000 NA
ATOM     33  N   UNL     1       5.618   6.309  15.775  0.00  0.00    +0.000 NA
ATOM     34  N   UNL     1       6.260   6.906  16.786  0.00  0.00    +0.000 N 
ATOM     35  N   UNL     1       5.987   6.444  18.012  0.00  0.00    +0.000 NA
ATOM     36  H   UNL     1       6.895   7.684  16.629  0.00  0.00    +0.000 HD
ENDBRANCH  30  31
ENDBRANCH  22  25
ENDBRANCH   1  19
TORSDOF 7
ENDMDL
MODEL 7
REMARK VINA RESULT:      -8.7      2.099      3.657
REMARK  Name = 
REMARK  8 active torsions:
REMARK  status: ('A' for Active; 'I' for Inactive)
REMARK    1  A    between atoms: C_1  and  C_2
REMARK    2  A    between atoms: C_2  and  C_3
REMARK    3  A    between atoms: N_7  and  C_8
REMARK    4  A    between atoms: C_8  and  C_9
REMARK    5  A    between atoms: C_12  and  C_13
REMARK    6  A    between atoms: C_18  and  C_19
REMARK    7  A    between atoms: C_31  and  C_32
REMARK    8  A    between atoms: C_32  and  O_34
REMARK                            x       y       z     vdW  Elec       q    Type
REMARK                         _______ _______ _______ _____ _____    ______ ____
ROOT
ATOM      1  C   UNL     1       1.338  11.006  18.814  0.00  0.00    +0.000 C 
ENDROOT
BRANCH   1   6
ATOM      2  C   UNL     1      -1.191  10.814  18.786  0.00  0.00    +0.000 A 
ATOM      3  N   UNL     1      -2.217  11.152  19.550  0.00  0.00    +0.000 NA
ATOM      4  C   UNL     1      -1.687  11.825  20.611  0.00  0.00    +0.000 A 
ATOM      5  C   UNL     1      -0.318  11.962  20.485  0.00  0.00    +0.000 A 
ATOM      6  N   UNL     1       0.005  11.202  19.376  0.00  0.00    +0.000 N 
ATOM      7  C   UNL     1       0.648  12.758  21.315  0.00  0.00    +0.000 C 
ATOM      8  C   UNL     1      -0.001  14.011  21.919  0.00  0.00    +0.000 C 
ATOM      9  C   UNL     1      -0.934  13.732  23.105  0.00  0.00    +0.000 C 
ATOM     10  C   UNL     1      -1.776  12.460  22.982  0.00  0.00    +0.000 C 
ATOM     11  C   UNL     1      -2.502  12.375  21.661  0.00  0.00    +0.000 C 
ATOM     12  C   UNL     1      -3.780  12.772  21.463  0.00  0.00    +0.000 C 
BRANCH   2  14
ATOM     13  C   UNL     1      -2.709   9.992  16.956  0.00  0.00    +0.000 C 
ATOM     14  C   UNL     1      -1.283  10.105  17.469  0.00  0.00    +0.000 C 
ENDBRANCH   2  14
BRANCH  12  15
ATOM     15  C   UNL     1      -4.595  13.450  22.493  0.00  0.00    +0.000 C 
ATOM     16  O   UNL     1      -4.609  14.650  22.720  0.00  0.00    +0.000 OA
BRANCH  15  17
ATOM     17  O   UNL     1      -5.384  12.580  23.159  0.00  0.00    +0.000 OA
ATOM     18  H   UNL     1      -5.272  11.646  22.894  0.00  0.00    +0.000 HD
ENDBRANCH  15  17
ENDBRANCH  12  15
ENDBRANCH   1   6
BRANCH   1  19
ATOM     19  C   UNL     1       1.788   9.566  18.725  0.00  0.00    +0.000 A 
ATOM     20  C   UNL     1       1.666   8.673  19.796  0.00  0.00    +0.000 A 
ATOM     21  C   UNL     1       1.973   7.308  19.639  0.00  0.00    +0.000 A 
ATOM     22  C   UNL     1       2.373   6.769  18.402  0.00  0.00    +0.000 A 
ATOM     23  C   UNL     1       2.456   7.682  17.335  0.00  0.00    +0.000 A 
ATOM     24  C   UNL     1       2.226   9.055  17.502  0.00  0.00    +0.000 A 
BRANCH  22  25
ATOM     25  C   UNL     1       2.657   5.307  18.230  0.00  0.00    +0.000 A 
ATOM     26  C   UNL     1       1.658   4.372  18.603  0.00  0.00    +0.000 A 
ATOM     27  C   UNL     1       1.825   2.989  18.454  0.00  0.00    +0.000 A 
ATOM     28  C   UNL     1       2.990   2.490  17.895  0.00  0.00    +0.000 A 
ATOM     29  C   UNL     1       3.992   3.372  17.504  0.00  0.00    +0.000 A 
ATOM     30  C   UNL     1       3.855   4.768  17.683  0.00  0.00    +0.000 A 
BRANCH  30  31
ATOM     31  C   UNL     1       4.993   5.577  17.267  0.00  0.00    +0.000 A 
ATOM     32  N   UNL     1       5.946   6.014  18.162  0.00  0.00    +0.000 NA
ATOM     33  N   UNL     1       6.882   6.629  17.454  0.00  0.00    +0.000 NA
ATOM     34  N   UNL     1       6.453   6.549  16.189  0.00  0.00    +0.000 N 
ATOM     35  N   UNL     1       5.266   5.957  16.007  0.00  0.00    +0.000 NA
ATOM     36  H   UNL     1       7.012   6.891  15.413  0.00  0.00    +0.000 HD
ENDBRANCH  30  31
ENDBRANCH  22  25
ENDBRANCH   1  19
TORSDOF 7
ENDMDL
MODEL 8
REMARK VINA RESULT:      -8.7      3.278      5.162
REMARK  Name = 
REMARK  8 active torsions:
REMARK  status: ('A' for Active; 'I' for Inactive)
REMARK    1  A    between atoms: C_1  and  C_2
REMARK    2  A    between atoms: C_2  and  C_3
REMARK    3  A    between atoms: N_7  and  C_8
REMARK    4  A    between atoms: C_8  and  C_9
REMARK    5  A    between atoms: C_12  and  C_13
REMARK    6  A    between atoms: C_18  and  C_19
REMARK    7  A    between atoms: C_31  and  C_32
REMARK    8  A    between atoms: C_32  and  O_34
REMARK                            x       y       z     vdW  Elec       q    Type
REMARK                         _______ _______ _______ _____ _____    ______ ____
ROOT
ATOM      1  C   UNL     1      -0.094   9.715  20.562  0.00  0.00    +0.000 C 
ENDROOT
BRANCH   1   6
ATOM      2  C   UNL     1      -1.237  11.285  18.931  0.00  0.00    +0.000 A 
ATOM      3  N   UNL     1      -1.250  12.576  18.645  0.00  0.00    +0.000 NA
ATOM      4  C   UNL     1      -0.334  13.151  19.475  0.00  0.00    +0.000 A 
ATOM      5  C   UNL     1       0.303  12.204  20.253  0.00  0.00    +0.000 A 
ATOM      6  N   UNL     1      -0.372  11.027  19.985  0.00  0.00    +0.000 N 
ATOM      7  C   UNL     1       1.478  12.351  21.176  0.00  0.00    +0.000 C 
ATOM      8  C   UNL     1       2.437  13.461  20.723  0.00  0.00    +0.000 C 
ATOM      9  C   UNL     1       1.930  14.885  20.991  0.00  0.00    +0.000 C 
ATOM     10  C   UNL     1       0.427  15.087  20.782  0.00  0.00    +0.000 C 
ATOM     11  C   UNL     1      -0.045  14.560  19.448  0.00  0.00    +0.000 C 
ATOM     12  C   UNL     1      -0.185  15.315  18.334  0.00  0.00    +0.000 C 
BRANCH   2  14
ATOM     13  C   UNL     1      -2.380  10.598  16.796  0.00  0.00    +0.000 C 
ATOM     14  C   UNL     1      -2.042  10.230  18.231  0.00  0.00    +0.000 C 
ENDBRANCH   2  14
BRANCH  12  15
ATOM     15  C   UNL     1       0.220  16.733  18.249  0.00  0.00    +0.000 C 
ATOM     16  O   UNL     1       1.365  17.149  18.175  0.00  0.00    +0.000 OA
BRANCH  15  17
ATOM     17  O   UNL     1      -0.850  17.557  18.224  0.00  0.00    +0.000 OA
ATOM     18  H   UNL     1      -1.706  17.116  18.389  0.00  0.00    +0.000 HD
ENDBRANCH  15  17
ENDBRANCH  12  15
ENDBRANCH   1   6
BRANCH   1  19
ATOM     19  C   UNL     1       0.980   8.921  19.854  0.00  0.00    +0.000 A 
ATOM     20  C   UNL     1       1.603   7.812  20.438  0.00  0.00    +0.000 A 
ATOM     21  C   UNL     1       2.504   7.017  19.705  0.00  0.00    +0.000 A 
ATOM     22  C   UNL     1       2.789   7.268  18.350  0.00  0.00    +0.000 A 
ATOM     23  C   UNL     1       2.126   8.368  17.779  0.00  0.00    +0.000 A 
ATOM     24  C   UNL     1       1.287   9.209  18.523  0.00  0.00    +0.000 A 
BRANCH  22  25
ATOM     25  C   UNL     1       3.716   6.392  17.561  0.00  0.00    +0.000 A 
ATOM     26  C   UNL     1       4.797   6.995  16.870  0.00  0.00    +0.000 A 
ATOM     27  C   UNL     1       5.728   6.254  16.130  0.00  0.00    +0.000 A 
ATOM     28  C   UNL     1       5.629   4.873  16.079  0.00  0.00    +0.000 A 
ATOM     29  C   UNL     1       4.590   4.238  16.752  0.00  0.00    +0.000 A 
ATOM     30  C   UNL     1       3.620   4.975  17.471  0.00  0.00    +0.000 A 
BRANCH  30  31
ATOM     31  C   UNL     1       2.563   4.192  18.098  0.00  0.00    +0.000 A 
ATOM     32  N   UNL     1       1.339   4.000  17.495  0.00  0.00    +0.000 NA
ATOM     33  N   UNL     1       0.655   3.172  18.271  0.00  0.00    +0.000 NA
ATOM     34  N   UNL     1       1.478   2.917  19.296  0.00  0.00    +0.000 N 
ATOM     35  N   UNL     1       2.654   3.556  19.279  0.00  0.00    +0.000 NA
ATOM     36  H   UNL     1       1.232   2.254  20.026  0.00  0.00    +0.000 HD
ENDBRANCH  30  31
ENDBRANCH  22  25
ENDBRANCH   1  19
TORSDOF 7
ENDMDL
MODEL 9
REMARK VINA RESULT:      -8.6      3.945      5.360
REMARK  Name = 
REMARK  8 active torsions:
REMARK  status: ('A' for Active; 'I' for Inactive)
REMARK    1  A    between atoms: C_1  and  C_2
REMARK    2  A    between atoms: C_2  and  C_3
REMARK    3  A    between atoms: N_7  and  C_8
REMARK    4  A    between atoms: C_8  and  C_9
REMARK    5  A    between atoms: C_12  and  C_13
REMARK    6  A    between atoms: C_18  and  C_19
REMARK    7  A    between atoms: C_31  and  C_32
REMARK    8  A    between atoms: C_32  and  O_34
REMARK                            x       y       z     vdW  Elec       q    Type
REMARK                         _______ _______ _______ _____ _____    ______ ____
ROOT
ATOM      1  C   UNL     1      -0.606  10.434  19.873  0.00  0.00    +0.000 C 
ENDROOT
BRANCH   1   6
ATOM      2  C   UNL     1      -0.403  11.619  22.106  0.00  0.00    +0.000 A 
ATOM      3  N   UNL     1       0.041  12.773  22.577  0.00  0.00    +0.000 NA
ATOM      4  C   UNL     1       0.449  13.488  21.489  0.00  0.00    +0.000 A 
ATOM      5  C   UNL     1       0.206  12.799  20.316  0.00  0.00    +0.000 A 
ATOM      6  N   UNL     1      -0.223  11.551  20.731  0.00  0.00    +0.000 N 
ATOM      7  C   UNL     1       0.337  13.253  18.891  0.00  0.00    +0.000 C 
ATOM      8  C   UNL     1       0.081  14.758  18.736  0.00  0.00    +0.000 C 
ATOM      9  C   UNL     1       1.231  15.650  19.223  0.00  0.00    +0.000 C 
ATOM     10  C   UNL     1       1.944  15.157  20.484  0.00  0.00    +0.000 C 
ATOM     11  C   UNL     1       0.980  14.820  21.597  0.00  0.00    +0.000 C 
ATOM     12  C   UNL     1       0.637  15.667  22.594  0.00  0.00    +0.000 C 
BRANCH   2  14
ATOM     13  C   UNL     1       0.026   9.571  23.506  0.00  0.00    +0.000 C 
ATOM     14  C   UNL     1      -1.011  10.520  22.926  0.00  0.00    +0.000 C 
ENDBRANCH   2  14
BRANCH  12  15
ATOM     15  C   UNL     1       1.074  17.077  22.658  0.00  0.00    +0.000 C 
ATOM     16  O   UNL     1       0.566  18.013  22.062  0.00  0.00    +0.000 OA
BRANCH  15  17
ATOM     17  O   UNL     1       2.113  17.240  23.506  0.00  0.00    +0.000 OA
ATOM     18  H   UNL     1       2.026  18.001  24.113  0.00  0.00    +0.000 HD
ENDBRANCH  15  17
ENDBRANCH  12  15
ENDBRANCH   1   6
BRANCH   1  19
ATOM     19  C   UNL     1       0.529   9.524  19.464  0.00  0.00    +0.000 A 
ATOM     20  C   UNL     1       1.107   8.602  20.344  0.00  0.00    +0.000 A 
ATOM     21  C   UNL     1       2.072   7.681  19.897  0.00  0.00    +0.000 A 
ATOM     22  C   UNL     1       2.469   7.611  18.548  0.00  0.00    +0.000 A 
ATOM     23  C   UNL     1       1.849   8.526  17.679  0.00  0.00    +0.000 A 
ATOM     24  C   UNL     1       0.945   9.497  18.132  0.00  0.00    +0.000 A 
BRANCH  22  25
ATOM     25  C   UNL     1       3.466   6.598  18.068  0.00  0.00    +0.000 A 
ATOM     26  C   UNL     1       4.505   7.024  17.202  0.00  0.00    +0.000 A 
ATOM     27  C   UNL     1       5.495   6.154  16.725  0.00  0.00    +0.000 A 
ATOM     28  C   UNL     1       5.499   4.828  17.123  0.00  0.00    +0.000 A 
ATOM     29  C   UNL     1       4.504   4.369  17.981  0.00  0.00    +0.000 A 
ATOM     30  C   UNL     1       3.477   5.225  18.440  0.00  0.00    +0.000 A 
BRANCH  30  31
ATOM     31  C   UNL     1       2.476   4.610  19.302  0.00  0.00    +0.000 A 
ATOM     32  N   UNL     1       2.700   4.393  20.645  0.00  0.00    +0.000 NA
ATOM     33  N   UNL     1       1.570   3.919  21.150  0.00  0.00    +0.000 NA
ATOM     34  N   UNL     1       0.735   3.860  20.107  0.00  0.00    +0.000 N 
ATOM     35  N   UNL     1       1.246   4.222  18.923  0.00  0.00    +0.000 NA
ATOM     36  H   UNL     1      -0.236   3.584  20.215  0.00  0.00    +0.000 HD
ENDBRANCH  30  31
ENDBRANCH  22  25
ENDBRANCH   1  19
TORSDOF 7
ENDMDL
