MODEL 1
REMARK VINA RESULT:      -7.0      0.000      0.000
REMARK  Name = 
REMARK  9 active torsions:
REMARK  status: ('A' for Active; 'I' for Inactive)
REMARK    1  A    between atoms: C_1  and  C_2
REMARK    2  A    between atoms: C_5  and  C_6
REMARK    3  A    between atoms: C_7  and  O_8
REMARK    4  A    between atoms: O_8  and  C_9
REMARK    5  A    between atoms: C_9  and  C_10
REMARK    6  A    between atoms: C_10  and  O_11
REMARK    7  A    between atoms: C_10  and  C_12
REMARK    8  A    between atoms: C_12  and  N_13
REMARK    9  A    between atoms: N_13  and  C_14
REMARK                            x       y       z     vdW  Elec       q    Type
REMARK                         _______ _______ _______ _____ _____    ______ ____
ROOT
ATOM      1  C   UNL     1       6.981   4.959  17.670  0.00  0.00    +0.000 C 
ENDROOT
BRANCH   1   2
ATOM      2  O   UNL     1       8.132   4.154  17.375  0.00  0.00    +0.000 OA
ATOM      3  H   UNL     1       8.104   3.409  18.006  0.00  0.00    +0.000 HD
ENDBRANCH   1   2
BRANCH   1   4
ATOM      4  C   UNL     1       5.824   4.047  18.102  0.00  0.00    +0.000 C 
BRANCH   4   5
ATOM      5  O   UNL     1       4.581   4.663  17.739  0.00  0.00    +0.000 OA
BRANCH   5  12
ATOM      6  C   UNL     1       1.948   3.113  21.652  0.00  0.00    +0.000 C 
ATOM      7  C   UNL     1       2.329   4.174  20.664  0.00  0.00    +0.000 A 
ATOM      8  C   UNL     1       1.760   5.446  20.716  0.00  0.00    +0.000 A 
ATOM      9  C   UNL     1       2.139   6.424  19.794  0.00  0.00    +0.000 A 
ATOM     10  C   UNL     1       3.093   6.144  18.804  0.00  0.00    +0.000 A 
ATOM     11  C   UNL     1       3.494   7.218  17.832  0.00  0.00    +0.000 C 
ATOM     12  C   UNL     1       3.667   4.862  18.743  0.00  0.00    +0.000 A 
ATOM     13  C   UNL     1       3.282   3.891  19.673  0.00  0.00    +0.000 A 
ENDBRANCH   5  12
ENDBRANCH   4   5
ENDBRANCH   1   4
BRANCH   1  14
ATOM     14  C   UNL     1       6.648   5.813  16.432  0.00  0.00    +0.000 C 
BRANCH  14  15
ATOM     15  N   UNL     1       7.570   5.582  15.316  0.00  0.00    +0.000 NA
ATOM     16  H   UNL     1       8.490   5.331  15.678  0.00  0.00    +0.000 HD
BRANCH  15  17
ATOM     17  C   UNL     1       7.105   4.526  14.423  0.00  0.00    +0.000 C 
ATOM     18  C   UNL     1       5.586   4.416  14.283  0.00  0.00    +0.000 C 
ATOM     19  C   UNL     1       5.408   3.573  13.027  0.00  0.00    +0.000 C 
ATOM     20  C   UNL     1       6.611   3.896  12.142  0.00  0.00    +0.000 C 
ATOM     21  C   UNL     1       7.528   4.790  12.977  0.00  0.00    +0.000 C 
ENDBRANCH  15  17
ENDBRANCH  14  15
ENDBRANCH   1  14
TORSDOF 7
ENDMDL
MODEL 2
REMARK VINA RESULT:      -6.9      2.712      4.167
REMARK  Name = 
REMARK  9 active torsions:
REMARK  status: ('A' for Active; 'I' for Inactive)
REMARK    1  A    between atoms: C_1  and  C_2
REMARK    2  A    between atoms: C_5  and  C_6
REMARK    3  A    between atoms: C_7  and  O_8
REMARK    4  A    between atoms: O_8  and  C_9
REMARK    5  A    between atoms: C_9  and  C_10
REMARK    6  A    between atoms: C_10  and  O_11
REMARK    7  A    between atoms: C_10  and  C_12
REMARK    8  A    between atoms: C_12  and  N_13
REMARK    9  A    between atoms: N_13  and  C_14
REMARK                            x       y       z     vdW  Elec       q    Type
REMARK                         _______ _______ _______ _____ _____    ______ ____
ROOT
ATOM      1  C   UNL     1       4.223   3.219  18.589  0.00  0.00    +0.000 C 
ENDROOT
BRANCH   1   2
ATOM      2  O   UNL     1       4.881   2.303  19.478  0.00  0.00    +0.000 OA
ATOM      3  H   UNL     1       4.186   1.973  20.081  0.00  0.00    +0.000 HD
ENDBRANCH   1   2
BRANCH   1   4
ATOM      4  C   UNL     1       3.062   2.498  17.889  0.00  0.00    +0.000 C 
BRANCH   4   5
ATOM      5  O   UNL     1       1.837   3.180  18.190  0.00  0.00    +0.000 OA
BRANCH   5  12
ATOM      6  C   UNL     1       2.800   8.037  17.829  0.00  0.00    +0.000 C 
ATOM      7  C   UNL     1       2.407   6.833  18.632  0.00  0.00    +0.000 A 
ATOM      8  C   UNL     1       2.123   6.935  19.994  0.00  0.00    +0.000 A 
ATOM      9  C   UNL     1       1.745   5.804  20.719  0.00  0.00    +0.000 A 
ATOM     10  C   UNL     1       1.649   4.551  20.095  0.00  0.00    +0.000 A 
ATOM     11  C   UNL     1       1.229   3.351  20.896  0.00  0.00    +0.000 C 
ATOM     12  C   UNL     1       1.940   4.440  18.724  0.00  0.00    +0.000 A 
ATOM     13  C   UNL     1       2.314   5.581  18.006  0.00  0.00    +0.000 A 
ENDBRANCH   5  12
ENDBRANCH   4   5
ENDBRANCH   1   4
BRANCH   1  14
ATOM     14  C   UNL     1       5.265   3.784  17.606  0.00  0.00    +0.000 C 
BRANCH  14  15
ATOM     15  N   UNL     1       6.533   4.128  18.256  0.00  0.00    +0.000 NA
ATOM     16  H   UNL     1       7.308   3.715  17.736  0.00  0.00    +0.000 HD
BRANCH  15  17
ATOM     17  C   UNL     1       6.736   5.570  18.347  0.00  0.00    +0.000 C 
ATOM     18  C   UNL     1       8.034   6.002  19.031  0.00  0.00    +0.000 C 
ATOM     19  C   UNL     1       8.182   7.459  18.615  0.00  0.00    +0.000 C 
ATOM     20  C   UNL     1       7.537   7.561  17.233  0.00  0.00    +0.000 C 
ATOM     21  C   UNL     1       6.893   6.200  16.962  0.00  0.00    +0.000 C 
ENDBRANCH  15  17
ENDBRANCH  14  15
ENDBRANCH   1  14
TORSDOF 7
ENDMDL
MODEL 3
REMARK VINA RESULT:      -6.7      0.661      1.101
REMARK  Name = 
REMARK  9 active torsions:
REMARK  status: ('A' for Active; 'I' for Inactive)
REMARK    1  A    between atoms: C_1  and  C_2
REMARK    2  A    between atoms: C_5  and  C_6
REMARK    3  A    between atoms: C_7  and  O_8
REMARK    4  A    between atoms: O_8  and  C_9
REMARK    5  A    between atoms: C_9  and  C_10
REMARK    6  A    between atoms: C_10  and  O_11
REMARK    7  A    between atoms: C_10  and  C_12
REMARK    8  A    between atoms: C_12  and  N_13
REMARK    9  A    between atoms: N_13  and  C_14
REMARK                            x       y       z     vdW  Elec       q    Type
REMARK                         _______ _______ _______ _____ _____    ______ ____
ROOT
ATOM      1  C   UNL     1       6.772   4.807  17.706  0.00  0.00    +0.000 C 
ENDROOT
BRANCH   1   2
ATOM      2  O   UNL     1       7.901   4.769  18.591  0.00  0.00    +0.000 OA
ATOM      3  H   UNL     1       8.244   5.683  18.624  0.00  0.00    +0.000 HD
ENDBRANCH   1   2
BRANCH   1   4
ATOM      4  C   UNL     1       5.671   3.886  18.252  0.00  0.00    +0.000 C 
BRANCH   4   5
ATOM      5  O   UNL     1       4.392   4.392  17.844  0.00  0.00    +0.000 OA
BRANCH   5  12
ATOM      6  C   UNL     1       1.570   2.863  21.632  0.00  0.00    +0.000 C 
ATOM      7  C   UNL     1       2.038   3.934  20.692  0.00  0.00    +0.000 A 
ATOM      8  C   UNL     1       1.538   5.233  20.773  0.00  0.00    +0.000 A 
ATOM      9  C   UNL     1       1.997   6.218  19.897  0.00  0.00    +0.000 A 
ATOM     10  C   UNL     1       2.961   5.918  18.923  0.00  0.00    +0.000 A 
ATOM     11  C   UNL     1       3.447   7.000  18.000  0.00  0.00    +0.000 C 
ATOM     12  C   UNL     1       3.464   4.609  18.831  0.00  0.00    +0.000 A 
ATOM     13  C   UNL     1       3.000   3.630  19.716  0.00  0.00    +0.000 A 
ENDBRANCH   5  12
ENDBRANCH   4   5
ENDBRANCH   1   4
BRANCH   1  14
ATOM     14  C   UNL     1       7.241   4.416  16.293  0.00  0.00    +0.000 C 
BRANCH  14  15
ATOM     15  N   UNL     1       7.266   5.552  15.366  0.00  0.00    +0.000 NA
ATOM     16  H   UNL     1       8.220   5.904  15.282  0.00  0.00    +0.000 HD
BRANCH  15  17
ATOM     17  C   UNL     1       6.771   5.198  14.041  0.00  0.00    +0.000 C 
ATOM     18  C   UNL     1       7.848   5.033  12.968  0.00  0.00    +0.000 C 
ATOM     19  C   UNL     1       7.127   4.276  11.860  0.00  0.00    +0.000 C 
ATOM     20  C   UNL     1       6.084   3.410  12.565  0.00  0.00    +0.000 C 
ATOM     21  C   UNL     1       6.122   3.813  14.040  0.00  0.00    +0.000 C 
ENDBRANCH  15  17
ENDBRANCH  14  15
ENDBRANCH   1  14
TORSDOF 7
ENDMDL
MODEL 4
REMARK VINA RESULT:      -6.6      1.128      2.107
REMARK  Name = 
REMARK  9 active torsions:
REMARK  status: ('A' for Active; 'I' for Inactive)
REMARK    1  A    between atoms: C_1  and  C_2
REMARK    2  A    between atoms: C_5  and  C_6
REMARK    3  A    between atoms: C_7  and  O_8
REMARK    4  A    between atoms: O_8  and  C_9
REMARK    5  A    between atoms: C_9  and  C_10
REMARK    6  A    between atoms: C_10  and  O_11
REMARK    7  A    between atoms: C_10  and  C_12
REMARK    8  A    between atoms: C_12  and  N_13
REMARK    9  A    between atoms: N_13  and  C_14
REMARK                            x       y       z     vdW  Elec       q    Type
REMARK                         _______ _______ _______ _____ _____    ______ ____
ROOT
ATOM      1  C   UNL     1       6.034   4.991  17.365  0.00  0.00    +0.000 C 
ENDROOT
BRANCH   1   2
ATOM      2  O   UNL     1       7.298   4.333  17.535  0.00  0.00    +0.000 OA
ATOM      3  H   UNL     1       7.756   4.817  18.250  0.00  0.00    +0.000 HD
ENDBRANCH   1   2
BRANCH   1   4
ATOM      4  C   UNL     1       4.907   3.953  17.457  0.00  0.00    +0.000 C 
BRANCH   4   5
ATOM      5  O   UNL     1       4.671   3.638  18.836  0.00  0.00    +0.000 OA
BRANCH   5  12
ATOM      6  C   UNL     1       1.653   7.056  20.802  0.00  0.00    +0.000 C 
ATOM      7  C   UNL     1       1.931   5.652  20.353  0.00  0.00    +0.000 A 
ATOM      8  C   UNL     1       0.962   4.655  20.461  0.00  0.00    +0.000 A 
ATOM      9  C   UNL     1       1.236   3.358  20.025  0.00  0.00    +0.000 A 
ATOM     10  C   UNL     1       2.487   3.036  19.476  0.00  0.00    +0.000 A 
ATOM     11  C   UNL     1       2.753   1.635  19.002  0.00  0.00    +0.000 C 
ATOM     12  C   UNL     1       3.471   4.034  19.369  0.00  0.00    +0.000 A 
ATOM     13  C   UNL     1       3.184   5.332  19.807  0.00  0.00    +0.000 A 
ENDBRANCH   5  12
ENDBRANCH   4   5
ENDBRANCH   1   4
BRANCH   1  14
ATOM     14  C   UNL     1       6.050   5.749  16.024  0.00  0.00    +0.000 C 
BRANCH  14  15
ATOM     15  N   UNL     1       7.304   5.572  15.285  0.00  0.00    +0.000 NA
ATOM     16  H   UNL     1       8.047   5.306  15.931  0.00  0.00    +0.000 HD
BRANCH  15  17
ATOM     17  C   UNL     1       7.194   4.558  14.241  0.00  0.00    +0.000 C 
ATOM     18  C   UNL     1       5.764   4.142  13.890  0.00  0.00    +0.000 C 
ATOM     19  C   UNL     1       5.923   3.441  12.547  0.00  0.00    +0.000 C 
ATOM     20  C   UNL     1       7.109   4.123  11.865  0.00  0.00    +0.000 C 
ATOM     21  C   UNL     1       7.700   5.084  12.897  0.00  0.00    +0.000 C 
ENDBRANCH  15  17
ENDBRANCH  14  15
ENDBRANCH   1  14
TORSDOF 7
ENDMDL
MODEL 5
REMARK VINA RESULT:      -6.6      2.269      6.247
REMARK  Name = 
REMARK  9 active torsions:
REMARK  status: ('A' for Active; 'I' for Inactive)
REMARK    1  A    between atoms: C_1  and  C_2
REMARK    2  A    between atoms: C_5  and  C_6
REMARK    3  A    between atoms: C_7  and  O_8
REMARK    4  A    between atoms: O_8  and  C_9
REMARK    5  A    between atoms: C_9  and  C_10
REMARK    6  A    between atoms: C_10  and  O_11
REMARK    7  A    between atoms: C_10  and  C_12
REMARK    8  A    between atoms: C_12  and  N_13
REMARK    9  A    between atoms: N_13  and  C_14
REMARK                            x       y       z     vdW  Elec       q    Type
REMARK                         _______ _______ _______ _____ _____    ______ ____
ROOT
ATOM      1  C   UNL     1       2.177   2.894  18.963  0.00  0.00    +0.000 C 
ENDROOT
BRANCH   1   2
ATOM      2  O   UNL     1       2.615   2.352  20.217  0.00  0.00    +0.000 OA
ATOM      3  H   UNL     1       3.389   2.887  20.482  0.00  0.00    +0.000 HD
ENDBRANCH   1   2
BRANCH   1   4
ATOM      4  C   UNL     1       3.317   2.787  17.939  0.00  0.00    +0.000 C 
BRANCH   4   5
ATOM      5  O   UNL     1       4.409   3.612  18.366  0.00  0.00    +0.000 OA
BRANCH   5  12
ATOM      6  C   UNL     1       5.960   3.892  13.659  0.00  0.00    +0.000 C 
ATOM      7  C   UNL     1       6.076   4.276  15.104  0.00  0.00    +0.000 A 
ATOM      8  C   UNL     1       7.064   5.158  15.539  0.00  0.00    +0.000 A 
ATOM      9  C   UNL     1       7.145   5.512  16.887  0.00  0.00    +0.000 A 
ATOM     10  C   UNL     1       6.240   4.987  17.822  0.00  0.00    +0.000 A 
ATOM     11  C   UNL     1       6.341   5.395  19.265  0.00  0.00    +0.000 C 
ATOM     12  C   UNL     1       5.245   4.093  17.391  0.00  0.00    +0.000 A 
ATOM     13  C   UNL     1       5.171   3.747  16.037  0.00  0.00    +0.000 A 
ENDBRANCH   5  12
ENDBRANCH   4   5
ENDBRANCH   1   4
BRANCH   1  14
ATOM     14  C   UNL     1       1.703   4.342  19.192  0.00  0.00    +0.000 C 
BRANCH  14  15
ATOM     15  N   UNL     1       2.623   5.116  20.032  0.00  0.00    +0.000 NA
ATOM     16  H   UNL     1       3.529   4.648  20.068  0.00  0.00    +0.000 HD
BRANCH  15  17
ATOM     17  C   UNL     1       2.809   6.477  19.541  0.00  0.00    +0.000 C 
ATOM     18  C   UNL     1       2.565   6.665  18.042  0.00  0.00    +0.000 C 
ATOM     19  C   UNL     1       2.408   8.173  17.899  0.00  0.00    +0.000 C 
ATOM     20  C   UNL     1       1.802   8.651  19.218  0.00  0.00    +0.000 C 
ATOM     21  C   UNL     1       1.778   7.433  20.142  0.00  0.00    +0.000 C 
ENDBRANCH  15  17
ENDBRANCH  14  15
ENDBRANCH   1  14
TORSDOF 7
ENDMDL
MODEL 6
REMARK VINA RESULT:      -6.6      1.124      2.248
REMARK  Name = 
REMARK  9 active torsions:
REMARK  status: ('A' for Active; 'I' for Inactive)
REMARK    1  A    between atoms: C_1  and  C_2
REMARK    2  A    between atoms: C_5  and  C_6
REMARK    3  A    between atoms: C_7  and  O_8
REMARK    4  A    between atoms: O_8  and  C_9
REMARK    5  A    between atoms: C_9  and  C_10
REMARK    6  A    between atoms: C_10  and  O_11
REMARK    7  A    between atoms: C_10  and  C_12
REMARK    8  A    between atoms: C_12  and  N_13
REMARK    9  A    between atoms: N_13  and  C_14
REMARK                            x       y       z     vdW  Elec       q    Type
REMARK                         _______ _______ _______ _____ _____    ______ ____
ROOT
ATOM      1  C   UNL     1       6.493   5.264  17.619  0.00  0.00    +0.000 C 
ENDROOT
BRANCH   1   2
ATOM      2  O   UNL     1       7.511   5.894  18.409  0.00  0.00    +0.000 OA
ATOM      3  H   UNL     1       7.042   6.337  19.143  0.00  0.00    +0.000 HD
ENDBRANCH   1   2
BRANCH   1   4
ATOM      4  C   UNL     1       5.687   4.303  18.506  0.00  0.00    +0.000 C 
BRANCH   4   5
ATOM      5  O   UNL     1       4.380   4.130  17.943  0.00  0.00    +0.000 OA
BRANCH   5  12
ATOM      6  C   UNL     1       1.572   7.004  20.859  0.00  0.00    +0.000 C 
ATOM      7  C   UNL     1       1.887   5.677  20.235  0.00  0.00    +0.000 A 
ATOM      8  C   UNL     1       1.090   4.558  20.478  0.00  0.00    +0.000 A 
ATOM      9  C   UNL     1       1.393   3.336  19.876  0.00  0.00    +0.000 A 
ATOM     10  C   UNL     1       2.500   3.213  19.022  0.00  0.00    +0.000 A 
ATOM     11  C   UNL     1       2.797   1.888  18.376  0.00  0.00    +0.000 C 
ATOM     12  C   UNL     1       3.310   4.335  18.776  0.00  0.00    +0.000 A 
ATOM     13  C   UNL     1       2.995   5.556  19.383  0.00  0.00    +0.000 A 
ENDBRANCH   5  12
ENDBRANCH   4   5
ENDBRANCH   1   4
BRANCH   1  14
ATOM     14  C   UNL     1       7.162   4.564  16.421  0.00  0.00    +0.000 C 
BRANCH  14  15
ATOM     15  N   UNL     1       7.540   5.496  15.355  0.00  0.00    +0.000 NA
ATOM     16  H   UNL     1       8.553   5.487  15.234  0.00  0.00    +0.000 HD
BRANCH  15  17
ATOM     17  C   UNL     1       6.905   5.169  14.083  0.00  0.00    +0.000 C 
ATOM     18  C   UNL     1       7.860   5.041  12.895  0.00  0.00    +0.000 C 
ATOM     19  C   UNL     1       7.028   4.304  11.853  0.00  0.00    +0.000 C 
ATOM     20  C   UNL     1       6.073   3.412  12.646  0.00  0.00    +0.000 C 
ATOM     21  C   UNL     1       6.269   3.779  14.117  0.00  0.00    +0.000 C 
ENDBRANCH  15  17
ENDBRANCH  14  15
ENDBRANCH   1  14
TORSDOF 7
ENDMDL
MODEL 7
REMARK VINA RESULT:      -6.5      1.251      1.591
REMARK  Name = 
REMARK  9 active torsions:
REMARK  status: ('A' for Active; 'I' for Inactive)
REMARK    1  A    between atoms: C_1  and  C_2
REMARK    2  A    between atoms: C_5  and  C_6
REMARK    3  A    between atoms: C_7  and  O_8
REMARK    4  A    between atoms: O_8  and  C_9
REMARK    5  A    between atoms: C_9  and  C_10
REMARK    6  A    between atoms: C_10  and  O_11
REMARK    7  A    between atoms: C_10  and  C_12
REMARK    8  A    between atoms: C_12  and  N_13
REMARK    9  A    between atoms: N_13  and  C_14
REMARK                            x       y       z     vdW  Elec       q    Type
REMARK                         _______ _______ _______ _____ _____    ______ ____
ROOT
ATOM      1  C   UNL     1       5.466   4.305  17.397  0.00  0.00    +0.000 C 
ENDROOT
BRANCH   1   2
ATOM      2  O   UNL     1       6.003   3.742  18.604  0.00  0.00    +0.000 OA
ATOM      3  H   UNL     1       6.966   3.908  18.569  0.00  0.00    +0.000 HD
ENDBRANCH   1   2
BRANCH   1   4
ATOM      4  C   UNL     1       4.187   3.547  17.011  0.00  0.00    +0.000 C 
BRANCH   4   5
ATOM      5  O   UNL     1       3.059   4.416  17.179  0.00  0.00    +0.000 OA
BRANCH   5  12
ATOM      6  C   UNL     1       1.357   2.758  21.538  0.00  0.00    +0.000 C 
ATOM      7  C   UNL     1       1.757   3.879  20.626  0.00  0.00    +0.000 A 
ATOM      8  C   UNL     1       1.686   5.208  21.042  0.00  0.00    +0.000 A 
ATOM      9  C   UNL     1       2.076   6.235  20.181  0.00  0.00    +0.000 A 
ATOM     10  C   UNL     1       2.541   5.950  18.889  0.00  0.00    +0.000 A 
ATOM     11  C   UNL     1       2.966   7.074  17.986  0.00  0.00    +0.000 C 
ATOM     12  C   UNL     1       2.609   4.613  18.460  0.00  0.00    +0.000 A 
ATOM     13  C   UNL     1       2.218   3.591  19.332  0.00  0.00    +0.000 A 
ENDBRANCH   5  12
ENDBRANCH   4   5
ENDBRANCH   1   4
BRANCH   1  14
ATOM     14  C   UNL     1       6.551   4.255  16.306  0.00  0.00    +0.000 C 
BRANCH  14  15
ATOM     15  N   UNL     1       6.134   3.497  15.122  0.00  0.00    +0.000 NA
ATOM     16  H   UNL     1       5.154   3.229  15.215  0.00  0.00    +0.000 HD
BRANCH  15  17
ATOM     17  C   UNL     1       6.307   4.257  13.889  0.00  0.00    +0.000 C 
ATOM     18  C   UNL     1       7.612   5.048  13.791  0.00  0.00    +0.000 C 
ATOM     19  C   UNL     1       7.717   5.369  12.306  0.00  0.00    +0.000 C 
ATOM     20  C   UNL     1       7.034   4.208  11.584  0.00  0.00    +0.000 C 
ATOM     21  C   UNL     1       6.415   3.334  12.674  0.00  0.00    +0.000 C 
ENDBRANCH  15  17
ENDBRANCH  14  15
ENDBRANCH   1  14
TORSDOF 7
ENDMDL
MODEL 8
REMARK VINA RESULT:      -6.5      2.680      6.056
REMARK  Name = 
REMARK  9 active torsions:
REMARK  status: ('A' for Active; 'I' for Inactive)
REMARK    1  A    between atoms: C_1  and  C_2
REMARK    2  A    between atoms: C_5  and  C_6
REMARK    3  A    between atoms: C_7  and  O_8
REMARK    4  A    between atoms: O_8  and  C_9
REMARK    5  A    between atoms: C_9  and  C_10
REMARK    6  A    between atoms: C_10  and  O_11
REMARK    7  A    between atoms: C_10  and  C_12
REMARK    8  A    between atoms: C_12  and  N_13
REMARK    9  A    between atoms: N_13  and  C_14
REMARK                            x       y       z     vdW  Elec       q    Type
REMARK                         _______ _______ _______ _____ _____    ______ ____
ROOT
ATOM      1  C   UNL     1       2.547   5.926  20.240  0.00  0.00    +0.000 C 
ENDROOT
BRANCH   1   2
ATOM      2  O   UNL     1       2.069   7.210  20.669  0.00  0.00    +0.000 OA
ATOM      3  H   UNL     1       1.538   7.558  19.926  0.00  0.00    +0.000 HD
ENDBRANCH   1   2
BRANCH   1   4
ATOM      4  C   UNL     1       3.219   6.070  18.866  0.00  0.00    +0.000 C 
BRANCH   4   5
ATOM      5  O   UNL     1       4.642   6.036  19.035  0.00  0.00    +0.000 OA
BRANCH   5  12
ATOM      6  C   UNL     1       5.131   4.329  14.399  0.00  0.00    +0.000 C 
ATOM      7  C   UNL     1       5.697   4.621  15.756  0.00  0.00    +0.000 A 
ATOM      8  C   UNL     1       7.029   4.341  16.058  0.00  0.00    +0.000 A 
ATOM      9  C   UNL     1       7.539   4.633  17.324  0.00  0.00    +0.000 A 
ATOM     10  C   UNL     1       6.724   5.208  18.310  0.00  0.00    +0.000 A 
ATOM     11  C   UNL     1       7.301   5.524  19.662  0.00  0.00    +0.000 C 
ATOM     12  C   UNL     1       5.378   5.488  18.015  0.00  0.00    +0.000 A 
ATOM     13  C   UNL     1       4.878   5.194  16.742  0.00  0.00    +0.000 A 
ENDBRANCH   5  12
ENDBRANCH   4   5
ENDBRANCH   1   4
BRANCH   1  14
ATOM     14  C   UNL     1       1.366   4.938  20.235  0.00  0.00    +0.000 C 
BRANCH  14  15
ATOM     15  N   UNL     1       1.692   3.657  20.869  0.00  0.00    +0.000 NA
ATOM     16  H   UNL     1       0.891   3.328  21.408  0.00  0.00    +0.000 HD
BRANCH  15  17
ATOM     17  C   UNL     1       2.064   2.636  19.895  0.00  0.00    +0.000 C 
ATOM     18  C   UNL     1       1.614   2.913  18.460  0.00  0.00    +0.000 C 
ATOM     19  C   UNL     1       2.469   1.962  17.633  0.00  0.00    +0.000 C 
ATOM     20  C   UNL     1       3.780   1.811  18.405  0.00  0.00    +0.000 C 
ATOM     21  C   UNL     1       3.582   2.548  19.730  0.00  0.00    +0.000 C 
ENDBRANCH  15  17
ENDBRANCH  14  15
ENDBRANCH   1  14
TORSDOF 7
ENDMDL
MODEL 9
REMARK VINA RESULT:      -6.4      1.339      2.160
REMARK  Name = 
REMARK  9 active torsions:
REMARK  status: ('A' for Active; 'I' for Inactive)
REMARK    1  A    between atoms: C_1  and  C_2
REMARK    2  A    between atoms: C_5  and  C_6
REMARK    3  A    between atoms: C_7  and  O_8
REMARK    4  A    between atoms: O_8  and  C_9
REMARK    5  A    between atoms: C_9  and  C_10
REMARK    6  A    between atoms: C_10  and  O_11
REMARK    7  A    between atoms: C_10  and  C_12
REMARK    8  A    between atoms: C_12  and  N_13
REMARK    9  A    between atoms: N_13  and  C_14
REMARK                            x       y       z     vdW  Elec       q    Type
REMARK                         _______ _______ _______ _____ _____    ______ ____
ROOT
ATOM      1  C   UNL     1       7.413   5.346  18.025  0.00  0.00    +0.000 C 
ENDROOT
BRANCH   1   2
ATOM      2  O   UNL     1       8.074   4.074  18.083  0.00  0.00    +0.000 OA
ATOM      3  H   UNL     1       7.627   3.511  17.420  0.00  0.00    +0.000 HD
ENDBRANCH   1   2
BRANCH   1   4
ATOM      4  C   UNL     1       6.345   5.411  19.127  0.00  0.00    +0.000 C 
BRANCH   4   5
ATOM      5  O   UNL     1       5.544   4.223  19.073  0.00  0.00    +0.000 OA
BRANCH   5  12
ATOM      6  C   UNL     1       1.504   6.611  20.695  0.00  0.00    +0.000 C 
ATOM      7  C   UNL     1       2.151   5.493  19.932  0.00  0.00    +0.000 A 
ATOM      8  C   UNL     1       1.385   4.537  19.267  0.00  0.00    +0.000 A 
ATOM      9  C   UNL     1       2.007   3.512  18.552  0.00  0.00    +0.000 A 
ATOM     10  C   UNL     1       3.406   3.426  18.493  0.00  0.00    +0.000 A 
ATOM     11  C   UNL     1       4.051   2.320  17.706  0.00  0.00    +0.000 C 
ATOM     12  C   UNL     1       4.184   4.383  19.166  0.00  0.00    +0.000 A 
ATOM     13  C   UNL     1       3.550   5.408  19.878  0.00  0.00    +0.000 A 
ENDBRANCH   5  12
ENDBRANCH   4   5
ENDBRANCH   1   4
BRANCH   1  14
ATOM     14  C   UNL     1       6.835   5.536  16.610  0.00  0.00    +0.000 C 
BRANCH  14  15
ATOM     15  N   UNL     1       7.566   4.780  15.590  0.00  0.00    +0.000 NA
ATOM     16  H   UNL     1       7.633   3.802  15.871  0.00  0.00    +0.000 HD
BRANCH  15  17
ATOM     17  C   UNL     1       6.928   4.858  14.280  0.00  0.00    +0.000 C 
ATOM     18  C   UNL     1       7.889   4.984  13.097  0.00  0.00    +0.000 C 
ATOM     19  C   UNL     1       7.022   4.621  11.899  0.00  0.00    +0.000 C 
ATOM     20  C   UNL     1       5.992   3.622  12.425  0.00  0.00    +0.000 C 
ATOM     21  C   UNL     1       6.192   3.561  13.940  0.00  0.00    +0.000 C 
ENDBRANCH  15  17
ENDBRANCH  14  15
ENDBRANCH   1  14
TORSDOF 7
ENDMDL
