MODEL 1
REMARK VINA RESULT:      -8.1      0.000      0.000
REMARK  Name = 
REMARK  7 active torsions:
REMARK  status: ('A' for Active; 'I' for Inactive)
REMARK    1  A    between atoms: C_1  and  C_2
REMARK    2  A    between atoms: C_4  and  S_5
REMARK    3  A    between atoms: S_5  and  N_8
REMARK    4  A    between atoms: N_8  and  C_9
REMARK    5  A    between atoms: N_8  and  C_13
REMARK    6  A    between atoms: C_9  and  C_10
REMARK    7  A    between atoms: C_21  and  N_22
REMARK                            x       y       z     vdW  Elec       q    Type
REMARK                         _______ _______ _______ _____ _____    ______ ____
ROOT
ATOM      1  S   UNL     1       5.449   4.714  18.922  0.00  0.00    +0.000 S 
ATOM      2  O   UNL     1       5.280   3.307  19.250  0.00  0.00    +0.000 OA
ATOM      3  O   UNL     1       6.292   5.554  19.743  0.00  0.00    +0.000 OA
ENDROOT
BRANCH   1   7
ATOM      4  C   UNL     1       5.285   3.493  13.777  0.00  0.00    +0.000 C 
ATOM      5  C   UNL     1       5.962   4.193  14.919  0.00  0.00    +0.000 A 
ATOM      6  C   UNL     1       5.488   4.040  16.230  0.00  0.00    +0.000 A 
ATOM      7  C   UNL     1       6.097   4.744  17.275  0.00  0.00    +0.000 A 
ATOM      8  C   UNL     1       7.256   5.432  16.995  0.00  0.00    +0.000 A 
ATOM      9  N   UNL     1       7.721   5.622  15.734  0.00  0.00    +0.000 NA
ATOM     10  C   UNL     1       7.041   5.052  14.718  0.00  0.00    +0.000 A 
BRANCH  10  11
ATOM     11  N   UNL     1       7.403   5.485  13.447  0.00  0.00    +0.000 N 
ATOM     12  H   UNL     1       7.764   4.683  12.938  0.00  0.00    +0.000 HD
ATOM     13  H   UNL     1       6.671   5.972  12.954  0.00  0.00    +0.000 HD
ENDBRANCH  10  11
ENDBRANCH   1   7
BRANCH   1  14
ATOM     14  N   UNL     1       3.902   5.439  18.821  0.00  0.00    +0.000 N 
BRANCH  14  15
ATOM     15  C   UNL     1       2.778   4.601  19.093  0.00  0.00    +0.000 A 
ATOM     16  C   UNL     1       2.249   4.564  20.380  0.00  0.00    +0.000 A 
ATOM     17  C   UNL     1       1.152   3.746  20.658  0.00  0.00    +0.000 A 
ATOM     18  C   UNL     1       0.598   2.954  19.648  0.00  0.00    +0.000 A 
ATOM     19  C   UNL     1       1.130   2.983  18.362  0.00  0.00    +0.000 A 
ATOM     20  C   UNL     1       2.219   3.806  18.081  0.00  0.00    +0.000 A 
ENDBRANCH  14  15
BRANCH  14  21
ATOM     21  C   UNL     1       3.708   6.607  17.915  0.00  0.00    +0.000 C 
BRANCH  21  22
ATOM     22  C   UNL     1       2.314   7.185  18.107  0.00  0.00    +0.000 C 
ATOM     23  C   UNL     1       2.106   8.178  19.227  0.00  0.00    +0.000 C 
ATOM     24  C   UNL     1       1.896   8.605  17.803  0.00  0.00    +0.000 C 
ENDBRANCH  21  22
ENDBRANCH  14  21
ENDBRANCH   1  14
TORSDOF 6
ENDMDL
MODEL 2
REMARK VINA RESULT:      -8.1      0.036      1.032
REMARK  Name = 
REMARK  7 active torsions:
REMARK  status: ('A' for Active; 'I' for Inactive)
REMARK    1  A    between atoms: C_1  and  C_2
REMARK    2  A    between atoms: C_4  and  S_5
REMARK    3  A    between atoms: S_5  and  N_8
REMARK    4  A    between atoms: N_8  and  C_9
REMARK    5  A    between atoms: N_8  and  C_13
REMARK    6  A    between atoms: C_9  and  C_10
REMARK    7  A    between atoms: C_21  and  N_22
REMARK                            x       y       z     vdW  Elec       q    Type
REMARK                         _______ _______ _______ _____ _____    ______ ____
ROOT
ATOM      1  S   UNL     1       5.479   4.701  18.937  0.00  0.00    +0.000 S 
ATOM      2  O   UNL     1       5.303   3.292  19.258  0.00  0.00    +0.000 OA
ATOM      3  O   UNL     1       6.336   5.530  19.755  0.00  0.00    +0.000 OA
ENDROOT
BRANCH   1   7
ATOM      4  C   UNL     1       5.273   3.486  13.792  0.00  0.00    +0.000 C 
ATOM      5  C   UNL     1       5.958   4.188  14.929  0.00  0.00    +0.000 A 
ATOM      6  C   UNL     1       5.496   4.030  16.244  0.00  0.00    +0.000 A 
ATOM      7  C   UNL     1       6.112   4.736  17.284  0.00  0.00    +0.000 A 
ATOM      8  C   UNL     1       7.266   5.428  16.995  0.00  0.00    +0.000 A 
ATOM      9  N   UNL     1       7.719   5.622  15.730  0.00  0.00    +0.000 NA
ATOM     10  C   UNL     1       7.031   5.051  14.719  0.00  0.00    +0.000 A 
BRANCH  10  11
ATOM     11  N   UNL     1       7.381   5.487  13.446  0.00  0.00    +0.000 N 
ATOM     12  H   UNL     1       8.369   5.726  13.461  0.00  0.00    +0.000 HD
ATOM     13  H   UNL     1       7.138   4.843  12.709  0.00  0.00    +0.000 HD
ENDBRANCH  10  11
ENDBRANCH   1   7
BRANCH   1  14
ATOM     14  N   UNL     1       3.937   5.438  18.854  0.00  0.00    +0.000 N 
BRANCH  14  15
ATOM     15  C   UNL     1       2.808   4.603  19.121  0.00  0.00    +0.000 A 
ATOM     16  C   UNL     1       2.260   3.845  18.090  0.00  0.00    +0.000 A 
ATOM     17  C   UNL     1       1.154   3.030  18.339  0.00  0.00    +0.000 A 
ATOM     18  C   UNL     1       0.590   2.988  19.617  0.00  0.00    +0.000 A 
ATOM     19  C   UNL     1       1.131   3.751  20.647  0.00  0.00    +0.000 A 
ATOM     20  C   UNL     1       2.241   4.559  20.403  0.00  0.00    +0.000 A 
ENDBRANCH  14  15
BRANCH  14  21
ATOM     21  C   UNL     1       3.745   6.619  17.966  0.00  0.00    +0.000 C 
BRANCH  21  22
ATOM     22  C   UNL     1       2.338   7.170  18.132  0.00  0.00    +0.000 C 
ATOM     23  C   UNL     1       2.100   8.196  19.216  0.00  0.00    +0.000 C 
ATOM     24  C   UNL     1       1.887   8.568  17.777  0.00  0.00    +0.000 C 
ENDBRANCH  21  22
ENDBRANCH  14  21
ENDBRANCH   1  14
TORSDOF 6
ENDMDL
MODEL 3
REMARK VINA RESULT:      -7.8      0.896      3.161
REMARK  Name = 
REMARK  7 active torsions:
REMARK  status: ('A' for Active; 'I' for Inactive)
REMARK    1  A    between atoms: C_1  and  C_2
REMARK    2  A    between atoms: C_4  and  S_5
REMARK    3  A    between atoms: S_5  and  N_8
REMARK    4  A    between atoms: N_8  and  C_9
REMARK    5  A    between atoms: N_8  and  C_13
REMARK    6  A    between atoms: C_9  and  C_10
REMARK    7  A    between atoms: C_21  and  N_22
REMARK                            x       y       z     vdW  Elec       q    Type
REMARK                         _______ _______ _______ _____ _____    ______ ____
ROOT
ATOM      1  S   UNL     1       4.713   4.557  18.550  0.00  0.00    +0.000 S 
ATOM      2  O   UNL     1       4.701   3.149  18.921  0.00  0.00    +0.000 OA
ATOM      3  O   UNL     1       5.220   5.546  19.472  0.00  0.00    +0.000 OA
ENDROOT
BRANCH   1   7
ATOM      4  C   UNL     1       5.572   3.601  13.418  0.00  0.00    +0.000 C 
ATOM      5  C   UNL     1       6.017   4.223  14.710  0.00  0.00    +0.000 A 
ATOM      6  C   UNL     1       5.284   4.017  15.887  0.00  0.00    +0.000 A 
ATOM      7  C   UNL     1       5.682   4.650  17.071  0.00  0.00    +0.000 A 
ATOM      8  C   UNL     1       6.887   5.316  17.070  0.00  0.00    +0.000 A 
ATOM      9  N   UNL     1       7.602   5.555  15.940  0.00  0.00    +0.000 NA
ATOM     10  C   UNL     1       7.131   5.058  14.778  0.00  0.00    +0.000 A 
BRANCH  10  11
ATOM     11  N   UNL     1       7.751   5.543  13.633  0.00  0.00    +0.000 N 
ATOM     12  H   UNL     1       7.227   5.206  12.830  0.00  0.00    +0.000 HD
ATOM     13  H   UNL     1       7.885   6.542  13.629  0.00  0.00    +0.000 HD
ENDBRANCH  10  11
ENDBRANCH   1   7
BRANCH   1  14
ATOM     14  N   UNL     1       3.128   5.011  18.090  0.00  0.00    +0.000 N 
BRANCH  14  15
ATOM     15  C   UNL     1       2.608   6.210  18.667  0.00  0.00    +0.000 A 
ATOM     16  C   UNL     1       2.534   7.365  17.893  0.00  0.00    +0.000 A 
ATOM     17  C   UNL     1       2.030   8.543  18.448  0.00  0.00    +0.000 A 
ATOM     18  C   UNL     1       1.617   8.565  19.783  0.00  0.00    +0.000 A 
ATOM     19  C   UNL     1       1.697   7.414  20.561  0.00  0.00    +0.000 A 
ATOM     20  C   UNL     1       2.191   6.235  20.006  0.00  0.00    +0.000 A 
ENDBRANCH  14  15
BRANCH  14  21
ATOM     21  C   UNL     1       2.164   3.954  17.672  0.00  0.00    +0.000 C 
BRANCH  21  22
ATOM     22  C   UNL     1       1.246   3.602  18.832  0.00  0.00    +0.000 C 
ATOM     23  C   UNL     1       0.544   2.264  18.801  0.00  0.00    +0.000 C 
ATOM     24  C   UNL     1       1.524   2.567  19.897  0.00  0.00    +0.000 C 
ENDBRANCH  21  22
ENDBRANCH  14  21
ENDBRANCH   1  14
TORSDOF 6
ENDMDL
MODEL 4
REMARK VINA RESULT:      -7.8      0.901      3.037
REMARK  Name = 
REMARK  7 active torsions:
REMARK  status: ('A' for Active; 'I' for Inactive)
REMARK    1  A    between atoms: C_1  and  C_2
REMARK    2  A    between atoms: C_4  and  S_5
REMARK    3  A    between atoms: S_5  and  N_8
REMARK    4  A    between atoms: N_8  and  C_9
REMARK    5  A    between atoms: N_8  and  C_13
REMARK    6  A    between atoms: C_9  and  C_10
REMARK    7  A    between atoms: C_21  and  N_22
REMARK                            x       y       z     vdW  Elec       q    Type
REMARK                         _______ _______ _______ _____ _____    ______ ____
ROOT
ATOM      1  S   UNL     1       4.649   4.504  18.520  0.00  0.00    +0.000 S 
ATOM      2  O   UNL     1       4.594   3.088  18.852  0.00  0.00    +0.000 OA
ATOM      3  O   UNL     1       5.163   5.454  19.480  0.00  0.00    +0.000 OA
ENDROOT
BRANCH   1   7
ATOM      4  C   UNL     1       5.627   3.584  13.403  0.00  0.00    +0.000 C 
ATOM      5  C   UNL     1       6.039   4.202  14.708  0.00  0.00    +0.000 A 
ATOM      6  C   UNL     1       5.282   3.984  15.868  0.00  0.00    +0.000 A 
ATOM      7  C   UNL     1       5.649   4.613  17.064  0.00  0.00    +0.000 A 
ATOM      8  C   UNL     1       6.849   5.288  17.092  0.00  0.00    +0.000 A 
ATOM      9  N   UNL     1       7.586   5.539  15.980  0.00  0.00    +0.000 NA
ATOM     10  C   UNL     1       7.144   5.045  14.805  0.00  0.00    +0.000 A 
BRANCH  10  11
ATOM     11  N   UNL     1       7.786   5.541  13.676  0.00  0.00    +0.000 N 
ATOM     12  H   UNL     1       7.791   4.806  12.975  0.00  0.00    +0.000 HD
ATOM     13  H   UNL     1       7.406   6.412  13.336  0.00  0.00    +0.000 HD
ENDBRANCH  10  11
ENDBRANCH   1   7
BRANCH   1  14
ATOM     14  N   UNL     1       3.086   5.012  18.044  0.00  0.00    +0.000 N 
BRANCH  14  15
ATOM     15  C   UNL     1       2.602   6.231  18.611  0.00  0.00    +0.000 A 
ATOM     16  C   UNL     1       2.275   6.273  19.963  0.00  0.00    +0.000 A 
ATOM     17  C   UNL     1       1.798   7.458  20.526  0.00  0.00    +0.000 A 
ATOM     18  C   UNL     1       1.635   8.594  19.729  0.00  0.00    +0.000 A 
ATOM     19  C   UNL     1       1.955   8.553  18.375  0.00  0.00    +0.000 A 
ATOM     20  C   UNL     1       2.439   7.373  17.813  0.00  0.00    +0.000 A 
ENDBRANCH  14  15
BRANCH  14  21
ATOM     21  C   UNL     1       2.089   3.987  17.621  0.00  0.00    +0.000 C 
BRANCH  21  22
ATOM     22  C   UNL     1       1.159   3.660  18.779  0.00  0.00    +0.000 C 
ATOM     23  C   UNL     1       0.641   2.245  18.895  0.00  0.00    +0.000 C 
ATOM     24  C   UNL     1       1.507   2.815  19.981  0.00  0.00    +0.000 C 
ENDBRANCH  21  22
ENDBRANCH  14  21
ENDBRANCH   1  14
TORSDOF 6
ENDMDL
MODEL 5
REMARK VINA RESULT:      -7.5      2.034      6.149
REMARK  Name = 
REMARK  7 active torsions:
REMARK  status: ('A' for Active; 'I' for Inactive)
REMARK    1  A    between atoms: C_1  and  C_2
REMARK    2  A    between atoms: C_4  and  S_5
REMARK    3  A    between atoms: S_5  and  N_8
REMARK    4  A    between atoms: N_8  and  C_9
REMARK    5  A    between atoms: N_8  and  C_13
REMARK    6  A    between atoms: C_9  and  C_10
REMARK    7  A    between atoms: C_21  and  N_22
REMARK                            x       y       z     vdW  Elec       q    Type
REMARK                         _______ _______ _______ _____ _____    ______ ____
ROOT
ATOM      1  S   UNL     1       3.950   3.959  17.707  0.00  0.00    +0.000 S 
ATOM      2  O   UNL     1       4.475   3.105  18.762  0.00  0.00    +0.000 OA
ATOM      3  O   UNL     1       2.918   3.467  16.822  0.00  0.00    +0.000 OA
ENDROOT
BRANCH   1   7
ATOM      4  C   UNL     1       2.097   8.914  17.765  0.00  0.00    +0.000 C 
ATOM      5  C   UNL     1       2.439   7.652  18.503  0.00  0.00    +0.000 A 
ATOM      6  C   UNL     1       3.057   6.584  17.837  0.00  0.00    +0.000 A 
ATOM      7  C   UNL     1       3.317   5.394  18.528  0.00  0.00    +0.000 A 
ATOM      8  C   UNL     1       3.112   5.383  19.889  0.00  0.00    +0.000 A 
ATOM      9  N   UNL     1       2.489   6.391  20.554  0.00  0.00    +0.000 NA
ATOM     10  C   UNL     1       2.114   7.477  19.846  0.00  0.00    +0.000 A 
BRANCH  10  11
ATOM     11  N   UNL     1       1.263   8.351  20.513  0.00  0.00    +0.000 N 
ATOM     12  H   UNL     1       1.023   9.100  19.869  0.00  0.00    +0.000 HD
ATOM     13  H   UNL     1       0.457   7.908  20.924  0.00  0.00    +0.000 HD
ENDBRANCH  10  11
ENDBRANCH   1   7
BRANCH   1  14
ATOM     14  N   UNL     1       5.258   4.513  16.754  0.00  0.00    +0.000 N 
BRANCH  14  15
ATOM     15  C   UNL     1       6.206   5.370  17.394  0.00  0.00    +0.000 A 
ATOM     16  C   UNL     1       6.412   6.653  16.896  0.00  0.00    +0.000 A 
ATOM     17  C   UNL     1       7.338   7.497  17.512  0.00  0.00    +0.000 A 
ATOM     18  C   UNL     1       8.068   7.046  18.616  0.00  0.00    +0.000 A 
ATOM     19  C   UNL     1       7.869   5.761  19.110  0.00  0.00    +0.000 A 
ATOM     20  C   UNL     1       6.938   4.920  18.502  0.00  0.00    +0.000 A 
ENDBRANCH  14  15
BRANCH  14  21
ATOM     21  C   UNL     1       5.077   4.640  15.279  0.00  0.00    +0.000 C 
BRANCH  21  22
ATOM     22  C   UNL     1       6.230   3.960  14.556  0.00  0.00    +0.000 C 
ATOM     23  C   UNL     1       6.055   3.636  13.090  0.00  0.00    +0.000 C 
ATOM     24  C   UNL     1       7.123   4.599  13.519  0.00  0.00    +0.000 C 
ENDBRANCH  21  22
ENDBRANCH  14  21
ENDBRANCH   1  14
TORSDOF 6
ENDMDL
MODEL 6
REMARK VINA RESULT:      -7.4      2.037      6.100
REMARK  Name = 
REMARK  7 active torsions:
REMARK  status: ('A' for Active; 'I' for Inactive)
REMARK    1  A    between atoms: C_1  and  C_2
REMARK    2  A    between atoms: C_4  and  S_5
REMARK    3  A    between atoms: S_5  and  N_8
REMARK    4  A    between atoms: N_8  and  C_9
REMARK    5  A    between atoms: N_8  and  C_13
REMARK    6  A    between atoms: C_9  and  C_10
REMARK    7  A    between atoms: C_21  and  N_22
REMARK                            x       y       z     vdW  Elec       q    Type
REMARK                         _______ _______ _______ _____ _____    ______ ____
ROOT
ATOM      1  S   UNL     1       3.925   3.942  17.712  0.00  0.00    +0.000 S 
ATOM      2  O   UNL     1       4.466   3.108  18.775  0.00  0.00    +0.000 OA
ATOM      3  O   UNL     1       2.880   3.434  16.852  0.00  0.00    +0.000 OA
ENDROOT
BRANCH   1   7
ATOM      4  C   UNL     1       2.112   8.912  17.706  0.00  0.00    +0.000 C 
ATOM      5  C   UNL     1       2.446   7.658  18.461  0.00  0.00    +0.000 A 
ATOM      6  C   UNL     1       3.053   6.575  17.809  0.00  0.00    +0.000 A 
ATOM      7  C   UNL     1       3.306   5.393  18.515  0.00  0.00    +0.000 A 
ATOM      8  C   UNL     1       3.103   5.403  19.876  0.00  0.00    +0.000 A 
ATOM      9  N   UNL     1       2.490   6.424  20.528  0.00  0.00    +0.000 NA
ATOM     10  C   UNL     1       2.122   7.503  19.807  0.00  0.00    +0.000 A 
BRANCH  10  11
ATOM     11  N   UNL     1       1.280   8.393  20.464  0.00  0.00    +0.000 N 
ATOM     12  H   UNL     1       0.483   7.866  20.811  0.00  0.00    +0.000 HD
ATOM     13  H   UNL     1       1.735   8.942  21.177  0.00  0.00    +0.000 HD
ENDBRANCH  10  11
ENDBRANCH   1   7
BRANCH   1  14
ATOM     14  N   UNL     1       5.219   4.477  16.729  0.00  0.00    +0.000 N 
BRANCH  14  15
ATOM     15  C   UNL     1       6.177   5.344  17.338  0.00  0.00    +0.000 A 
ATOM     16  C   UNL     1       6.934   4.881  18.410  0.00  0.00    +0.000 A 
ATOM     17  C   UNL     1       7.870   5.722  19.016  0.00  0.00    +0.000 A 
ATOM     18  C   UNL     1       8.034   7.031  18.555  0.00  0.00    +0.000 A 
ATOM     19  C   UNL     1       7.273   7.499  17.488  0.00  0.00    +0.000 A 
ATOM     20  C   UNL     1       6.345   6.658  16.877  0.00  0.00    +0.000 A 
ENDBRANCH  14  15
BRANCH  14  21
ATOM     21  C   UNL     1       5.017   4.575  15.255  0.00  0.00    +0.000 C 
BRANCH  21  22
ATOM     22  C   UNL     1       6.191   3.941  14.527  0.00  0.00    +0.000 C 
ATOM     23  C   UNL     1       6.053   3.688  13.043  0.00  0.00    +0.000 C 
ATOM     24  C   UNL     1       7.102   4.638  13.543  0.00  0.00    +0.000 C 
ENDBRANCH  21  22
ENDBRANCH  14  21
ENDBRANCH   1  14
TORSDOF 6
ENDMDL
MODEL 7
REMARK VINA RESULT:      -7.0      1.888      5.166
REMARK  Name = 
REMARK  7 active torsions:
REMARK  status: ('A' for Active; 'I' for Inactive)
REMARK    1  A    between atoms: C_1  and  C_2
REMARK    2  A    between atoms: C_4  and  S_5
REMARK    3  A    between atoms: S_5  and  N_8
REMARK    4  A    between atoms: N_8  and  C_9
REMARK    5  A    between atoms: N_8  and  C_13
REMARK    6  A    between atoms: C_9  and  C_10
REMARK    7  A    between atoms: C_21  and  N_22
REMARK                            x       y       z     vdW  Elec       q    Type
REMARK                         _______ _______ _______ _____ _____    ______ ____
ROOT
ATOM      1  S   UNL     1       5.125   5.750  18.133  0.00  0.00    +0.000 S 
ATOM      2  O   UNL     1       6.088   6.501  17.340  0.00  0.00    +0.000 OA
ATOM      3  O   UNL     1       5.496   5.246  19.436  0.00  0.00    +0.000 OA
ENDROOT
BRANCH   1   7
ATOM      4  C   UNL     1       1.201   7.864  20.982  0.00  0.00    +0.000 C 
ATOM      5  C   UNL     1       1.978   7.799  19.699  0.00  0.00    +0.000 A 
ATOM      6  C   UNL     1       2.987   6.841  19.527  0.00  0.00    +0.000 A 
ATOM      7  C   UNL     1       3.739   6.830  18.346  0.00  0.00    +0.000 A 
ATOM      8  C   UNL     1       3.339   7.658  17.322  0.00  0.00    +0.000 A 
ATOM      9  N   UNL     1       2.386   8.615  17.470  0.00  0.00    +0.000 NA
ATOM     10  C   UNL     1       1.765   8.708  18.664  0.00  0.00    +0.000 A 
BRANCH  10  11
ATOM     11  N   UNL     1       0.996   9.852  18.843  0.00  0.00    +0.000 N 
ATOM     12  H   UNL     1       0.402   9.956  18.025  0.00  0.00    +0.000 HD
ATOM     13  H   UNL     1       0.483   9.872  19.711  0.00  0.00    +0.000 HD
ENDBRANCH  10  11
ENDBRANCH   1   7
BRANCH   1  14
ATOM     14  N   UNL     1       4.549   4.441  17.193  0.00  0.00    +0.000 N 
BRANCH  14  15
ATOM     15  C   UNL     1       3.462   3.687  17.734  0.00  0.00    +0.000 A 
ATOM     16  C   UNL     1       2.158   4.134  17.543  0.00  0.00    +0.000 A 
ATOM     17  C   UNL     1       1.090   3.407  18.071  0.00  0.00    +0.000 A 
ATOM     18  C   UNL     1       1.332   2.242  18.803  0.00  0.00    +0.000 A 
ATOM     19  C   UNL     1       2.635   1.797  19.003  0.00  0.00    +0.000 A 
ATOM     20  C   UNL     1       3.703   2.517  18.469  0.00  0.00    +0.000 A 
ENDBRANCH  14  15
BRANCH  14  21
ATOM     21  C   UNL     1       5.483   3.757  16.254  0.00  0.00    +0.000 C 
BRANCH  21  22
ATOM     22  C   UNL     1       5.453   4.447  14.899  0.00  0.00    +0.000 C 
ATOM     23  C   UNL     1       6.773   4.826  14.267  0.00  0.00    +0.000 C 
ATOM     24  C   UNL     1       5.876   3.834  13.585  0.00  0.00    +0.000 C 
ENDBRANCH  21  22
ENDBRANCH  14  21
ENDBRANCH   1  14
TORSDOF 6
ENDMDL
MODEL 8
REMARK VINA RESULT:      -6.9      1.892      5.162
REMARK  Name = 
REMARK  7 active torsions:
REMARK  status: ('A' for Active; 'I' for Inactive)
REMARK    1  A    between atoms: C_1  and  C_2
REMARK    2  A    between atoms: C_4  and  S_5
REMARK    3  A    between atoms: S_5  and  N_8
REMARK    4  A    between atoms: N_8  and  C_9
REMARK    5  A    between atoms: N_8  and  C_13
REMARK    6  A    between atoms: C_9  and  C_10
REMARK    7  A    between atoms: C_21  and  N_22
REMARK                            x       y       z     vdW  Elec       q    Type
REMARK                         _______ _______ _______ _____ _____    ______ ____
ROOT
ATOM      1  S   UNL     1       5.093   5.773  18.188  0.00  0.00    +0.000 S 
ATOM      2  O   UNL     1       6.061   6.524  17.403  0.00  0.00    +0.000 OA
ATOM      3  O   UNL     1       5.454   5.266  19.493  0.00  0.00    +0.000 OA
ENDROOT
BRANCH   1   7
ATOM      4  C   UNL     1       1.160   7.896  21.019  0.00  0.00    +0.000 C 
ATOM      5  C   UNL     1       1.940   7.826  19.738  0.00  0.00    +0.000 A 
ATOM      6  C   UNL     1       2.951   6.868  19.572  0.00  0.00    +0.000 A 
ATOM      7  C   UNL     1       3.705   6.852  18.393  0.00  0.00    +0.000 A 
ATOM      8  C   UNL     1       3.306   7.676  17.365  0.00  0.00    +0.000 A 
ATOM      9  N   UNL     1       2.353   8.632  17.507  0.00  0.00    +0.000 NA
ATOM     10  C   UNL     1       1.729   8.730  18.699  0.00  0.00    +0.000 A 
BRANCH  10  11
ATOM     11  N   UNL     1       0.959   9.874  18.871  0.00  0.00    +0.000 N 
ATOM     12  H   UNL     1       1.061  10.174  19.838  0.00  0.00    +0.000 HD
ATOM     13  H   UNL     1       1.154  10.606  18.206  0.00  0.00    +0.000 HD
ENDBRANCH  10  11
ENDBRANCH   1   7
BRANCH   1  14
ATOM     14  N   UNL     1       4.523   4.466  17.242  0.00  0.00    +0.000 N 
BRANCH  14  15
ATOM     15  C   UNL     1       3.429   3.714  17.772  0.00  0.00    +0.000 A 
ATOM     16  C   UNL     1       3.683   2.541  18.476  0.00  0.00    +0.000 A 
ATOM     17  C   UNL     1       2.622   1.797  18.994  0.00  0.00    +0.000 A 
ATOM     18  C   UNL     1       1.306   2.223  18.793  0.00  0.00    +0.000 A 
ATOM     19  C   UNL     1       1.048   3.392  18.083  0.00  0.00    +0.000 A 
ATOM     20  C   UNL     1       2.108   4.140  17.572  0.00  0.00    +0.000 A 
ENDBRANCH  14  15
BRANCH  14  21
ATOM     21  C   UNL     1       5.464   3.779  16.313  0.00  0.00    +0.000 C 
BRANCH  21  22
ATOM     22  C   UNL     1       5.443   4.464  14.955  0.00  0.00    +0.000 C 
ATOM     23  C   UNL     1       6.767   4.830  14.324  0.00  0.00    +0.000 C 
ATOM     24  C   UNL     1       5.865   3.842  13.645  0.00  0.00    +0.000 C 
ENDBRANCH  21  22
ENDBRANCH  14  21
ENDBRANCH   1  14
TORSDOF 6
ENDMDL
MODEL 9
REMARK VINA RESULT:      -6.9      0.812      2.894
REMARK  Name = 
REMARK  7 active torsions:
REMARK  status: ('A' for Active; 'I' for Inactive)
REMARK    1  A    between atoms: C_1  and  C_2
REMARK    2  A    between atoms: C_4  and  S_5
REMARK    3  A    between atoms: S_5  and  N_8
REMARK    4  A    between atoms: N_8  and  C_9
REMARK    5  A    between atoms: N_8  and  C_13
REMARK    6  A    between atoms: C_9  and  C_10
REMARK    7  A    between atoms: C_21  and  N_22
REMARK                            x       y       z     vdW  Elec       q    Type
REMARK                         _______ _______ _______ _____ _____    ______ ____
ROOT
ATOM      1  S   UNL     1       5.442   4.592  19.040  0.00  0.00    +0.000 S 
ATOM      2  O   UNL     1       5.792   3.274  19.548  0.00  0.00    +0.000 OA
ATOM      3  O   UNL     1       5.920   5.778  19.713  0.00  0.00    +0.000 OA
ENDROOT
BRANCH   1   7
ATOM      4  C   UNL     1       4.993   3.681  13.848  0.00  0.00    +0.000 C 
ATOM      5  C   UNL     1       5.780   4.234  15.001  0.00  0.00    +0.000 A 
ATOM      6  C   UNL     1       5.327   4.065  16.317  0.00  0.00    +0.000 A 
ATOM      7  C   UNL     1       6.044   4.635  17.376  0.00  0.00    +0.000 A 
ATOM      8  C   UNL     1       7.269   5.197  17.093  0.00  0.00    +0.000 A 
ATOM      9  N   UNL     1       7.718   5.399  15.828  0.00  0.00    +0.000 NA
ATOM     10  C   UNL     1       6.947   4.970  14.807  0.00  0.00    +0.000 A 
BRANCH  10  11
ATOM     11  N   UNL     1       7.324   5.426  13.549  0.00  0.00    +0.000 N 
ATOM     12  H   UNL     1       7.005   4.745  12.865  0.00  0.00    +0.000 HD
ATOM     13  H   UNL     1       7.021   6.366  13.345  0.00  0.00    +0.000 HD
ENDBRANCH  10  11
ENDBRANCH   1   7
BRANCH   1  14
ATOM     14  N   UNL     1       3.739   4.693  18.916  0.00  0.00    +0.000 N 
BRANCH  14  15
ATOM     15  C   UNL     1       3.171   6.003  18.876  0.00  0.00    +0.000 A 
ATOM     16  C   UNL     1       2.422   6.456  19.958  0.00  0.00    +0.000 A 
ATOM     17  C   UNL     1       1.859   7.734  19.928  0.00  0.00    +0.000 A 
ATOM     18  C   UNL     1       2.035   8.548  18.806  0.00  0.00    +0.000 A 
ATOM     19  C   UNL     1       2.777   8.094  17.719  0.00  0.00    +0.000 A 
ATOM     20  C   UNL     1       3.346   6.823  17.751  0.00  0.00    +0.000 A 
ENDBRANCH  14  15
BRANCH  14  21
ATOM     21  C   UNL     1       2.906   3.580  19.455  0.00  0.00    +0.000 C 
BRANCH  21  22
ATOM     22  C   UNL     1       2.031   3.006  18.352  0.00  0.00    +0.000 C 
ATOM     23  C   UNL     1       0.568   2.777  18.653  0.00  0.00    +0.000 C 
ATOM     24  C   UNL     1       0.966   3.757  17.588  0.00  0.00    +0.000 C 
ENDBRANCH  21  22
ENDBRANCH  14  21
ENDBRANCH   1  14
TORSDOF 6
ENDMDL
