MODEL 1
REMARK VINA RESULT:      -8.2      0.000      0.000
REMARK  Name = 
REMARK  10 active torsions:
REMARK  status: ('A' for Active; 'I' for Inactive)
REMARK    1  A    between atoms: C_1  and  O_2
REMARK    2  A    between atoms: O_2  and  C_3
REMARK    3  A    between atoms: C_3  and  C_5
REMARK    4  A    between atoms: C_6  and  N_7
REMARK    5  A    between atoms: C_8  and  C_10
REMARK    6  A    between atoms: C_10  and  S_11
REMARK    7  A    between atoms: S_11  and  C_12
REMARK    8  A    between atoms: N_16  and  C_17
REMARK    9  A    between atoms: C_27  and  C_28
REMARK   10  A    between atoms: C_29  and  C_30
REMARK                            x       y       z     vdW  Elec       q    Type
REMARK                         _______ _______ _______ _____ _____    ______ ____
ROOT
ATOM      1  C   UNL     1       1.467   8.285  21.506  0.00  0.00    +0.000 C 
ENDROOT
BRANCH   1   3
ATOM      2  N   UNL     1       2.270   6.297  20.346  0.00  0.00    +0.000 N 
ATOM      3  C   UNL     1       1.855   7.617  20.192  0.00  0.00    +0.000 C 
ATOM      4  O   UNL     1       1.803   8.266  19.149  0.00  0.00    +0.000 OA
ATOM      5  H   UNL     1       2.270   5.902  21.283  0.00  0.00    +0.000 HD
BRANCH   2   7
ATOM      6  C   UNL     1       2.256   4.173  19.015  0.00  0.00    +0.000 A 
ATOM      7  C   UNL     1       2.734   5.438  19.349  0.00  0.00    +0.000 A 
ATOM      8  S   UNL     1       4.051   5.896  18.379  0.00  0.00    +0.000 S 
ATOM      9  C   UNL     1       4.042   4.445  17.498  0.00  0.00    +0.000 A 
ATOM     10  C   UNL     1       5.056   4.234  16.422  0.00  0.00    +0.000 C 
ATOM     11  C   UNL     1       3.035   3.592  17.917  0.00  0.00    +0.000 A 
ATOM     12  C   UNL     1       2.778   2.241  17.319  0.00  0.00    +0.000 C 
BRANCH   6  13
ATOM     13  C   UNL     1       1.127   3.482  19.657  0.00  0.00    +0.000 C 
ATOM     14  O   UNL     1       0.292   2.829  19.037  0.00  0.00    +0.000 OA
BRANCH  13  16
ATOM     15  C   UNL     1       1.893   2.685  21.717  0.00  0.00    +0.000 C 
ATOM     16  O   UNL     1       1.086   3.640  21.019  0.00  0.00    +0.000 OA
ENDBRANCH  13  16
ENDBRANCH   6  13
ENDBRANCH   2   7
ENDBRANCH   1   3
BRANCH   1  17
ATOM     17  S   UNL     1      -0.166   9.040  21.292  0.00  0.00    +0.000 S 
BRANCH  17  18
ATOM     18  C   UNL     1       0.233  10.698  20.974  0.00  0.00    +0.000 A 
ATOM     19  N   UNL     1       1.167  11.387  21.588  0.00  0.00    +0.000 NA
ATOM     20  N   UNL     1       1.388  12.493  20.806  0.00  0.00    +0.000 NA
ATOM     21  N   UNL     1       0.628  12.473  19.719  0.00  0.00    +0.000 NA
ATOM     22  N   UNL     1      -0.194  11.404  19.857  0.00  0.00    +0.000 N 
BRANCH  22  23
ATOM     23  C   UNL     1      -1.271  11.179  18.964  0.00  0.00    +0.000 A 
ATOM     24  C   UNL     1      -1.122  10.296  17.870  0.00  0.00    +0.000 A 
ATOM     25  C   UNL     1      -2.177  10.083  16.978  0.00  0.00    +0.000 A 
ATOM     26  C   UNL     1      -3.348  10.772  17.194  0.00  0.00    +0.000 A 
ATOM     27  C   UNL     1      -3.504  11.619  18.267  0.00  0.00    +0.000 A 
ATOM     28  C   UNL     1      -2.497  11.826  19.189  0.00  0.00    +0.000 A 
ATOM     29  O   UNL     1      -4.730  12.209  18.281  0.00  0.00    +0.000 OA
ATOM     30  C   UNL     1      -5.308  11.667  17.074  0.00  0.00    +0.000 C 
ATOM     31  O   UNL     1      -4.456  10.712  16.410  0.00  0.00    +0.000 OA
ENDBRANCH  22  23
ENDBRANCH  17  18
ENDBRANCH   1  17
TORSDOF 7
ENDMDL
MODEL 2
REMARK VINA RESULT:      -7.9      6.976     10.622
REMARK  Name = 
REMARK  10 active torsions:
REMARK  status: ('A' for Active; 'I' for Inactive)
REMARK    1  A    between atoms: C_1  and  O_2
REMARK    2  A    between atoms: O_2  and  C_3
REMARK    3  A    between atoms: C_3  and  C_5
REMARK    4  A    between atoms: C_6  and  N_7
REMARK    5  A    between atoms: C_8  and  C_10
REMARK    6  A    between atoms: C_10  and  S_11
REMARK    7  A    between atoms: S_11  and  C_12
REMARK    8  A    between atoms: N_16  and  C_17
REMARK    9  A    between atoms: C_27  and  C_28
REMARK   10  A    between atoms: C_29  and  C_30
REMARK                            x       y       z     vdW  Elec       q    Type
REMARK                         _______ _______ _______ _____ _____    ______ ____
ROOT
ATOM      1  C   UNL     1       8.344   8.014  18.012  0.00  0.00    +0.000 C 
ENDROOT
BRANCH   1   3
ATOM      2  N   UNL     1       9.229   9.766  19.458  0.00  0.00    +0.000 N 
ATOM      3  C   UNL     1       8.473   9.501  18.319  0.00  0.00    +0.000 C 
ATOM      4  O   UNL     1       7.907  10.317  17.593  0.00  0.00    +0.000 OA
ATOM      5  H   UNL     1       9.624   8.977  19.963  0.00  0.00    +0.000 HD
BRANCH   2   7
ATOM      6  C   UNL     1      10.349  12.006  19.566  0.00  0.00    +0.000 A 
ATOM      7  C   UNL     1       9.487  11.013  20.028  0.00  0.00    +0.000 A 
ATOM      8  S   UNL     1       8.712  11.464  21.470  0.00  0.00    +0.000 S 
ATOM      9  C   UNL     1       9.491  12.970  21.542  0.00  0.00    +0.000 A 
ATOM     10  C   UNL     1       9.205  13.891  22.682  0.00  0.00    +0.000 C 
ATOM     11  C   UNL     1      10.345  13.162  20.469  0.00  0.00    +0.000 A 
ATOM     12  C   UNL     1      11.163  14.401  20.260  0.00  0.00    +0.000 C 
BRANCH   6  13
ATOM     13  C   UNL     1      11.169  11.936  18.347  0.00  0.00    +0.000 C 
ATOM     14  O   UNL     1      12.263  11.381  18.299  0.00  0.00    +0.000 OA
BRANCH  13  16
ATOM     15  C   UNL     1      11.498  13.451  16.597  0.00  0.00    +0.000 C 
ATOM     16  O   UNL     1      10.600  12.557  17.264  0.00  0.00    +0.000 OA
ENDBRANCH  13  16
ENDBRANCH   6  13
ENDBRANCH   2   7
ENDBRANCH   1   3
BRANCH   1  17
ATOM     17  S   UNL     1       6.585   7.635  17.800  0.00  0.00    +0.000 S 
BRANCH  17  18
ATOM     18  C   UNL     1       6.629   6.251  16.756  0.00  0.00    +0.000 A 
ATOM     19  N   UNL     1       7.519   6.035  15.815  0.00  0.00    +0.000 NA
ATOM     20  N   UNL     1       7.407   4.705  15.495  0.00  0.00    +0.000 NA
ATOM     21  N   UNL     1       6.488   4.107  16.241  0.00  0.00    +0.000 NA
ATOM     22  N   UNL     1       5.901   5.088  16.970  0.00  0.00    +0.000 N 
BRANCH  22  23
ATOM     23  C   UNL     1       4.743   4.839  17.747  0.00  0.00    +0.000 A 
ATOM     24  C   UNL     1       3.550   5.558  17.506  0.00  0.00    +0.000 A 
ATOM     25  C   UNL     1       2.410   5.328  18.282  0.00  0.00    +0.000 A 
ATOM     26  C   UNL     1       2.499   4.395  19.290  0.00  0.00    +0.000 A 
ATOM     27  C   UNL     1       3.652   3.680  19.517  0.00  0.00    +0.000 A 
ATOM     28  C   UNL     1       4.786   3.855  18.749  0.00  0.00    +0.000 A 
ATOM     29  O   UNL     1       3.527   2.826  20.570  0.00  0.00    +0.000 OA
ATOM     30  C   UNL     1       2.180   3.117  21.000  0.00  0.00    +0.000 C 
ATOM     31  O   UNL     1       1.503   4.072  20.157  0.00  0.00    +0.000 OA
ENDBRANCH  22  23
ENDBRANCH  17  18
ENDBRANCH   1  17
TORSDOF 7
ENDMDL
MODEL 3
REMARK VINA RESULT:      -7.7      2.851      8.688
REMARK  Name = 
REMARK  10 active torsions:
REMARK  status: ('A' for Active; 'I' for Inactive)
REMARK    1  A    between atoms: C_1  and  O_2
REMARK    2  A    between atoms: O_2  and  C_3
REMARK    3  A    between atoms: C_3  and  C_5
REMARK    4  A    between atoms: C_6  and  N_7
REMARK    5  A    between atoms: C_8  and  C_10
REMARK    6  A    between atoms: C_10  and  S_11
REMARK    7  A    between atoms: S_11  and  C_12
REMARK    8  A    between atoms: N_16  and  C_17
REMARK    9  A    between atoms: C_27  and  C_28
REMARK   10  A    between atoms: C_29  and  C_30
REMARK                            x       y       z     vdW  Elec       q    Type
REMARK                         _______ _______ _______ _____ _____    ______ ____
ROOT
ATOM      1  C   UNL     1       3.294   7.595  17.212  0.00  0.00    +0.000 C 
ENDROOT
BRANCH   1   3
ATOM      2  N   UNL     1       1.843   8.935  18.641  0.00  0.00    +0.000 N 
ATOM      3  C   UNL     1       2.521   7.725  18.519  0.00  0.00    +0.000 C 
ATOM      4  O   UNL     1       2.573   6.813  19.342  0.00  0.00    +0.000 OA
ATOM      5  H   UNL     1       1.909   9.599  17.874  0.00  0.00    +0.000 HD
BRANCH   2   7
ATOM      6  C   UNL     1       0.143  10.393  19.767  0.00  0.00    +0.000 A 
ATOM      7  C   UNL     1       1.094   9.375  19.733  0.00  0.00    +0.000 A 
ATOM      8  S   UNL     1       1.305   8.652  21.255  0.00  0.00    +0.000 S 
ATOM      9  C   UNL     1       0.166   9.658  22.009  0.00  0.00    +0.000 A 
ATOM     10  C   UNL     1      -0.102   9.498  23.470  0.00  0.00    +0.000 C 
ATOM     11  C   UNL     1      -0.402  10.553  21.119  0.00  0.00    +0.000 A 
ATOM     12  C   UNL     1      -1.446  11.562  21.496  0.00  0.00    +0.000 C 
BRANCH   6  13
ATOM     13  C   UNL     1      -0.279  11.217  18.623  0.00  0.00    +0.000 C 
ATOM     14  O   UNL     1      -0.013  12.410  18.516  0.00  0.00    +0.000 OA
BRANCH  13  16
ATOM     15  C   UNL     1      -2.369  10.956  17.611  0.00  0.00    +0.000 C 
ATOM     16  O   UNL     1      -1.005  10.528  17.686  0.00  0.00    +0.000 OA
ENDBRANCH  13  16
ENDBRANCH   6  13
ENDBRANCH   2   7
ENDBRANCH   1   3
BRANCH   1  17
ATOM     17  S   UNL     1       4.971   7.032  17.604  0.00  0.00    +0.000 S 
BRANCH  17  18
ATOM     18  C   UNL     1       5.155   5.662  16.556  0.00  0.00    +0.000 A 
ATOM     19  N   UNL     1       5.959   5.598  15.520  0.00  0.00    +0.000 NA
ATOM     20  N   UNL     1       6.061   4.266  15.211  0.00  0.00    +0.000 NA
ATOM     21  N   UNL     1       5.358   3.521  16.053  0.00  0.00    +0.000 NA
ATOM     22  N   UNL     1       4.684   4.388  16.847  0.00  0.00    +0.000 N 
BRANCH  22  23
ATOM     23  C   UNL     1       3.687   3.944  17.749  0.00  0.00    +0.000 A 
ATOM     24  C   UNL     1       2.327   3.928  17.363  0.00  0.00    +0.000 A 
ATOM     25  C   UNL     1       1.337   3.504  18.256  0.00  0.00    +0.000 A 
ATOM     26  C   UNL     1       1.734   3.124  19.518  0.00  0.00    +0.000 A 
ATOM     27  C   UNL     1       3.057   3.121  19.892  0.00  0.00    +0.000 A 
ATOM     28  C   UNL     1       4.065   3.498  19.027  0.00  0.00    +0.000 A 
ATOM     29  O   UNL     1       3.224   2.727  21.185  0.00  0.00    +0.000 OA
ATOM     30  C   UNL     1       1.852   2.523  21.587  0.00  0.00    +0.000 C 
ATOM     31  O   UNL     1       0.906   2.720  20.517  0.00  0.00    +0.000 OA
ENDBRANCH  22  23
ENDBRANCH  17  18
ENDBRANCH   1  17
TORSDOF 7
ENDMDL
MODEL 4
REMARK VINA RESULT:      -7.7      6.980      8.691
REMARK  Name = 
REMARK  10 active torsions:
REMARK  status: ('A' for Active; 'I' for Inactive)
REMARK    1  A    between atoms: C_1  and  O_2
REMARK    2  A    between atoms: O_2  and  C_3
REMARK    3  A    between atoms: C_3  and  C_5
REMARK    4  A    between atoms: C_6  and  N_7
REMARK    5  A    between atoms: C_8  and  C_10
REMARK    6  A    between atoms: C_10  and  S_11
REMARK    7  A    between atoms: S_11  and  C_12
REMARK    8  A    between atoms: N_16  and  C_17
REMARK    9  A    between atoms: C_27  and  C_28
REMARK   10  A    between atoms: C_29  and  C_30
REMARK                            x       y       z     vdW  Elec       q    Type
REMARK                         _______ _______ _______ _____ _____    ______ ____
ROOT
ATOM      1  C   UNL     1       8.529   9.500  17.534  0.00  0.00    +0.000 C 
ENDROOT
BRANCH   1   3
ATOM      2  N   UNL     1       6.661   7.990  17.115  0.00  0.00    +0.000 N 
ATOM      3  C   UNL     1       7.827   8.184  17.850  0.00  0.00    +0.000 C 
ATOM      4  O   UNL     1       8.301   7.441  18.707  0.00  0.00    +0.000 OA
ATOM      5  H   UNL     1       6.391   8.709  16.448  0.00  0.00    +0.000 HD
BRANCH   2   7
ATOM      6  C   UNL     1       5.999   5.584  16.883  0.00  0.00    +0.000 A 
ATOM      7  C   UNL     1       5.772   6.919  17.211  0.00  0.00    +0.000 A 
ATOM      8  S   UNL     1       4.190   7.175  17.773  0.00  0.00    +0.000 S 
ATOM      9  C   UNL     1       3.749   5.546  17.593  0.00  0.00    +0.000 A 
ATOM     10  C   UNL     1       2.362   5.118  17.945  0.00  0.00    +0.000 C 
ATOM     11  C   UNL     1       4.796   4.778  17.113  0.00  0.00    +0.000 A 
ATOM     12  C   UNL     1       4.705   3.302  16.861  0.00  0.00    +0.000 C 
BRANCH   6  13
ATOM     13  C   UNL     1       7.260   5.025  16.370  0.00  0.00    +0.000 C 
ATOM     14  O   UNL     1       7.963   4.247  17.007  0.00  0.00    +0.000 OA
BRANCH  13  16
ATOM     15  C   UNL     1       6.930   4.715  14.076  0.00  0.00    +0.000 C 
ATOM     16  O   UNL     1       7.583   5.460  15.110  0.00  0.00    +0.000 OA
ENDBRANCH  13  16
ENDBRANCH   6  13
ENDBRANCH   2   7
ENDBRANCH   1   3
BRANCH   1  17
ATOM     17  S   UNL     1       9.092  10.226  19.096  0.00  0.00    +0.000 S 
BRANCH  17  18
ATOM     18  C   UNL     1      10.175  11.468  18.556  0.00  0.00    +0.000 A 
ATOM     19  N   UNL     1      11.426  11.286  18.199  0.00  0.00    +0.000 NA
ATOM     20  N   UNL     1      11.787  12.420  17.517  0.00  0.00    +0.000 NA
ATOM     21  N   UNL     1      10.774  13.272  17.431  0.00  0.00    +0.000 NA
ATOM     22  N   UNL     1       9.774  12.743  18.177  0.00  0.00    +0.000 N 
BRANCH  22  23
ATOM     23  C   UNL     1       8.596  13.476  18.462  0.00  0.00    +0.000 A 
ATOM     24  C   UNL     1       7.582  13.609  17.487  0.00  0.00    +0.000 A 
ATOM     25  C   UNL     1       6.425  14.345  17.759  0.00  0.00    +0.000 A 
ATOM     26  C   UNL     1       6.320  14.943  18.994  0.00  0.00    +0.000 A 
ATOM     27  C   UNL     1       7.296  14.800  19.953  0.00  0.00    +0.000 A 
ATOM     28  C   UNL     1       8.436  14.052  19.734  0.00  0.00    +0.000 A 
ATOM     29  O   UNL     1       7.001  15.485  21.092  0.00  0.00    +0.000 OA
ATOM     30  C   UNL     1       5.749  16.104  20.721  0.00  0.00    +0.000 C 
ATOM     31  O   UNL     1       5.286  15.718  19.412  0.00  0.00    +0.000 OA
ENDBRANCH  22  23
ENDBRANCH  17  18
ENDBRANCH   1  17
TORSDOF 7
ENDMDL
MODEL 5
REMARK VINA RESULT:      -7.7      2.952      9.350
REMARK  Name = 
REMARK  10 active torsions:
REMARK  status: ('A' for Active; 'I' for Inactive)
REMARK    1  A    between atoms: C_1  and  O_2
REMARK    2  A    between atoms: O_2  and  C_3
REMARK    3  A    between atoms: C_3  and  C_5
REMARK    4  A    between atoms: C_6  and  N_7
REMARK    5  A    between atoms: C_8  and  C_10
REMARK    6  A    between atoms: C_10  and  S_11
REMARK    7  A    between atoms: S_11  and  C_12
REMARK    8  A    between atoms: N_16  and  C_17
REMARK    9  A    between atoms: C_27  and  C_28
REMARK   10  A    between atoms: C_29  and  C_30
REMARK                            x       y       z     vdW  Elec       q    Type
REMARK                         _______ _______ _______ _____ _____    ______ ____
ROOT
ATOM      1  C   UNL     1       1.392   6.503  20.826  0.00  0.00    +0.000 C 
ENDROOT
BRANCH   1   3
ATOM      2  N   UNL     1       0.010   8.442  21.349  0.00  0.00    +0.000 N 
ATOM      3  C   UNL     1       1.250   8.020  20.878  0.00  0.00    +0.000 C 
ATOM      4  O   UNL     1       2.182   8.725  20.494  0.00  0.00    +0.000 OA
ATOM      5  H   UNL     1      -0.666   7.732  21.618  0.00  0.00    +0.000 HD
BRANCH   2   7
ATOM      6  C   UNL     1      -0.724  10.662  20.445  0.00  0.00    +0.000 A 
ATOM      7  C   UNL     1      -0.444   9.757  21.466  0.00  0.00    +0.000 A 
ATOM      8  S   UNL     1      -0.707  10.431  23.003  0.00  0.00    +0.000 S 
ATOM      9  C   UNL     1      -1.183  11.935  22.378  0.00  0.00    +0.000 A 
ATOM     10  C   UNL     1      -1.557  13.034  23.318  0.00  0.00    +0.000 C 
ATOM     11  C   UNL     1      -1.161  11.950  20.994  0.00  0.00    +0.000 A 
ATOM     12  C   UNL     1      -1.539  13.140  20.163  0.00  0.00    +0.000 C 
BRANCH   6  13
ATOM     13  C   UNL     1      -0.603  10.398  19.003  0.00  0.00    +0.000 C 
ATOM     14  O   UNL     1       0.429  10.585  18.366  0.00  0.00    +0.000 OA
BRANCH  13  16
ATOM     15  C   UNL     1      -2.315  10.834  17.471  0.00  0.00    +0.000 C 
ATOM     16  O   UNL     1      -1.758   9.929  18.430  0.00  0.00    +0.000 OA
ENDBRANCH  13  16
ENDBRANCH   6  13
ENDBRANCH   2   7
ENDBRANCH   1   3
BRANCH   1  17
ATOM     17  S   UNL     1       2.528   6.091  19.475  0.00  0.00    +0.000 S 
BRANCH  17  18
ATOM     18  C   UNL     1       3.164   4.560  19.983  0.00  0.00    +0.000 A 
ATOM     19  N   UNL     1       2.652   3.795  20.920  0.00  0.00    +0.000 NA
ATOM     20  N   UNL     1       3.228   2.562  20.749  0.00  0.00    +0.000 NA
ATOM     21  N   UNL     1       4.057   2.557  19.713  0.00  0.00    +0.000 NA
ATOM     22  N   UNL     1       4.121   3.840  19.279  0.00  0.00    +0.000 N 
BRANCH  22  23
ATOM     23  C   UNL     1       5.057   4.242  18.295  0.00  0.00    +0.000 A 
ATOM     24  C   UNL     1       6.170   5.039  18.649  0.00  0.00    +0.000 A 
ATOM     25  C   UNL     1       7.088   5.452  17.679  0.00  0.00    +0.000 A 
ATOM     26  C   UNL     1       6.859   5.070  16.377  0.00  0.00    +0.000 A 
ATOM     27  C   UNL     1       5.788   4.280  16.030  0.00  0.00    +0.000 A 
ATOM     28  C   UNL     1       4.881   3.823  16.966  0.00  0.00    +0.000 A 
ATOM     29  O   UNL     1       5.742   4.036  14.692  0.00  0.00    +0.000 OA
ATOM     30  C   UNL     1       6.882   4.797  14.236  0.00  0.00    +0.000 C 
ATOM     31  O   UNL     1       7.627   5.409  15.308  0.00  0.00    +0.000 OA
ENDBRANCH  22  23
ENDBRANCH  17  18
ENDBRANCH   1  17
TORSDOF 7
ENDMDL
MODEL 6
REMARK VINA RESULT:      -7.6      2.846      9.073
REMARK  Name = 
REMARK  10 active torsions:
REMARK  status: ('A' for Active; 'I' for Inactive)
REMARK    1  A    between atoms: C_1  and  O_2
REMARK    2  A    between atoms: O_2  and  C_3
REMARK    3  A    between atoms: C_3  and  C_5
REMARK    4  A    between atoms: C_6  and  N_7
REMARK    5  A    between atoms: C_8  and  C_10
REMARK    6  A    between atoms: C_10  and  S_11
REMARK    7  A    between atoms: S_11  and  C_12
REMARK    8  A    between atoms: N_16  and  C_17
REMARK    9  A    between atoms: C_27  and  C_28
REMARK   10  A    between atoms: C_29  and  C_30
REMARK                            x       y       z     vdW  Elec       q    Type
REMARK                         _______ _______ _______ _____ _____    ______ ____
ROOT
ATOM      1  C   UNL     1       2.163   7.471  18.112  0.00  0.00    +0.000 C 
ENDROOT
BRANCH   1   3
ATOM      2  N   UNL     1       0.775   9.055  19.340  0.00  0.00    +0.000 N 
ATOM      3  C   UNL     1       1.632   8.892  18.254  0.00  0.00    +0.000 C 
ATOM      4  O   UNL     1       1.959   9.742  17.428  0.00  0.00    +0.000 OA
ATOM      5  H   UNL     1       0.592   8.247  19.929  0.00  0.00    +0.000 HD
BRANCH   2   7
ATOM      6  C   UNL     1      -1.120  10.691  19.207  0.00  0.00    +0.000 A 
ATOM      7  C   UNL     1       0.090  10.214  19.706  0.00  0.00    +0.000 A 
ATOM      8  S   UNL     1       0.738  11.244  20.891  0.00  0.00    +0.000 S 
ATOM      9  C   UNL     1      -0.541  12.353  20.778  0.00  0.00    +0.000 A 
ATOM     10  C   UNL     1      -0.532  13.576  21.636  0.00  0.00    +0.000 C 
ATOM     11  C   UNL     1      -1.487  11.958  19.847  0.00  0.00    +0.000 A 
ATOM     12  C   UNL     1      -2.732  12.734  19.535  0.00  0.00    +0.000 C 
BRANCH   6  13
ATOM     13  C   UNL     1      -1.941  10.040  18.174  0.00  0.00    +0.000 C 
ATOM     14  O   UNL     1      -2.935   9.365  18.427  0.00  0.00    +0.000 OA
BRANCH  13  16
ATOM     15  C   UNL     1      -2.521  10.679  16.002  0.00  0.00    +0.000 C 
ATOM     16  O   UNL     1      -1.489  10.250  16.896  0.00  0.00    +0.000 OA
ENDBRANCH  13  16
ENDBRANCH   6  13
ENDBRANCH   2   7
ENDBRANCH   1   3
BRANCH   1  17
ATOM     17  S   UNL     1       2.541   6.844  19.771  0.00  0.00    +0.000 S 
BRANCH  17  18
ATOM     18  C   UNL     1       2.176   5.155  19.619  0.00  0.00    +0.000 A 
ATOM     19  N   UNL     1       1.112   4.559  20.105  0.00  0.00    +0.000 NA
ATOM     20  N   UNL     1       1.038   3.349  19.463  0.00  0.00    +0.000 NA
ATOM     21  N   UNL     1       2.019   3.211  18.581  0.00  0.00    +0.000 NA
ATOM     22  N   UNL     1       2.819   4.294  18.739  0.00  0.00    +0.000 N 
BRANCH  22  23
ATOM     23  C   UNL     1       4.071   4.390  18.084  0.00  0.00    +0.000 A 
ATOM     24  C   UNL     1       5.259   4.565  18.831  0.00  0.00    +0.000 A 
ATOM     25  C   UNL     1       6.495   4.676  18.188  0.00  0.00    +0.000 A 
ATOM     26  C   UNL     1       6.509   4.627  16.812  0.00  0.00    +0.000 A 
ATOM     27  C   UNL     1       5.358   4.439  16.082  0.00  0.00    +0.000 A 
ATOM     28  C   UNL     1       4.124   4.290  16.684  0.00  0.00    +0.000 A 
ATOM     29  O   UNL     1       5.596   4.439  14.742  0.00  0.00    +0.000 OA
ATOM     30  C   UNL     1       7.018   4.688  14.716  0.00  0.00    +0.000 C 
ATOM     31  O   UNL     1       7.611   4.753  16.028  0.00  0.00    +0.000 OA
ENDBRANCH  22  23
ENDBRANCH  17  18
ENDBRANCH   1  17
TORSDOF 7
ENDMDL
MODEL 7
REMARK VINA RESULT:      -7.6      2.951      8.749
REMARK  Name = 
REMARK  10 active torsions:
REMARK  status: ('A' for Active; 'I' for Inactive)
REMARK    1  A    between atoms: C_1  and  O_2
REMARK    2  A    between atoms: O_2  and  C_3
REMARK    3  A    between atoms: C_3  and  C_5
REMARK    4  A    between atoms: C_6  and  N_7
REMARK    5  A    between atoms: C_8  and  C_10
REMARK    6  A    between atoms: C_10  and  S_11
REMARK    7  A    between atoms: S_11  and  C_12
REMARK    8  A    between atoms: N_16  and  C_17
REMARK    9  A    between atoms: C_27  and  C_28
REMARK   10  A    between atoms: C_29  and  C_30
REMARK                            x       y       z     vdW  Elec       q    Type
REMARK                         _______ _______ _______ _____ _____    ______ ____
ROOT
ATOM      1  C   UNL     1       3.106   7.564  17.261  0.00  0.00    +0.000 C 
ENDROOT
BRANCH   1   3
ATOM      2  N   UNL     1       1.766   8.964  18.741  0.00  0.00    +0.000 N 
ATOM      3  C   UNL     1       2.454   7.759  18.625  0.00  0.00    +0.000 C 
ATOM      4  O   UNL     1       2.599   6.896  19.490  0.00  0.00    +0.000 OA
ATOM      5  H   UNL     1       1.748   9.582  17.934  0.00  0.00    +0.000 HD
BRANCH   2   7
ATOM      6  C   UNL     1       0.529  10.708  20.048  0.00  0.00    +0.000 A 
ATOM      7  C   UNL     1       1.112   9.455  19.871  0.00  0.00    +0.000 A 
ATOM      8  S   UNL     1       0.968   8.486  21.258  0.00  0.00    +0.000 S 
ATOM      9  C   UNL     1       0.148   9.683  22.138  0.00  0.00    +0.000 A 
ATOM     10  C   UNL     1      -0.268   9.403  23.545  0.00  0.00    +0.000 C 
ATOM     11  C   UNL     1      -0.040  10.834  21.394  0.00  0.00    +0.000 A 
ATOM     12  C   UNL     1      -0.740  12.059  21.905  0.00  0.00    +0.000 C 
BRANCH   6  13
ATOM     13  C   UNL     1       0.477  11.784  19.045  0.00  0.00    +0.000 C 
ATOM     14  O   UNL     1      -0.402  11.871  18.193  0.00  0.00    +0.000 OA
BRANCH  13  16
ATOM     15  C   UNL     1       2.503  12.505  18.128  0.00  0.00    +0.000 C 
ATOM     16  O   UNL     1       1.510  12.680  19.145  0.00  0.00    +0.000 OA
ENDBRANCH  13  16
ENDBRANCH   6  13
ENDBRANCH   2   7
ENDBRANCH   1   3
BRANCH   1  17
ATOM     17  S   UNL     1       4.838   7.101  17.526  0.00  0.00    +0.000 S 
BRANCH  17  18
ATOM     18  C   UNL     1       5.015   5.724  16.487  0.00  0.00    +0.000 A 
ATOM     19  N   UNL     1       5.792   5.663  15.430  0.00  0.00    +0.000 NA
ATOM     20  N   UNL     1       5.907   4.329  15.130  0.00  0.00    +0.000 NA
ATOM     21  N   UNL     1       5.238   3.581  15.998  0.00  0.00    +0.000 NA
ATOM     22  N   UNL     1       4.572   4.446  16.802  0.00  0.00    +0.000 N 
BRANCH  22  23
ATOM     23  C   UNL     1       3.607   3.994  17.735  0.00  0.00    +0.000 A 
ATOM     24  C   UNL     1       2.234   3.996  17.402  0.00  0.00    +0.000 A 
ATOM     25  C   UNL     1       1.276   3.565  18.326  0.00  0.00    +0.000 A 
ATOM     26  C   UNL     1       1.718   3.161  19.566  0.00  0.00    +0.000 A 
ATOM     27  C   UNL     1       3.055   3.141  19.888  0.00  0.00    +0.000 A 
ATOM     28  C   UNL     1       4.031   3.525  18.990  0.00  0.00    +0.000 A 
ATOM     29  O   UNL     1       3.268   2.725  21.166  0.00  0.00    +0.000 OA
ATOM     30  C   UNL     1       1.911   2.526  21.619  0.00  0.00    +0.000 C 
ATOM     31  O   UNL     1       0.926   2.748  20.590  0.00  0.00    +0.000 OA
ENDBRANCH  22  23
ENDBRANCH  17  18
ENDBRANCH   1  17
TORSDOF 7
ENDMDL
MODEL 8
REMARK VINA RESULT:      -7.5      1.935      3.267
REMARK  Name = 
REMARK  10 active torsions:
REMARK  status: ('A' for Active; 'I' for Inactive)
REMARK    1  A    between atoms: C_1  and  O_2
REMARK    2  A    between atoms: O_2  and  C_3
REMARK    3  A    between atoms: C_3  and  C_5
REMARK    4  A    between atoms: C_6  and  N_7
REMARK    5  A    between atoms: C_8  and  C_10
REMARK    6  A    between atoms: C_10  and  S_11
REMARK    7  A    between atoms: S_11  and  C_12
REMARK    8  A    between atoms: N_16  and  C_17
REMARK    9  A    between atoms: C_27  and  C_28
REMARK   10  A    between atoms: C_29  and  C_30
REMARK                            x       y       z     vdW  Elec       q    Type
REMARK                         _______ _______ _______ _____ _____    ______ ____
ROOT
ATOM      1  C   UNL     1       1.461   9.333  19.037  0.00  0.00    +0.000 C 
ENDROOT
BRANCH   1   3
ATOM      2  N   UNL     1       2.475   7.390  17.969  0.00  0.00    +0.000 N 
ATOM      3  C   UNL     1       2.034   7.927  19.176  0.00  0.00    +0.000 C 
ATOM      4  O   UNL     1       2.041   7.386  20.280  0.00  0.00    +0.000 OA
ATOM      5  H   UNL     1       2.390   7.961  17.133  0.00  0.00    +0.000 HD
BRANCH   2   7
ATOM      6  C   UNL     1       4.172   5.769  17.088  0.00  0.00    +0.000 A 
ATOM      7  C   UNL     1       2.999   6.114  17.756  0.00  0.00    +0.000 A 
ATOM      8  S   UNL     1       2.171   4.749  18.333  0.00  0.00    +0.000 S 
ATOM      9  C   UNL     1       3.317   3.661  17.715  0.00  0.00    +0.000 A 
ATOM     10  C   UNL     1       3.117   2.194  17.910  0.00  0.00    +0.000 C 
ATOM     11  C   UNL     1       4.353   4.314  17.069  0.00  0.00    +0.000 A 
ATOM     12  C   UNL     1       5.516   3.615  16.429  0.00  0.00    +0.000 C 
BRANCH   6  13
ATOM     13  C   UNL     1       5.121   6.709  16.471  0.00  0.00    +0.000 C 
ATOM     14  O   UNL     1       5.166   6.928  15.264  0.00  0.00    +0.000 OA
BRANCH  13  16
ATOM     15  C   UNL     1       7.316   6.878  17.256  0.00  0.00    +0.000 C 
ATOM     16  O   UNL     1       5.958   7.317  17.371  0.00  0.00    +0.000 OA
ENDBRANCH  13  16
ENDBRANCH   6  13
ENDBRANCH   2   7
ENDBRANCH   1   3
BRANCH   1  17
ATOM     17  S   UNL     1       0.627   9.754  20.590  0.00  0.00    +0.000 S 
BRANCH  17  18
ATOM     18  C   UNL     1       0.699  11.487  20.589  0.00  0.00    +0.000 A 
ATOM     19  N   UNL     1       1.632  12.211  21.164  0.00  0.00    +0.000 NA
ATOM     20  N   UNL     1       1.513  13.467  20.625  0.00  0.00    +0.000 NA
ATOM     21  N   UNL     1       0.546  13.511  19.718  0.00  0.00    +0.000 NA
ATOM     22  N   UNL     1      -0.060  12.299  19.756  0.00  0.00    +0.000 N 
BRANCH  22  23
ATOM     23  C   UNL     1      -1.259  12.049  19.046  0.00  0.00    +0.000 A 
ATOM     24  C   UNL     1      -2.514  12.237  19.670  0.00  0.00    +0.000 A 
ATOM     25  C   UNL     1      -3.700  11.976  18.978  0.00  0.00    +0.000 A 
ATOM     26  C   UNL     1      -3.600  11.517  17.684  0.00  0.00    +0.000 A 
ATOM     27  C   UNL     1      -2.382  11.350  17.067  0.00  0.00    +0.000 A 
ATOM     28  C   UNL     1      -1.191  11.631  17.706  0.00  0.00    +0.000 A 
ATOM     29  O   UNL     1      -2.511  10.872  15.799  0.00  0.00    +0.000 OA
ATOM     30  C   UNL     1      -3.945  10.722  15.708  0.00  0.00    +0.000 C 
ATOM     31  O   UNL     1      -4.644  11.183  16.881  0.00  0.00    +0.000 OA
ENDBRANCH  22  23
ENDBRANCH  17  18
ENDBRANCH   1  17
TORSDOF 7
ENDMDL
MODEL 9
REMARK VINA RESULT:      -7.5      3.272      9.048
REMARK  Name = 
REMARK  10 active torsions:
REMARK  status: ('A' for Active; 'I' for Inactive)
REMARK    1  A    between atoms: C_1  and  O_2
REMARK    2  A    between atoms: O_2  and  C_3
REMARK    3  A    between atoms: C_3  and  C_5
REMARK    4  A    between atoms: C_6  and  N_7
REMARK    5  A    between atoms: C_8  and  C_10
REMARK    6  A    between atoms: C_10  and  S_11
REMARK    7  A    between atoms: S_11  and  C_12
REMARK    8  A    between atoms: N_16  and  C_17
REMARK    9  A    between atoms: C_27  and  C_28
REMARK   10  A    between atoms: C_29  and  C_30
REMARK                            x       y       z     vdW  Elec       q    Type
REMARK                         _______ _______ _______ _____ _____    ______ ____
ROOT
ATOM      1  C   UNL     1       2.487   7.588  18.216  0.00  0.00    +0.000 C 
ENDROOT
BRANCH   1   3
ATOM      2  N   UNL     1       0.645   8.960  19.034  0.00  0.00    +0.000 N 
ATOM      3  C   UNL     1       1.728   8.909  18.161  0.00  0.00    +0.000 C 
ATOM      4  O   UNL     1       2.091   9.779  17.371  0.00  0.00    +0.000 OA
ATOM      5  H   UNL     1       0.464   8.148  19.619  0.00  0.00    +0.000 HD
BRANCH   2   7
ATOM      6  C   UNL     1      -0.231  11.056  20.093  0.00  0.00    +0.000 A 
ATOM      7  C   UNL     1      -0.270  10.003  19.183  0.00  0.00    +0.000 A 
ATOM      8  S   UNL     1      -1.642  10.077  18.184  0.00  0.00    +0.000 S 
ATOM      9  C   UNL     1      -2.234  11.485  18.923  0.00  0.00    +0.000 A 
ATOM     10  C   UNL     1      -3.520  12.078  18.448  0.00  0.00    +0.000 C 
ATOM     11  C   UNL     1      -1.398  11.930  19.932  0.00  0.00    +0.000 A 
ATOM     12  C   UNL     1      -1.657  13.155  20.757  0.00  0.00    +0.000 C 
BRANCH   6  13
ATOM     13  C   UNL     1       0.820  11.289  21.097  0.00  0.00    +0.000 C 
ATOM     14  O   UNL     1       1.170  10.445  21.916  0.00  0.00    +0.000 OA
BRANCH  13  16
ATOM     15  C   UNL     1       2.052  12.796  19.803  0.00  0.00    +0.000 C 
ATOM     16  O   UNL     1       1.371  12.543  21.037  0.00  0.00    +0.000 OA
ENDBRANCH  13  16
ENDBRANCH   6  13
ENDBRANCH   2   7
ENDBRANCH   1   3
BRANCH   1  17
ATOM     17  S   UNL     1       2.557   7.052  19.946  0.00  0.00    +0.000 S 
BRANCH  17  18
ATOM     18  C   UNL     1       2.165   5.367  19.826  0.00  0.00    +0.000 A 
ATOM     19  N   UNL     1       1.092   4.797  20.325  0.00  0.00    +0.000 NA
ATOM     20  N   UNL     1       0.998   3.577  19.706  0.00  0.00    +0.000 NA
ATOM     21  N   UNL     1       1.975   3.407  18.825  0.00  0.00    +0.000 NA
ATOM     22  N   UNL     1       2.792   4.479  18.962  0.00  0.00    +0.000 N 
BRANCH  22  23
ATOM     23  C   UNL     1       4.045   4.543  18.303  0.00  0.00    +0.000 A 
ATOM     24  C   UNL     1       5.232   4.749  19.042  0.00  0.00    +0.000 A 
ATOM     25  C   UNL     1       6.469   4.829  18.394  0.00  0.00    +0.000 A 
ATOM     26  C   UNL     1       6.483   4.717  17.022  0.00  0.00    +0.000 A 
ATOM     27  C   UNL     1       5.332   4.498  16.301  0.00  0.00    +0.000 A 
ATOM     28  C   UNL     1       4.097   4.379  16.909  0.00  0.00    +0.000 A 
ATOM     29  O   UNL     1       5.569   4.437  14.962  0.00  0.00    +0.000 OA
ATOM     30  C   UNL     1       6.992   4.682  14.925  0.00  0.00    +0.000 C 
ATOM     31  O   UNL     1       7.586   4.805  16.233  0.00  0.00    +0.000 OA
ENDBRANCH  22  23
ENDBRANCH  17  18
ENDBRANCH   1  17
TORSDOF 7
ENDMDL
