MODEL 1
REMARK VINA RESULT:      -8.8      0.000      0.000
REMARK  Name = 
REMARK  8 active torsions:
REMARK  status: ('A' for Active; 'I' for Inactive)
REMARK    1  A    between atoms: N_2  and  C_4
REMARK    2  A    between atoms: C_10  and  C_11
REMARK    3  A    between atoms: C_11  and  C_12
REMARK    4  A    between atoms: C_12  and  O_13
REMARK    5  A    between atoms: O_13  and  C_14
REMARK    6  A    between atoms: C_17  and  O_18
REMARK    7  A    between atoms: O_18  and  C_19
REMARK    8  A    between atoms: C_19  and  C_20
REMARK                            x       y       z     vdW  Elec       q    Type
REMARK                         _______ _______ _______ _____ _____    ______ ____
ROOT
ATOM      1  O   UNL     1       2.405   5.611  20.674  0.00  0.00    +0.000 OA
ENDROOT
BRANCH   1   2
ATOM      2  C   UNL     1       2.106   6.799  20.058  0.00  0.00    +0.000 A 
ATOM      3  C   UNL     1       2.428   7.085  18.734  0.00  0.00    +0.000 A 
ATOM      4  C   UNL     1       2.083   8.303  18.173  0.00  0.00    +0.000 A 
ATOM      5  C   UNL     1       1.368   9.240  18.912  0.00  0.00    +0.000 A 
ATOM      6  C   UNL     1       1.072   8.984  20.250  0.00  0.00    +0.000 A 
ATOM      7  C   UNL     1       1.443   7.762  20.825  0.00  0.00    +0.000 A 
BRANCH   5   8
ATOM      8  O   UNL     1       0.908  10.418  18.389  0.00  0.00    +0.000 OA
BRANCH   8   9
ATOM      9  C   UNL     1      -0.158  10.998  19.150  0.00  0.00    +0.000 C 
BRANCH   9  10
ATOM     10  C   UNL     1      -1.439  10.878  18.383  0.00  0.00    +0.000 A 
ATOM     11  C   UNL     1      -1.530   9.999  17.301  0.00  0.00    +0.000 A 
ATOM     12  C   UNL     1      -2.725   9.888  16.595  0.00  0.00    +0.000 A 
ATOM     13  C   UNL     1      -3.830  10.655  16.971  0.00  0.00    +0.000 A 
ATOM     14  C   UNL     1      -3.745  11.529  18.048  0.00  0.00    +0.000 A 
ATOM     15  C   UNL     1      -2.553  11.643  18.756  0.00  0.00    +0.000 A 
ENDBRANCH   9  10
ENDBRANCH   8   9
ENDBRANCH   5   8
ENDBRANCH   1   2
BRANCH   1  16
ATOM     16  C   UNL     1       1.554   4.527  20.295  0.00  0.00    +0.000 C 
BRANCH  16  17
ATOM     17  C   UNL     1       2.166   3.196  20.688  0.00  0.00    +0.000 C 
BRANCH  17  24
ATOM     18  C   UNL     1       6.110   5.195  17.855  0.00  0.00    +0.000 A 
ATOM     19  C   UNL     1       4.998   5.067  17.046  0.00  0.00    +0.000 A 
ATOM     20  N   UNL     1       4.223   4.146  17.690  0.00  0.00    +0.000 N 
ATOM     21  C   UNL     1       4.856   3.776  18.837  0.00  0.00    +0.000 A 
ATOM     22  N   UNL     1       6.013   4.382  18.971  0.00  0.00    +0.000 NA
ATOM     23  O   UNL     1       4.383   2.898  19.711  0.00  0.00    +0.000 OA
ATOM     24  C   UNL     1       3.009   2.517  19.600  0.00  0.00    +0.000 C 
ATOM     25  C   UNL     1       2.399   2.564  18.191  0.00  0.00    +0.000 C 
ATOM     26  C   UNL     1       2.958   3.624  17.256  0.00  0.00    +0.000 C 
BRANCH  18  28
ATOM     27  O   UNL     1       7.525   6.311  16.445  0.00  0.00    +0.000 OA
ATOM     28  N   UNL     1       7.264   6.035  17.627  0.00  0.00    +0.000 N 
ATOM     29  O   UNL     1       7.910   6.416  18.612  0.00  0.00    +0.000 OA
ENDBRANCH  18  28
ENDBRANCH  17  24
ENDBRANCH  16  17
ENDBRANCH   1  16
TORSDOF 8
ENDMDL
MODEL 2
REMARK VINA RESULT:      -8.4      0.887      1.423
REMARK  Name = 
REMARK  8 active torsions:
REMARK  status: ('A' for Active; 'I' for Inactive)
REMARK    1  A    between atoms: N_2  and  C_4
REMARK    2  A    between atoms: C_10  and  C_11
REMARK    3  A    between atoms: C_11  and  C_12
REMARK    4  A    between atoms: C_12  and  O_13
REMARK    5  A    between atoms: O_13  and  C_14
REMARK    6  A    between atoms: C_17  and  O_18
REMARK    7  A    between atoms: O_18  and  C_19
REMARK    8  A    between atoms: C_19  and  C_20
REMARK                            x       y       z     vdW  Elec       q    Type
REMARK                         _______ _______ _______ _____ _____    ______ ____
ROOT
ATOM      1  O   UNL     1       2.284   6.032  20.178  0.00  0.00    +0.000 OA
ENDROOT
BRANCH   1   2
ATOM      2  C   UNL     1       1.868   7.332  20.045  0.00  0.00    +0.000 A 
ATOM      3  C   UNL     1       2.085   8.099  18.904  0.00  0.00    +0.000 A 
ATOM      4  C   UNL     1       1.625   9.404  18.834  0.00  0.00    +0.000 A 
ATOM      5  C   UNL     1       0.899   9.949  19.887  0.00  0.00    +0.000 A 
ATOM      6  C   UNL     1       0.707   9.208  21.052  0.00  0.00    +0.000 A 
ATOM      7  C   UNL     1       1.194   7.897  21.132  0.00  0.00    +0.000 A 
BRANCH   5   8
ATOM      8  O   UNL     1       0.330  11.194  19.843  0.00  0.00    +0.000 OA
BRANCH   8   9
ATOM      9  C   UNL     1      -0.024  11.607  18.518  0.00  0.00    +0.000 C 
BRANCH   9  10
ATOM     10  C   UNL     1      -1.448  11.230  18.244  0.00  0.00    +0.000 A 
ATOM     11  C   UNL     1      -2.491  11.943  18.842  0.00  0.00    +0.000 A 
ATOM     12  C   UNL     1      -3.812  11.592  18.579  0.00  0.00    +0.000 A 
ATOM     13  C   UNL     1      -4.092  10.529  17.717  0.00  0.00    +0.000 A 
ATOM     14  C   UNL     1      -3.059   9.819  17.119  0.00  0.00    +0.000 A 
ATOM     15  C   UNL     1      -1.737  10.166  17.378  0.00  0.00    +0.000 A 
ENDBRANCH   9  10
ENDBRANCH   8   9
ENDBRANCH   5   8
ENDBRANCH   1   2
BRANCH   1  16
ATOM     16  C   UNL     1       1.233   5.112  20.484  0.00  0.00    +0.000 C 
BRANCH  16  17
ATOM     17  C   UNL     1       1.787   3.848  21.113  0.00  0.00    +0.000 C 
BRANCH  17  24
ATOM     18  C   UNL     1       5.930   4.218  17.907  0.00  0.00    +0.000 A 
ATOM     19  C   UNL     1       4.774   4.298  17.155  0.00  0.00    +0.000 A 
ATOM     20  N   UNL     1       3.819   3.737  17.954  0.00  0.00    +0.000 N 
ATOM     21  C   UNL     1       4.401   3.369  19.129  0.00  0.00    +0.000 A 
ATOM     22  N   UNL     1       5.686   3.634  19.138  0.00  0.00    +0.000 NA
ATOM     23  O   UNL     1       3.762   2.795  20.141  0.00  0.00    +0.000 OA
ATOM     24  C   UNL     1       2.333   2.810  20.123  0.00  0.00    +0.000 C 
ATOM     25  C   UNL     1       1.666   2.827  18.740  0.00  0.00    +0.000 C 
ATOM     26  C   UNL     1       2.432   3.541  17.638  0.00  0.00    +0.000 C 
BRANCH  18  28
ATOM     27  O   UNL     1       8.099   4.726  18.427  0.00  0.00    +0.000 OA
ATOM     28  N   UNL     1       7.254   4.654  17.522  0.00  0.00    +0.000 N 
ATOM     29  O   UNL     1       7.452   4.926  16.331  0.00  0.00    +0.000 OA
ENDBRANCH  18  28
ENDBRANCH  17  24
ENDBRANCH  16  17
ENDBRANCH   1  16
TORSDOF 8
ENDMDL
MODEL 3
REMARK VINA RESULT:      -8.4      0.872      1.342
REMARK  Name = 
REMARK  8 active torsions:
REMARK  status: ('A' for Active; 'I' for Inactive)
REMARK    1  A    between atoms: N_2  and  C_4
REMARK    2  A    between atoms: C_10  and  C_11
REMARK    3  A    between atoms: C_11  and  C_12
REMARK    4  A    between atoms: C_12  and  O_13
REMARK    5  A    between atoms: O_13  and  C_14
REMARK    6  A    between atoms: C_17  and  O_18
REMARK    7  A    between atoms: O_18  and  C_19
REMARK    8  A    between atoms: C_19  and  C_20
REMARK                            x       y       z     vdW  Elec       q    Type
REMARK                         _______ _______ _______ _____ _____    ______ ____
ROOT
ATOM      1  O   UNL     1       2.644   5.901  20.064  0.00  0.00    +0.000 OA
ENDROOT
BRANCH   1   2
ATOM      2  C   UNL     1       2.150   7.135  19.729  0.00  0.00    +0.000 A 
ATOM      3  C   UNL     1       1.501   7.977  20.629  0.00  0.00    +0.000 A 
ATOM      4  C   UNL     1       1.038   9.217  20.224  0.00  0.00    +0.000 A 
ATOM      5  C   UNL     1       1.259   9.660  18.924  0.00  0.00    +0.000 A 
ATOM      6  C   UNL     1       1.873   8.814  18.002  0.00  0.00    +0.000 A 
ATOM      7  C   UNL     1       2.319   7.549  18.405  0.00  0.00    +0.000 A 
BRANCH   5   8
ATOM      8  O   UNL     1       0.919  10.912  18.488  0.00  0.00    +0.000 OA
BRANCH   8   9
ATOM      9  C   UNL     1      -0.316  11.385  19.035  0.00  0.00    +0.000 C 
BRANCH   9  10
ATOM     10  C   UNL     1      -1.445  10.985  18.136  0.00  0.00    +0.000 A 
ATOM     11  C   UNL     1      -1.679  11.684  16.948  0.00  0.00    +0.000 A 
ATOM     12  C   UNL     1      -2.726  11.303  16.113  0.00  0.00    +0.000 A 
ATOM     13  C   UNL     1      -3.540  10.224  16.464  0.00  0.00    +0.000 A 
ATOM     14  C   UNL     1      -3.311   9.525  17.643  0.00  0.00    +0.000 A 
ATOM     15  C   UNL     1      -2.266   9.901  18.480  0.00  0.00    +0.000 A 
ENDBRANCH   9  10
ENDBRANCH   8   9
ENDBRANCH   5   8
ENDBRANCH   1   2
BRANCH   1  16
ATOM     16  C   UNL     1       1.653   4.979  20.523  0.00  0.00    +0.000 C 
BRANCH  16  17
ATOM     17  C   UNL     1       2.297   3.732  21.096  0.00  0.00    +0.000 C 
BRANCH  17  24
ATOM     18  C   UNL     1       5.850   4.617  17.332  0.00  0.00    +0.000 A 
ATOM     19  C   UNL     1       4.605   4.483  16.749  0.00  0.00    +0.000 A 
ATOM     20  N   UNL     1       3.871   3.812  17.684  0.00  0.00    +0.000 N 
ATOM     21  C   UNL     1       4.659   3.589  18.772  0.00  0.00    +0.000 A 
ATOM     22  N   UNL     1       5.874   4.052  18.595  0.00  0.00    +0.000 NA
ATOM     23  O   UNL     1       4.265   2.964  19.874  0.00  0.00    +0.000 OA
ATOM     24  C   UNL     1       2.863   2.753  20.058  0.00  0.00    +0.000 C 
ATOM     25  C   UNL     1       2.019   2.609  18.783  0.00  0.00    +0.000 C 
ATOM     26  C   UNL     1       2.504   3.389  17.571  0.00  0.00    +0.000 C 
BRANCH  18  28
ATOM     27  O   UNL     1       7.971   4.489  16.483  0.00  0.00    +0.000 OA
ATOM     28  N   UNL     1       7.022   5.239  16.756  0.00  0.00    +0.000 N 
ATOM     29  O   UNL     1       7.002   6.464  16.580  0.00  0.00    +0.000 OA
ENDBRANCH  18  28
ENDBRANCH  17  24
ENDBRANCH  16  17
ENDBRANCH   1  16
TORSDOF 8
ENDMDL
MODEL 4
REMARK VINA RESULT:      -8.1      1.181      1.614
REMARK  Name = 
REMARK  8 active torsions:
REMARK  status: ('A' for Active; 'I' for Inactive)
REMARK    1  A    between atoms: N_2  and  C_4
REMARK    2  A    between atoms: C_10  and  C_11
REMARK    3  A    between atoms: C_11  and  C_12
REMARK    4  A    between atoms: C_12  and  O_13
REMARK    5  A    between atoms: O_13  and  C_14
REMARK    6  A    between atoms: C_17  and  O_18
REMARK    7  A    between atoms: O_18  and  C_19
REMARK    8  A    between atoms: C_19  and  C_20
REMARK                            x       y       z     vdW  Elec       q    Type
REMARK                         _______ _______ _______ _____ _____    ______ ____
ROOT
ATOM      1  O   UNL     1       2.529   6.204  19.547  0.00  0.00    +0.000 OA
ENDROOT
BRANCH   1   2
ATOM      2  C   UNL     1       2.016   7.474  19.492  0.00  0.00    +0.000 A 
ATOM      3  C   UNL     1       2.029   8.264  18.345  0.00  0.00    +0.000 A 
ATOM      4  C   UNL     1       1.479   9.535  18.359  0.00  0.00    +0.000 A 
ATOM      5  C   UNL     1       0.864  10.021  19.508  0.00  0.00    +0.000 A 
ATOM      6  C   UNL     1       0.877   9.258  20.674  0.00  0.00    +0.000 A 
ATOM      7  C   UNL     1       1.455   7.983  20.667  0.00  0.00    +0.000 A 
BRANCH   5   8
ATOM      8  O   UNL     1       0.214  11.225  19.560  0.00  0.00    +0.000 OA
BRANCH   8   9
ATOM      9  C   UNL     1      -0.711  11.416  18.483  0.00  0.00    +0.000 C 
BRANCH   9  10
ATOM     10  C   UNL     1      -2.037  11.841  19.035  0.00  0.00    +0.000 A 
ATOM     11  C   UNL     1      -3.213  11.552  18.338  0.00  0.00    +0.000 A 
ATOM     12  C   UNL     1      -4.443  11.945  18.859  0.00  0.00    +0.000 A 
ATOM     13  C   UNL     1      -4.498  12.627  20.076  0.00  0.00    +0.000 A 
ATOM     14  C   UNL     1      -3.331  12.915  20.774  0.00  0.00    +0.000 A 
ATOM     15  C   UNL     1      -2.100  12.525  20.258  0.00  0.00    +0.000 A 
ENDBRANCH   9  10
ENDBRANCH   8   9
ENDBRANCH   5   8
ENDBRANCH   1   2
BRANCH   1  16
ATOM     16  C   UNL     1       2.175   5.481  20.727  0.00  0.00    +0.000 C 
BRANCH  16  17
ATOM     17  C   UNL     1       1.304   4.286  20.390  0.00  0.00    +0.000 C 
BRANCH  17  24
ATOM     18  C   UNL     1       6.026   4.230  18.091  0.00  0.00    +0.000 A 
ATOM     19  C   UNL     1       5.051   4.153  17.114  0.00  0.00    +0.000 A 
ATOM     20  N   UNL     1       3.947   3.707  17.781  0.00  0.00    +0.000 N 
ATOM     21  C   UNL     1       4.269   3.555  19.096  0.00  0.00    +0.000 A 
ATOM     22  N   UNL     1       5.527   3.852  19.325  0.00  0.00    +0.000 NA
ATOM     23  O   UNL     1       3.430   3.140  20.036  0.00  0.00    +0.000 OA
ATOM     24  C   UNL     1       2.035   3.113  19.722  0.00  0.00    +0.000 C 
ATOM     25  C   UNL     1       1.670   2.883  18.248  0.00  0.00    +0.000 C 
ATOM     26  C   UNL     1       2.655   3.424  17.224  0.00  0.00    +0.000 C 
BRANCH  18  28
ATOM     27  O   UNL     1       7.894   4.465  16.792  0.00  0.00    +0.000 OA
ATOM     28  N   UNL     1       7.404   4.632  17.919  0.00  0.00    +0.000 N 
ATOM     29  O   UNL     1       7.997   5.106  18.897  0.00  0.00    +0.000 OA
ENDBRANCH  18  28
ENDBRANCH  17  24
ENDBRANCH  16  17
ENDBRANCH   1  16
TORSDOF 8
ENDMDL
MODEL 5
REMARK VINA RESULT:      -8.0      1.924      2.678
REMARK  Name = 
REMARK  8 active torsions:
REMARK  status: ('A' for Active; 'I' for Inactive)
REMARK    1  A    between atoms: N_2  and  C_4
REMARK    2  A    between atoms: C_10  and  C_11
REMARK    3  A    between atoms: C_11  and  C_12
REMARK    4  A    between atoms: C_12  and  O_13
REMARK    5  A    between atoms: O_13  and  C_14
REMARK    6  A    between atoms: C_17  and  O_18
REMARK    7  A    between atoms: O_18  and  C_19
REMARK    8  A    between atoms: C_19  and  C_20
REMARK                            x       y       z     vdW  Elec       q    Type
REMARK                         _______ _______ _______ _____ _____    ______ ____
ROOT
ATOM      1  O   UNL     1       2.634   6.302  19.556  0.00  0.00    +0.000 OA
ENDROOT
BRANCH   1   2
ATOM      2  C   UNL     1       2.028   7.529  19.636  0.00  0.00    +0.000 A 
ATOM      3  C   UNL     1       1.427   8.021  20.792  0.00  0.00    +0.000 A 
ATOM      4  C   UNL     1       0.844   9.277  20.804  0.00  0.00    +0.000 A 
ATOM      5  C   UNL     1       0.893  10.084  19.672  0.00  0.00    +0.000 A 
ATOM      6  C   UNL     1       1.456   9.592  18.496  0.00  0.00    +0.000 A 
ATOM      7  C   UNL     1       2.024   8.311  18.477  0.00  0.00    +0.000 A 
BRANCH   5   8
ATOM      8  O   UNL     1       0.428  11.371  19.646  0.00  0.00    +0.000 OA
BRANCH   8   9
ATOM      9  C   UNL     1       0.551  12.043  20.905  0.00  0.00    +0.000 C 
BRANCH   9  10
ATOM     10  C   UNL     1      -0.813  12.287  21.474  0.00  0.00    +0.000 A 
ATOM     11  C   UNL     1      -1.727  13.090  20.787  0.00  0.00    +0.000 A 
ATOM     12  C   UNL     1      -2.995  13.309  21.318  0.00  0.00    +0.000 A 
ATOM     13  C   UNL     1      -3.351  12.726  22.536  0.00  0.00    +0.000 A 
ATOM     14  C   UNL     1      -2.446  11.925  23.223  0.00  0.00    +0.000 A 
ATOM     15  C   UNL     1      -1.178  11.703  22.696  0.00  0.00    +0.000 A 
ENDBRANCH   9  10
ENDBRANCH   8   9
ENDBRANCH   5   8
ENDBRANCH   1   2
BRANCH   1  16
ATOM     16  C   UNL     1       2.483   5.499  20.729  0.00  0.00    +0.000 C 
BRANCH  16  17
ATOM     17  C   UNL     1       1.624   4.282  20.445  0.00  0.00    +0.000 C 
BRANCH  17  24
ATOM     18  C   UNL     1       6.064   4.295  17.640  0.00  0.00    +0.000 A 
ATOM     19  C   UNL     1       4.998   4.067  16.790  0.00  0.00    +0.000 A 
ATOM     20  N   UNL     1       4.007   3.619  17.615  0.00  0.00    +0.000 N 
ATOM     21  C   UNL     1       4.478   3.613  18.893  0.00  0.00    +0.000 A 
ATOM     22  N   UNL     1       5.728   4.005  18.951  0.00  0.00    +0.000 NA
ATOM     23  O   UNL     1       3.775   3.238  19.954  0.00  0.00    +0.000 OA
ATOM     24  C   UNL     1       2.360   3.097  19.804  0.00  0.00    +0.000 C 
ATOM     25  C   UNL     1       1.856   2.707  18.407  0.00  0.00    +0.000 C 
ATOM     26  C   UNL     1       2.685   3.208  17.234  0.00  0.00    +0.000 C 
BRANCH  18  28
ATOM     27  O   UNL     1       8.343   4.135  17.756  0.00  0.00    +0.000 OA
ATOM     28  N   UNL     1       7.384   4.761  17.279  0.00  0.00    +0.000 N 
ATOM     29  O   UNL     1       7.469   5.743  16.531  0.00  0.00    +0.000 OA
ENDBRANCH  18  28
ENDBRANCH  17  24
ENDBRANCH  16  17
ENDBRANCH   1  16
TORSDOF 8
ENDMDL
MODEL 6
REMARK VINA RESULT:      -8.0      2.191      3.416
REMARK  Name = 
REMARK  8 active torsions:
REMARK  status: ('A' for Active; 'I' for Inactive)
REMARK    1  A    between atoms: N_2  and  C_4
REMARK    2  A    between atoms: C_10  and  C_11
REMARK    3  A    between atoms: C_11  and  C_12
REMARK    4  A    between atoms: C_12  and  O_13
REMARK    5  A    between atoms: O_13  and  C_14
REMARK    6  A    between atoms: C_17  and  O_18
REMARK    7  A    between atoms: O_18  and  C_19
REMARK    8  A    between atoms: C_19  and  C_20
REMARK                            x       y       z     vdW  Elec       q    Type
REMARK                         _______ _______ _______ _____ _____    ______ ____
ROOT
ATOM      1  O   UNL     1       2.649   5.903  19.834  0.00  0.00    +0.000 OA
ENDROOT
BRANCH   1   2
ATOM      2  C   UNL     1       2.167   7.158  19.566  0.00  0.00    +0.000 A 
ATOM      3  C   UNL     1       1.463   7.928  20.488  0.00  0.00    +0.000 A 
ATOM      4  C   UNL     1       1.016   9.195  20.153  0.00  0.00    +0.000 A 
ATOM      5  C   UNL     1       1.308   9.735  18.904  0.00  0.00    +0.000 A 
ATOM      6  C   UNL     1       1.978   8.962  17.957  0.00  0.00    +0.000 A 
ATOM      7  C   UNL     1       2.407   7.671  18.288  0.00  0.00    +0.000 A 
BRANCH   5   8
ATOM      8  O   UNL     1       0.985  11.016  18.545  0.00  0.00    +0.000 OA
BRANCH   8   9
ATOM      9  C   UNL     1       0.919  11.916  19.657  0.00  0.00    +0.000 C 
BRANCH   9  10
ATOM     10  C   UNL     1       2.027  12.919  19.553  0.00  0.00    +0.000 A 
ATOM     11  C   UNL     1       2.578  13.229  18.307  0.00  0.00    +0.000 A 
ATOM     12  C   UNL     1       3.604  14.166  18.216  0.00  0.00    +0.000 A 
ATOM     13  C   UNL     1       4.079  14.794  19.369  0.00  0.00    +0.000 A 
ATOM     14  C   UNL     1       3.533  14.489  20.611  0.00  0.00    +0.000 A 
ATOM     15  C   UNL     1       2.508  13.554  20.707  0.00  0.00    +0.000 A 
ENDBRANCH   9  10
ENDBRANCH   8   9
ENDBRANCH   5   8
ENDBRANCH   1   2
BRANCH   1  16
ATOM     16  C   UNL     1       1.679   5.011  20.389  0.00  0.00    +0.000 C 
BRANCH  16  17
ATOM     17  C   UNL     1       2.353   3.855  21.103  0.00  0.00    +0.000 C 
BRANCH  17  24
ATOM     18  C   UNL     1       5.837   4.582  17.241  0.00  0.00    +0.000 A 
ATOM     19  C   UNL     1       4.610   4.276  16.685  0.00  0.00    +0.000 A 
ATOM     20  N   UNL     1       3.931   3.662  17.697  0.00  0.00    +0.000 N 
ATOM     21  C   UNL     1       4.730   3.636  18.800  0.00  0.00    +0.000 A 
ATOM     22  N   UNL     1       5.902   4.175  18.562  0.00  0.00    +0.000 NA
ATOM     23  O   UNL     1       4.384   3.115  19.970  0.00  0.00    +0.000 OA
ATOM     24  C   UNL     1       3.004   2.811  20.185  0.00  0.00    +0.000 C 
ATOM     25  C   UNL     1       2.182   2.446  18.940  0.00  0.00    +0.000 C 
ATOM     26  C   UNL     1       2.605   3.114  17.642  0.00  0.00    +0.000 C 
BRANCH  18  28
ATOM     27  O   UNL     1       6.882   6.459  16.453  0.00  0.00    +0.000 OA
ATOM     28  N   UNL     1       6.955   5.228  16.590  0.00  0.00    +0.000 N 
ATOM     29  O   UNL     1       7.897   4.518  16.213  0.00  0.00    +0.000 OA
ENDBRANCH  18  28
ENDBRANCH  17  24
ENDBRANCH  16  17
ENDBRANCH   1  16
TORSDOF 8
ENDMDL
MODEL 7
REMARK VINA RESULT:      -8.0      1.999      2.881
REMARK  Name = 
REMARK  8 active torsions:
REMARK  status: ('A' for Active; 'I' for Inactive)
REMARK    1  A    between atoms: N_2  and  C_4
REMARK    2  A    between atoms: C_10  and  C_11
REMARK    3  A    between atoms: C_11  and  C_12
REMARK    4  A    between atoms: C_12  and  O_13
REMARK    5  A    between atoms: O_13  and  C_14
REMARK    6  A    between atoms: C_17  and  O_18
REMARK    7  A    between atoms: O_18  and  C_19
REMARK    8  A    between atoms: C_19  and  C_20
REMARK                            x       y       z     vdW  Elec       q    Type
REMARK                         _______ _______ _______ _____ _____    ______ ____
ROOT
ATOM      1  O   UNL     1       2.650   5.704  20.117  0.00  0.00    +0.000 OA
ENDROOT
BRANCH   1   2
ATOM      2  C   UNL     1       2.176   6.951  19.799  0.00  0.00    +0.000 A 
ATOM      3  C   UNL     1       1.493   7.769  20.694  0.00  0.00    +0.000 A 
ATOM      4  C   UNL     1       1.054   9.024  20.307  0.00  0.00    +0.000 A 
ATOM      5  C   UNL     1       1.332   9.503  19.031  0.00  0.00    +0.000 A 
ATOM      6  C   UNL     1       1.980   8.681  18.111  0.00  0.00    +0.000 A 
ATOM      7  C   UNL     1       2.402   7.402  18.495  0.00  0.00    +0.000 A 
BRANCH   5   8
ATOM      8  O   UNL     1       1.016  10.769  18.618  0.00  0.00    +0.000 OA
BRANCH   8   9
ATOM      9  C   UNL     1       2.156  11.529  18.201  0.00  0.00    +0.000 C 
BRANCH   9  10
ATOM     10  C   UNL     1       1.881  12.988  18.399  0.00  0.00    +0.000 A 
ATOM     11  C   UNL     1       2.919  13.918  18.296  0.00  0.00    +0.000 A 
ATOM     12  C   UNL     1       2.657  15.274  18.475  0.00  0.00    +0.000 A 
ATOM     13  C   UNL     1       1.357  15.701  18.758  0.00  0.00    +0.000 A 
ATOM     14  C   UNL     1       0.321  14.779  18.860  0.00  0.00    +0.000 A 
ATOM     15  C   UNL     1       0.579  13.424  18.681  0.00  0.00    +0.000 A 
ENDBRANCH   9  10
ENDBRANCH   8   9
ENDBRANCH   5   8
ENDBRANCH   1   2
BRANCH   1  16
ATOM     16  C   UNL     1       1.629   4.723  20.313  0.00  0.00    +0.000 C 
BRANCH  16  17
ATOM     17  C   UNL     1       2.219   3.420  20.814  0.00  0.00    +0.000 C 
BRANCH  17  24
ATOM     18  C   UNL     1       6.099   5.096  17.697  0.00  0.00    +0.000 A 
ATOM     19  C   UNL     1       4.965   4.896  16.932  0.00  0.00    +0.000 A 
ATOM     20  N   UNL     1       4.203   4.049  17.684  0.00  0.00    +0.000 N 
ATOM     21  C   UNL     1       4.864   3.791  18.847  0.00  0.00    +0.000 A 
ATOM     22  N   UNL     1       6.026   4.399  18.890  0.00  0.00    +0.000 NA
ATOM     23  O   UNL     1       4.408   3.008  19.816  0.00  0.00    +0.000 OA
ATOM     24  C   UNL     1       3.030   2.629  19.778  0.00  0.00    +0.000 C 
ATOM     25  C   UNL     1       2.384   2.539  18.387  0.00  0.00    +0.000 C 
ATOM     26  C   UNL     1       2.924   3.497  17.337  0.00  0.00    +0.000 C 
BRANCH  18  28
ATOM     27  O   UNL     1       7.474   6.067  16.147  0.00  0.00    +0.000 OA
ATOM     28  N   UNL     1       7.251   5.900  17.356  0.00  0.00    +0.000 N 
ATOM     29  O   UNL     1       7.932   6.361  18.282  0.00  0.00    +0.000 OA
ENDBRANCH  18  28
ENDBRANCH  17  24
ENDBRANCH  16  17
ENDBRANCH   1  16
TORSDOF 8
ENDMDL
MODEL 8
REMARK VINA RESULT:      -8.0      5.593      8.773
REMARK  Name = 
REMARK  8 active torsions:
REMARK  status: ('A' for Active; 'I' for Inactive)
REMARK    1  A    between atoms: N_2  and  C_4
REMARK    2  A    between atoms: C_10  and  C_11
REMARK    3  A    between atoms: C_11  and  C_12
REMARK    4  A    between atoms: C_12  and  O_13
REMARK    5  A    between atoms: O_13  and  C_14
REMARK    6  A    between atoms: C_17  and  O_18
REMARK    7  A    between atoms: O_18  and  C_19
REMARK    8  A    between atoms: C_19  and  C_20
REMARK                            x       y       z     vdW  Elec       q    Type
REMARK                         _______ _______ _______ _____ _____    ______ ____
ROOT
ATOM      1  O   UNL     1       7.870   7.353  16.854  0.00  0.00    +0.000 OA
ENDROOT
BRANCH   1   2
ATOM      2  C   UNL     1       6.843   6.446  16.814  0.00  0.00    +0.000 A 
ATOM      3  C   UNL     1       7.011   5.102  16.491  0.00  0.00    +0.000 A 
ATOM      4  C   UNL     1       5.928   4.239  16.483  0.00  0.00    +0.000 A 
ATOM      5  C   UNL     1       4.665   4.694  16.846  0.00  0.00    +0.000 A 
ATOM      6  C   UNL     1       4.473   6.044  17.134  0.00  0.00    +0.000 A 
ATOM      7  C   UNL     1       5.564   6.923  17.118  0.00  0.00    +0.000 A 
BRANCH   5   8
ATOM      8  O   UNL     1       3.574   3.875  16.957  0.00  0.00    +0.000 OA
BRANCH   8   9
ATOM      9  C   UNL     1       3.803   2.738  17.798  0.00  0.00    +0.000 C 
BRANCH   9  10
ATOM     10  C   UNL     1       2.923   2.828  19.007  0.00  0.00    +0.000 A 
ATOM     11  C   UNL     1       1.560   3.099  18.865  0.00  0.00    +0.000 A 
ATOM     12  C   UNL     1       0.746   3.175  19.992  0.00  0.00    +0.000 A 
ATOM     13  C   UNL     1       1.294   2.981  21.262  0.00  0.00    +0.000 A 
ATOM     14  C   UNL     1       2.649   2.709  21.408  0.00  0.00    +0.000 A 
ATOM     15  C   UNL     1       3.466   2.631  20.285  0.00  0.00    +0.000 A 
ENDBRANCH   9  10
ENDBRANCH   8   9
ENDBRANCH   5   8
ENDBRANCH   1   2
BRANCH   1  16
ATOM     16  C   UNL     1       8.049   7.979  18.126  0.00  0.00    +0.000 C 
BRANCH  16  17
ATOM     17  C   UNL     1       8.165   9.483  17.978  0.00  0.00    +0.000 C 
BRANCH  17  24
ATOM     18  C   UNL     1       8.630  12.877  21.959  0.00  0.00    +0.000 A 
ATOM     19  C   UNL     1       8.883  13.540  20.774  0.00  0.00    +0.000 A 
ATOM     20  N   UNL     1       9.203  12.544  19.898  0.00  0.00    +0.000 N 
ATOM     21  C   UNL     1       9.114  11.351  20.549  0.00  0.00    +0.000 A 
ATOM     22  N   UNL     1       8.780  11.510  21.808  0.00  0.00    +0.000 NA
ATOM     23  O   UNL     1       9.354  10.169  19.996  0.00  0.00    +0.000 OA
ATOM     24  C   UNL     1       9.438  10.102  18.571  0.00  0.00    +0.000 C 
ATOM     25  C   UNL     1       9.931  11.369  17.855  0.00  0.00    +0.000 C 
ATOM     26  C   UNL     1       9.582  12.691  18.520  0.00  0.00    +0.000 C 
BRANCH  18  28
ATOM     27  O   UNL     1       8.811  14.541  23.519  0.00  0.00    +0.000 OA
ATOM     28  N   UNL     1       8.265  13.465  23.228  0.00  0.00    +0.000 N 
ATOM     29  O   UNL     1       7.444  12.864  23.933  0.00  0.00    +0.000 OA
ENDBRANCH  18  28
ENDBRANCH  17  24
ENDBRANCH  16  17
ENDBRANCH   1  16
TORSDOF 8
ENDMDL
MODEL 9
REMARK VINA RESULT:      -8.0      2.004      2.815
REMARK  Name = 
REMARK  8 active torsions:
REMARK  status: ('A' for Active; 'I' for Inactive)
REMARK    1  A    between atoms: N_2  and  C_4
REMARK    2  A    between atoms: C_10  and  C_11
REMARK    3  A    between atoms: C_11  and  C_12
REMARK    4  A    between atoms: C_12  and  O_13
REMARK    5  A    between atoms: O_13  and  C_14
REMARK    6  A    between atoms: C_17  and  O_18
REMARK    7  A    between atoms: O_18  and  C_19
REMARK    8  A    between atoms: C_19  and  C_20
REMARK                            x       y       z     vdW  Elec       q    Type
REMARK                         _______ _______ _______ _____ _____    ______ ____
ROOT
ATOM      1  O   UNL     1       2.781   6.250  19.683  0.00  0.00    +0.000 OA
ENDROOT
BRANCH   1   2
ATOM      2  C   UNL     1       2.174   7.450  19.416  0.00  0.00    +0.000 A 
ATOM      3  C   UNL     1       2.162   8.047  18.158  0.00  0.00    +0.000 A 
ATOM      4  C   UNL     1       1.517   9.256  17.959  0.00  0.00    +0.000 A 
ATOM      5  C   UNL     1       0.832   9.867  19.003  0.00  0.00    +0.000 A 
ATOM      6  C   UNL     1       0.868   9.302  20.277  0.00  0.00    +0.000 A 
ATOM      7  C   UNL     1       1.541   8.092  20.485  0.00  0.00    +0.000 A 
BRANCH   5   8
ATOM      8  O   UNL     1       0.091  11.008  18.850  0.00  0.00    +0.000 OA
BRANCH   8   9
ATOM      9  C   UNL     1       0.141  11.872  19.991  0.00  0.00    +0.000 C 
BRANCH   9  10
ATOM     10  C   UNL     1       0.538  13.250  19.555  0.00  0.00    +0.000 A 
ATOM     11  C   UNL     1       1.886  13.615  19.523  0.00  0.00    +0.000 A 
ATOM     12  C   UNL     1       2.249  14.894  19.111  0.00  0.00    +0.000 A 
ATOM     13  C   UNL     1       1.265  15.809  18.731  0.00  0.00    +0.000 A 
ATOM     14  C   UNL     1      -0.077  15.450  18.760  0.00  0.00    +0.000 A 
ATOM     15  C   UNL     1      -0.445  14.173  19.170  0.00  0.00    +0.000 A 
ENDBRANCH   9  10
ENDBRANCH   8   9
ENDBRANCH   5   8
ENDBRANCH   1   2
BRANCH   1  16
ATOM     16  C   UNL     1       2.196   5.528  20.769  0.00  0.00    +0.000 C 
BRANCH  16  17
ATOM     17  C   UNL     1       1.290   4.425  20.259  0.00  0.00    +0.000 C 
BRANCH  17  24
ATOM     18  C   UNL     1       6.035   4.200  18.022  0.00  0.00    +0.000 A 
ATOM     19  C   UNL     1       5.071   4.091  17.039  0.00  0.00    +0.000 A 
ATOM     20  N   UNL     1       3.954   3.691  17.712  0.00  0.00    +0.000 N 
ATOM     21  C   UNL     1       4.259   3.595  19.036  0.00  0.00    +0.000 A 
ATOM     22  N   UNL     1       5.518   3.885  19.266  0.00  0.00    +0.000 NA
ATOM     23  O   UNL     1       3.403   3.235  19.983  0.00  0.00    +0.000 OA
ATOM     24  C   UNL     1       2.011   3.212  19.655  0.00  0.00    +0.000 C 
ATOM     25  C   UNL     1       1.660   2.920  18.188  0.00  0.00    +0.000 C 
ATOM     26  C   UNL     1       2.664   3.401  17.152  0.00  0.00    +0.000 C 
BRANCH  18  28
ATOM     27  O   UNL     1       8.010   5.003  18.854  0.00  0.00    +0.000 OA
ATOM     28  N   UNL     1       7.421   4.574  17.849  0.00  0.00    +0.000 N 
ATOM     29  O   UNL     1       7.921   4.448  16.724  0.00  0.00    +0.000 OA
ENDBRANCH  18  28
ENDBRANCH  17  24
ENDBRANCH  16  17
ENDBRANCH   1  16
TORSDOF 8
ENDMDL
