MODEL 1
REMARK VINA RESULT:      -7.9      0.000      0.000
REMARK  Name = 
REMARK  8 active torsions:
REMARK  status: ('A' for Active; 'I' for Inactive)
REMARK    1  A    between atoms: C_1  and  C_2
REMARK    2  A    between atoms: C_2  and  C_3
REMARK    3  A    between atoms: C_3  and  N_4
REMARK    4  A    between atoms: C_3  and  C_17
REMARK    5  A    between atoms: N_7  and  C_8
REMARK    6  A    between atoms: C_8  and  C_9
REMARK    7  A    between atoms: C_9  and  C_10
REMARK    8  A    between atoms: C_10  and  C_11
REMARK                            x       y       z     vdW  Elec       q    Type
REMARK                         _______ _______ _______ _____ _____    ______ ____
ROOT
ATOM      1  N   UNL     1       6.261   5.825  16.881  0.00  0.00    +0.000 N 
ATOM      2  C   UNL     1       7.187   6.239  17.805  0.00  0.00    +0.000 C 
ATOM      3  O   UNL     1       7.694   5.516  18.650  0.00  0.00    +0.000 OA
ATOM      4  N   UNL     1       7.502   7.564  17.644  0.00  0.00    +0.000 N 
ATOM      5  H   UNL     1       5.609   6.530  16.576  0.00  0.00    +0.000 HD
ATOM      6  H   UNL     1       7.249   7.984  16.764  0.00  0.00    +0.000 HD
ENDROOT
BRANCH   1   7
ATOM      7  C   UNL     1       5.794   4.444  16.862  0.00  0.00    +0.000 C 
BRANCH   7   8
ATOM      8  C   UNL     1       4.310   4.385  17.212  0.00  0.00    +0.000 A 
ATOM      9  C   UNL     1       3.639   5.549  17.628  0.00  0.00    +0.000 A 
ATOM     10  C   UNL     1       2.294   5.500  18.002  0.00  0.00    +0.000 A 
ATOM     11  C   UNL     1       1.601   4.293  17.963  0.00  0.00    +0.000 A 
ATOM     12  C   UNL     1       2.246   3.133  17.534  0.00  0.00    +0.000 A 
ATOM     13  C   UNL     1       3.590   3.180  17.160  0.00  0.00    +0.000 A 
ENDBRANCH   7   8
BRANCH   7  15
ATOM     14  C   UNL     1       5.589   4.569  14.290  0.00  0.00    +0.000 C 
ATOM     15  C   UNL     1       6.037   3.759  15.498  0.00  0.00    +0.000 C 
ENDBRANCH   7  15
ENDBRANCH   1   7
BRANCH   4  16
ATOM     16  C   UNL     1       8.571   8.174  18.411  0.00  0.00    +0.000 C 
BRANCH  16  17
ATOM     17  C   UNL     1       8.567   9.700  18.331  0.00  0.00    +0.000 C 
BRANCH  17  18
ATOM     18  C   UNL     1       9.232  10.363  19.542  0.00  0.00    +0.000 C 
BRANCH  18  19
ATOM     19  C   UNL     1      10.340  11.286  19.096  0.00  0.00    +0.000 A 
ATOM     20  C   UNL     1      11.174  11.897  20.041  0.00  0.00    +0.000 A 
ATOM     21  C   UNL     1      12.133  12.828  19.641  0.00  0.00    +0.000 A 
ATOM     22  C   UNL     1      12.266  13.155  18.293  0.00  0.00    +0.000 A 
ATOM     23  C   UNL     1      11.453  12.542  17.343  0.00  0.00    +0.000 A 
ATOM     24  C   UNL     1      10.494  11.608  17.741  0.00  0.00    +0.000 A 
ENDBRANCH  18  19
ENDBRANCH  17  18
ENDBRANCH  16  17
ENDBRANCH   4  16
TORSDOF 7
ENDMDL
MODEL 2
REMARK VINA RESULT:      -7.8      0.463      1.117
REMARK  Name = 
REMARK  8 active torsions:
REMARK  status: ('A' for Active; 'I' for Inactive)
REMARK    1  A    between atoms: C_1  and  C_2
REMARK    2  A    between atoms: C_2  and  C_3
REMARK    3  A    between atoms: C_3  and  N_4
REMARK    4  A    between atoms: C_3  and  C_17
REMARK    5  A    between atoms: N_7  and  C_8
REMARK    6  A    between atoms: C_8  and  C_9
REMARK    7  A    between atoms: C_9  and  C_10
REMARK    8  A    between atoms: C_10  and  C_11
REMARK                            x       y       z     vdW  Elec       q    Type
REMARK                         _______ _______ _______ _____ _____    ______ ____
ROOT
ATOM      1  N   UNL     1       6.299   6.107  16.520  0.00  0.00    +0.000 N 
ATOM      2  C   UNL     1       7.158   6.424  17.542  0.00  0.00    +0.000 C 
ATOM      3  O   UNL     1       7.585   5.624  18.362  0.00  0.00    +0.000 OA
ATOM      4  N   UNL     1       7.507   7.750  17.513  0.00  0.00    +0.000 N 
ATOM      5  H   UNL     1       5.685   6.849  16.224  0.00  0.00    +0.000 HD
ATOM      6  H   UNL     1       7.331   8.244  16.654  0.00  0.00    +0.000 HD
ENDROOT
BRANCH   1   7
ATOM      7  C   UNL     1       5.811   4.743  16.354  0.00  0.00    +0.000 C 
BRANCH   7   8
ATOM      8  C   UNL     1       4.486   4.565  17.090  0.00  0.00    +0.000 A 
ATOM      9  C   UNL     1       4.065   3.281  17.478  0.00  0.00    +0.000 A 
ATOM     10  C   UNL     1       2.831   3.096  18.105  0.00  0.00    +0.000 A 
ATOM     11  C   UNL     1       2.003   4.188  18.356  0.00  0.00    +0.000 A 
ATOM     12  C   UNL     1       2.415   5.471  17.996  0.00  0.00    +0.000 A 
ATOM     13  C   UNL     1       3.648   5.658  17.368  0.00  0.00    +0.000 A 
ENDBRANCH   7   8
BRANCH   7  15
ATOM     14  C   UNL     1       6.885   4.543  14.013  0.00  0.00    +0.000 C 
ATOM     15  C   UNL     1       5.640   4.355  14.868  0.00  0.00    +0.000 C 
ENDBRANCH   7  15
ENDBRANCH   1   7
BRANCH   4  16
ATOM     16  C   UNL     1       8.524   8.271  18.406  0.00  0.00    +0.000 C 
BRANCH  16  17
ATOM     17  C   UNL     1       8.672   9.790  18.320  0.00  0.00    +0.000 C 
BRANCH  17  18
ATOM     18  C   UNL     1       9.327  10.398  19.565  0.00  0.00    +0.000 C 
BRANCH  18  19
ATOM     19  C   UNL     1      10.425  11.355  19.170  0.00  0.00    +0.000 A 
ATOM     20  C   UNL     1      11.241  11.936  20.149  0.00  0.00    +0.000 A 
ATOM     21  C   UNL     1      12.190  12.897  19.798  0.00  0.00    +0.000 A 
ATOM     22  C   UNL     1      12.332  13.283  18.467  0.00  0.00    +0.000 A 
ATOM     23  C   UNL     1      11.537  12.699  17.483  0.00  0.00    +0.000 A 
ATOM     24  C   UNL     1      10.588  11.736  17.831  0.00  0.00    +0.000 A 
ENDBRANCH  18  19
ENDBRANCH  17  18
ENDBRANCH  16  17
ENDBRANCH   4  16
TORSDOF 7
ENDMDL
MODEL 3
REMARK VINA RESULT:      -7.7      4.435      7.843
REMARK  Name = 
REMARK  8 active torsions:
REMARK  status: ('A' for Active; 'I' for Inactive)
REMARK    1  A    between atoms: C_1  and  C_2
REMARK    2  A    between atoms: C_2  and  C_3
REMARK    3  A    between atoms: C_3  and  N_4
REMARK    4  A    between atoms: C_3  and  C_17
REMARK    5  A    between atoms: N_7  and  C_8
REMARK    6  A    between atoms: C_8  and  C_9
REMARK    7  A    between atoms: C_9  and  C_10
REMARK    8  A    between atoms: C_10  and  C_11
REMARK                            x       y       z     vdW  Elec       q    Type
REMARK                         _______ _______ _______ _____ _____    ______ ____
ROOT
ATOM      1  N   UNL     1       5.135   3.753  16.464  0.00  0.00    +0.000 N 
ATOM      2  C   UNL     1       5.006   3.436  17.793  0.00  0.00    +0.000 C 
ATOM      3  O   UNL     1       5.614   3.988  18.699  0.00  0.00    +0.000 OA
ATOM      4  N   UNL     1       4.084   2.440  17.986  0.00  0.00    +0.000 N 
ATOM      5  H   UNL     1       4.977   2.995  15.821  0.00  0.00    +0.000 HD
ATOM      6  H   UNL     1       3.452   2.257  17.224  0.00  0.00    +0.000 HD
ENDROOT
BRANCH   1   7
ATOM      7  C   UNL     1       6.054   4.800  16.035  0.00  0.00    +0.000 C 
BRANCH   7   8
ATOM      8  C   UNL     1       6.423   4.607  14.566  0.00  0.00    +0.000 A 
ATOM      9  C   UNL     1       5.718   3.679  13.780  0.00  0.00    +0.000 A 
ATOM     10  C   UNL     1       6.078   3.453  12.450  0.00  0.00    +0.000 A 
ATOM     11  C   UNL     1       7.142   4.152  11.886  0.00  0.00    +0.000 A 
ATOM     12  C   UNL     1       7.839   5.091  12.645  0.00  0.00    +0.000 A 
ATOM     13  C   UNL     1       7.481   5.317  13.975  0.00  0.00    +0.000 A 
ENDBRANCH   7   8
BRANCH   7  15
ATOM     14  C   UNL     1       6.230   7.071  17.254  0.00  0.00    +0.000 C 
ATOM     15  C   UNL     1       5.474   6.217  16.245  0.00  0.00    +0.000 C 
ENDBRANCH   7  15
ENDBRANCH   1   7
BRANCH   4  16
ATOM     16  C   UNL     1       3.676   2.052  19.322  0.00  0.00    +0.000 C 
BRANCH  16  17
ATOM     17  C   UNL     1       2.184   2.269  19.576  0.00  0.00    +0.000 C 
BRANCH  17  18
ATOM     18  C   UNL     1       1.551   3.266  18.601  0.00  0.00    +0.000 C 
BRANCH  18  19
ATOM     19  C   UNL     1       1.847   4.683  19.029  0.00  0.00    +0.000 A 
ATOM     20  C   UNL     1       1.573   5.097  20.340  0.00  0.00    +0.000 A 
ATOM     21  C   UNL     1       1.750   6.430  20.711  0.00  0.00    +0.000 A 
ATOM     22  C   UNL     1       2.203   7.360  19.777  0.00  0.00    +0.000 A 
ATOM     23  C   UNL     1       2.493   6.956  18.476  0.00  0.00    +0.000 A 
ATOM     24  C   UNL     1       2.319   5.622  18.102  0.00  0.00    +0.000 A 
ENDBRANCH  18  19
ENDBRANCH  17  18
ENDBRANCH  16  17
ENDBRANCH   4  16
TORSDOF 7
ENDMDL
MODEL 4
REMARK VINA RESULT:      -7.6      1.694      2.725
REMARK  Name = 
REMARK  8 active torsions:
REMARK  status: ('A' for Active; 'I' for Inactive)
REMARK    1  A    between atoms: C_1  and  C_2
REMARK    2  A    between atoms: C_2  and  C_3
REMARK    3  A    between atoms: C_3  and  N_4
REMARK    4  A    between atoms: C_3  and  C_17
REMARK    5  A    between atoms: N_7  and  C_8
REMARK    6  A    between atoms: C_8  and  C_9
REMARK    7  A    between atoms: C_9  and  C_10
REMARK    8  A    between atoms: C_10  and  C_11
REMARK                            x       y       z     vdW  Elec       q    Type
REMARK                         _______ _______ _______ _____ _____    ______ ____
ROOT
ATOM      1  N   UNL     1       4.575   6.008  18.228  0.00  0.00    +0.000 N 
ATOM      2  C   UNL     1       5.512   6.610  17.427  0.00  0.00    +0.000 C 
ATOM      3  O   UNL     1       5.289   7.045  16.306  0.00  0.00    +0.000 OA
ATOM      4  N   UNL     1       6.731   6.692  18.051  0.00  0.00    +0.000 N 
ATOM      5  H   UNL     1       4.932   5.316  18.868  0.00  0.00    +0.000 HD
ATOM      6  H   UNL     1       6.735   6.565  19.050  0.00  0.00    +0.000 HD
ENDROOT
BRANCH   1   7
ATOM      7  C   UNL     1       3.204   5.830  17.766  0.00  0.00    +0.000 C 
BRANCH   7   8
ATOM      8  C   UNL     1       2.719   4.418  18.085  0.00  0.00    +0.000 A 
ATOM      9  C   UNL     1       3.509   3.309  17.737  0.00  0.00    +0.000 A 
ATOM     10  C   UNL     1       3.055   2.009  17.975  0.00  0.00    +0.000 A 
ATOM     11  C   UNL     1       1.812   1.800  18.567  0.00  0.00    +0.000 A 
ATOM     12  C   UNL     1       1.025   2.890  18.937  0.00  0.00    +0.000 A 
ATOM     13  C   UNL     1       1.476   4.190  18.699  0.00  0.00    +0.000 A 
ENDBRANCH   7   8
BRANCH   7  15
ATOM     14  C   UNL     1       2.272   8.239  17.724  0.00  0.00    +0.000 C 
ATOM     15  C   UNL     1       2.236   6.866  18.380  0.00  0.00    +0.000 C 
ENDBRANCH   7  15
ENDBRANCH   1   7
BRANCH   4  16
ATOM     16  C   UNL     1       7.826   7.428  17.450  0.00  0.00    +0.000 C 
BRANCH  16  17
ATOM     17  C   UNL     1       8.543   8.346  18.440  0.00  0.00    +0.000 C 
BRANCH  17  18
ATOM     18  C   UNL     1       8.355   9.832  18.119  0.00  0.00    +0.000 C 
BRANCH  18  19
ATOM     19  C   UNL     1       9.457  10.650  18.747  0.00  0.00    +0.000 A 
ATOM     20  C   UNL     1       9.444  10.916  20.123  0.00  0.00    +0.000 A 
ATOM     21  C   UNL     1      10.404  11.755  20.689  0.00  0.00    +0.000 A 
ATOM     22  C   UNL     1      11.385  12.334  19.887  0.00  0.00    +0.000 A 
ATOM     23  C   UNL     1      11.418  12.063  18.521  0.00  0.00    +0.000 A 
ATOM     24  C   UNL     1      10.460  11.222  17.952  0.00  0.00    +0.000 A 
ENDBRANCH  18  19
ENDBRANCH  17  18
ENDBRANCH  16  17
ENDBRANCH   4  16
TORSDOF 7
ENDMDL
MODEL 5
REMARK VINA RESULT:      -7.6      4.168      7.596
REMARK  Name = 
REMARK  8 active torsions:
REMARK  status: ('A' for Active; 'I' for Inactive)
REMARK    1  A    between atoms: C_1  and  C_2
REMARK    2  A    between atoms: C_2  and  C_3
REMARK    3  A    between atoms: C_3  and  N_4
REMARK    4  A    between atoms: C_3  and  C_17
REMARK    5  A    between atoms: N_7  and  C_8
REMARK    6  A    between atoms: C_8  and  C_9
REMARK    7  A    between atoms: C_9  and  C_10
REMARK    8  A    between atoms: C_10  and  C_11
REMARK                            x       y       z     vdW  Elec       q    Type
REMARK                         _______ _______ _______ _____ _____    ______ ____
ROOT
ATOM      1  N   UNL     1       5.494   3.839  16.862  0.00  0.00    +0.000 N 
ATOM      2  C   UNL     1       5.474   3.588  18.211  0.00  0.00    +0.000 C 
ATOM      3  O   UNL     1       6.136   4.197  19.040  0.00  0.00    +0.000 OA
ATOM      4  N   UNL     1       4.591   2.587  18.524  0.00  0.00    +0.000 N 
ATOM      5  H   UNL     1       5.305   3.045  16.272  0.00  0.00    +0.000 HD
ATOM      6  H   UNL     1       3.906   2.354  17.823  0.00  0.00    +0.000 HD
ENDROOT
BRANCH   1   7
ATOM      7  C   UNL     1       6.356   4.878  16.312  0.00  0.00    +0.000 C 
BRANCH   7   8
ATOM      8  C   UNL     1       6.563   4.652  14.816  0.00  0.00    +0.000 A 
ATOM      9  C   UNL     1       5.744   3.745  14.122  0.00  0.00    +0.000 A 
ATOM     10  C   UNL     1       5.956   3.488  12.766  0.00  0.00    +0.000 A 
ATOM     11  C   UNL     1       6.983   4.136  12.084  0.00  0.00    +0.000 A 
ATOM     12  C   UNL     1       7.791   5.055  12.752  0.00  0.00    +0.000 A 
ATOM     13  C   UNL     1       7.582   5.312  14.109  0.00  0.00    +0.000 A 
ENDBRANCH   7   8
BRANCH   7  15
ATOM     14  C   UNL     1       6.748   7.247  17.264  0.00  0.00    +0.000 C 
ATOM     15  C   UNL     1       5.794   6.298  16.553  0.00  0.00    +0.000 C 
ENDBRANCH   7  15
ENDBRANCH   1   7
BRANCH   4  16
ATOM     16  C   UNL     1       4.293   2.261  19.905  0.00  0.00    +0.000 C 
BRANCH  16  17
ATOM     17  C   UNL     1       3.134   3.078  20.475  0.00  0.00    +0.000 C 
BRANCH  17  18
ATOM     18  C   UNL     1       2.136   3.527  19.402  0.00  0.00    +0.000 C 
BRANCH  18  19
ATOM     19  C   UNL     1       2.083   5.033  19.328  0.00  0.00    +0.000 A 
ATOM     20  C   UNL     1       2.437   5.696  18.145  0.00  0.00    +0.000 A 
ATOM     21  C   UNL     1       2.487   7.089  18.103  0.00  0.00    +0.000 A 
ATOM     22  C   UNL     1       2.182   7.832  19.241  0.00  0.00    +0.000 A 
ATOM     23  C   UNL     1       1.813   7.185  20.418  0.00  0.00    +0.000 A 
ATOM     24  C   UNL     1       1.760   5.790  20.462  0.00  0.00    +0.000 A 
ENDBRANCH  18  19
ENDBRANCH  17  18
ENDBRANCH  16  17
ENDBRANCH   4  16
TORSDOF 7
ENDMDL
MODEL 6
REMARK VINA RESULT:      -7.6      4.980      7.934
REMARK  Name = 
REMARK  8 active torsions:
REMARK  status: ('A' for Active; 'I' for Inactive)
REMARK    1  A    between atoms: C_1  and  C_2
REMARK    2  A    between atoms: C_2  and  C_3
REMARK    3  A    between atoms: C_3  and  N_4
REMARK    4  A    between atoms: C_3  and  C_17
REMARK    5  A    between atoms: N_7  and  C_8
REMARK    6  A    between atoms: C_8  and  C_9
REMARK    7  A    between atoms: C_9  and  C_10
REMARK    8  A    between atoms: C_10  and  C_11
REMARK                            x       y       z     vdW  Elec       q    Type
REMARK                         _______ _______ _______ _____ _____    ______ ____
ROOT
ATOM      1  N   UNL     1       5.429   3.705  16.548  0.00  0.00    +0.000 N 
ATOM      2  C   UNL     1       5.215   3.430  17.875  0.00  0.00    +0.000 C 
ATOM      3  O   UNL     1       5.858   3.913  18.795  0.00  0.00    +0.000 OA
ATOM      4  N   UNL     1       4.165   2.565  18.047  0.00  0.00    +0.000 N 
ATOM      5  H   UNL     1       5.196   2.962  15.908  0.00  0.00    +0.000 HD
ATOM      6  H   UNL     1       3.540   2.454  17.265  0.00  0.00    +0.000 HD
ENDROOT
BRANCH   1   7
ATOM      7  C   UNL     1       6.491   4.616  16.138  0.00  0.00    +0.000 C 
BRANCH   7   8
ATOM      8  C   UNL     1       6.739   4.495  14.637  0.00  0.00    +0.000 A 
ATOM      9  C   UNL     1       7.698   5.313  14.014  0.00  0.00    +0.000 A 
ATOM     10  C   UNL     1       7.898   5.251  12.634  0.00  0.00    +0.000 A 
ATOM     11  C   UNL     1       7.149   4.371  11.857  0.00  0.00    +0.000 A 
ATOM     12  C   UNL     1       6.208   3.537  12.461  0.00  0.00    +0.000 A 
ATOM     13  C   UNL     1       6.006   3.598  13.841  0.00  0.00    +0.000 A 
ENDBRANCH   7   8
BRANCH   7  15
ATOM     14  C   UNL     1       4.928   6.650  15.843  0.00  0.00    +0.000 C 
ATOM     15  C   UNL     1       6.179   6.085  16.499  0.00  0.00    +0.000 C 
ENDBRANCH   7  15
ENDBRANCH   1   7
BRANCH   4  16
ATOM     16  C   UNL     1       3.664   2.257  19.372  0.00  0.00    +0.000 C 
BRANCH  16  17
ATOM     17  C   UNL     1       2.149   2.059  19.407  0.00  0.00    +0.000 C 
BRANCH  17  18
ATOM     18  C   UNL     1       1.398   3.034  18.494  0.00  0.00    +0.000 C 
BRANCH  18  19
ATOM     19  C   UNL     1       1.630   4.457  18.938  0.00  0.00    +0.000 A 
ATOM     20  C   UNL     1       2.135   5.405  18.038  0.00  0.00    +0.000 A 
ATOM     21  C   UNL     1       2.446   6.695  18.470  0.00  0.00    +0.000 A 
ATOM     22  C   UNL     1       2.254   7.048  19.805  0.00  0.00    +0.000 A 
ATOM     23  C   UNL     1       1.738   6.118  20.705  0.00  0.00    +0.000 A 
ATOM     24  C   UNL     1       1.423   4.828  20.274  0.00  0.00    +0.000 A 
ENDBRANCH  18  19
ENDBRANCH  17  18
ENDBRANCH  16  17
ENDBRANCH   4  16
TORSDOF 7
ENDMDL
MODEL 7
REMARK VINA RESULT:      -7.5      1.103      1.401
REMARK  Name = 
REMARK  8 active torsions:
REMARK  status: ('A' for Active; 'I' for Inactive)
REMARK    1  A    between atoms: C_1  and  C_2
REMARK    2  A    between atoms: C_2  and  C_3
REMARK    3  A    between atoms: C_3  and  N_4
REMARK    4  A    between atoms: C_3  and  C_17
REMARK    5  A    between atoms: N_7  and  C_8
REMARK    6  A    between atoms: C_8  and  C_9
REMARK    7  A    between atoms: C_9  and  C_10
REMARK    8  A    between atoms: C_10  and  C_11
REMARK                            x       y       z     vdW  Elec       q    Type
REMARK                         _______ _______ _______ _____ _____    ______ ____
ROOT
ATOM      1  N   UNL     1       6.575   6.251  16.726  0.00  0.00    +0.000 N 
ATOM      2  C   UNL     1       7.301   6.829  17.737  0.00  0.00    +0.000 C 
ATOM      3  O   UNL     1       7.655   6.251  18.754  0.00  0.00    +0.000 OA
ATOM      4  N   UNL     1       7.610   8.135  17.452  0.00  0.00    +0.000 N 
ATOM      5  H   UNL     1       5.976   6.876  16.211  0.00  0.00    +0.000 HD
ATOM      6  H   UNL     1       7.518   8.420  16.490  0.00  0.00    +0.000 HD
ENDROOT
BRANCH   1   7
ATOM      7  C   UNL     1       6.151   4.859  16.817  0.00  0.00    +0.000 C 
BRANCH   7   8
ATOM      8  C   UNL     1       4.662   4.782  17.148  0.00  0.00    +0.000 A 
ATOM      9  C   UNL     1       3.996   5.912  17.654  0.00  0.00    +0.000 A 
ATOM     10  C   UNL     1       2.648   5.842  18.012  0.00  0.00    +0.000 A 
ATOM     11  C   UNL     1       1.947   4.648  17.865  0.00  0.00    +0.000 A 
ATOM     12  C   UNL     1       2.587   3.524  17.345  0.00  0.00    +0.000 A 
ATOM     13  C   UNL     1       3.935   3.591  16.988  0.00  0.00    +0.000 A 
ENDBRANCH   7   8
BRANCH   7  15
ATOM     14  C   UNL     1       6.357   4.893  14.242  0.00  0.00    +0.000 C 
ATOM     15  C   UNL     1       6.438   4.070  15.520  0.00  0.00    +0.000 C 
ENDBRANCH   7  15
ENDBRANCH   1   7
BRANCH   4  16
ATOM     16  C   UNL     1       8.502   8.892  18.308  0.00  0.00    +0.000 C 
BRANCH  16  17
ATOM     17  C   UNL     1       8.674  10.342  17.856  0.00  0.00    +0.000 C 
BRANCH  17  18
ATOM     18  C   UNL     1       9.486  11.184  18.846  0.00  0.00    +0.000 C 
BRANCH  18  19
ATOM     19  C   UNL     1      10.043  12.409  18.164  0.00  0.00    +0.000 A 
ATOM     20  C   UNL     1      11.188  12.312  17.362  0.00  0.00    +0.000 A 
ATOM     21  C   UNL     1      11.765  13.457  16.812  0.00  0.00    +0.000 A 
ATOM     22  C   UNL     1      11.202  14.708  17.058  0.00  0.00    +0.000 A 
ATOM     23  C   UNL     1      10.055  14.814  17.841  0.00  0.00    +0.000 A 
ATOM     24  C   UNL     1       9.475  13.670  18.391  0.00  0.00    +0.000 A 
ENDBRANCH  18  19
ENDBRANCH  17  18
ENDBRANCH  16  17
ENDBRANCH   4  16
TORSDOF 7
ENDMDL
MODEL 8
REMARK VINA RESULT:      -7.4      1.107      1.653
REMARK  Name = 
REMARK  8 active torsions:
REMARK  status: ('A' for Active; 'I' for Inactive)
REMARK    1  A    between atoms: C_1  and  C_2
REMARK    2  A    between atoms: C_2  and  C_3
REMARK    3  A    between atoms: C_3  and  N_4
REMARK    4  A    between atoms: C_3  and  C_17
REMARK    5  A    between atoms: N_7  and  C_8
REMARK    6  A    between atoms: C_8  and  C_9
REMARK    7  A    between atoms: C_9  and  C_10
REMARK    8  A    between atoms: C_10  and  C_11
REMARK                            x       y       z     vdW  Elec       q    Type
REMARK                         _______ _______ _______ _____ _____    ______ ____
ROOT
ATOM      1  N   UNL     1       6.546   7.074  16.627  0.00  0.00    +0.000 N 
ATOM      2  C   UNL     1       7.357   7.365  17.695  0.00  0.00    +0.000 C 
ATOM      3  O   UNL     1       7.719   6.551  18.532  0.00  0.00    +0.000 OA
ATOM      4  N   UNL     1       7.743   8.681  17.691  0.00  0.00    +0.000 N 
ATOM      5  H   UNL     1       5.968   7.833  16.303  0.00  0.00    +0.000 HD
ATOM      6  H   UNL     1       7.625   9.183  16.826  0.00  0.00    +0.000 HD
ENDROOT
BRANCH   1   7
ATOM      7  C   UNL     1       6.031   5.725  16.429  0.00  0.00    +0.000 C 
BRANCH   7   8
ATOM      8  C   UNL     1       4.719   5.544  17.188  0.00  0.00    +0.000 A 
ATOM      9  C   UNL     1       3.887   6.652  17.426  0.00  0.00    +0.000 A 
ATOM     10  C   UNL     1       2.710   6.513  18.164  0.00  0.00    +0.000 A 
ATOM     11  C   UNL     1       2.346   5.267  18.670  0.00  0.00    +0.000 A 
ATOM     12  C   UNL     1       3.149   4.154  18.425  0.00  0.00    +0.000 A 
ATOM     13  C   UNL     1       4.327   4.292  17.688  0.00  0.00    +0.000 A 
ENDBRANCH   7   8
BRANCH   7  15
ATOM     14  C   UNL     1       6.292   4.000  14.524  0.00  0.00    +0.000 C 
ATOM     15  C   UNL     1       5.822   5.387  14.935  0.00  0.00    +0.000 C 
ENDBRANCH   7  15
ENDBRANCH   1   7
BRANCH   4  16
ATOM     16  C   UNL     1       8.724   9.172  18.639  0.00  0.00    +0.000 C 
BRANCH  16  17
ATOM     17  C   UNL     1       9.125  10.624  18.384  0.00  0.00    +0.000 C 
BRANCH  17  18
ATOM     18  C   UNL     1      10.280  11.091  19.278  0.00  0.00    +0.000 C 
BRANCH  18  19
ATOM     19  C   UNL     1      10.937  12.317  18.694  0.00  0.00    +0.000 A 
ATOM     20  C   UNL     1      11.061  12.459  17.305  0.00  0.00    +0.000 A 
ATOM     21  C   UNL     1      11.757  13.541  16.765  0.00  0.00    +0.000 A 
ATOM     22  C   UNL     1      12.333  14.490  17.607  0.00  0.00    +0.000 A 
ATOM     23  C   UNL     1      12.202  14.367  18.988  0.00  0.00    +0.000 A 
ATOM     24  C   UNL     1      11.504  13.287  19.531  0.00  0.00    +0.000 A 
ENDBRANCH  18  19
ENDBRANCH  17  18
ENDBRANCH  16  17
ENDBRANCH   4  16
TORSDOF 7
ENDMDL
MODEL 9
REMARK VINA RESULT:      -7.3      1.240      1.553
REMARK  Name = 
REMARK  8 active torsions:
REMARK  status: ('A' for Active; 'I' for Inactive)
REMARK    1  A    between atoms: C_1  and  C_2
REMARK    2  A    between atoms: C_2  and  C_3
REMARK    3  A    between atoms: C_3  and  N_4
REMARK    4  A    between atoms: C_3  and  C_17
REMARK    5  A    between atoms: N_7  and  C_8
REMARK    6  A    between atoms: C_8  and  C_9
REMARK    7  A    between atoms: C_9  and  C_10
REMARK    8  A    between atoms: C_10  and  C_11
REMARK                            x       y       z     vdW  Elec       q    Type
REMARK                         _______ _______ _______ _____ _____    ______ ____
ROOT
ATOM      1  N   UNL     1       5.633   5.480  17.272  0.00  0.00    +0.000 N 
ATOM      2  C   UNL     1       6.903   5.832  17.655  0.00  0.00    +0.000 C 
ATOM      3  O   UNL     1       7.849   5.058  17.712  0.00  0.00    +0.000 OA
ATOM      4  N   UNL     1       6.992   7.171  17.939  0.00  0.00    +0.000 N 
ATOM      5  H   UNL     1       4.891   6.023  17.684  0.00  0.00    +0.000 HD
ATOM      6  H   UNL     1       6.246   7.754  17.595  0.00  0.00    +0.000 HD
ENDROOT
BRANCH   1   7
ATOM      7  C   UNL     1       5.319   4.103  16.911  0.00  0.00    +0.000 C 
BRANCH   7   8
ATOM      8  C   UNL     1       4.175   3.580  17.775  0.00  0.00    +0.000 A 
ATOM      9  C   UNL     1       4.403   3.263  19.126  0.00  0.00    +0.000 A 
ATOM     10  C   UNL     1       3.379   2.734  19.915  0.00  0.00    +0.000 A 
ATOM     11  C   UNL     1       2.116   2.517  19.370  0.00  0.00    +0.000 A 
ATOM     12  C   UNL     1       1.868   2.845  18.037  0.00  0.00    +0.000 A 
ATOM     13  C   UNL     1       2.890   3.374  17.246  0.00  0.00    +0.000 A 
ENDBRANCH   7   8
BRANCH   7  15
ATOM     14  C   UNL     1       6.129   4.091  14.458  0.00  0.00    +0.000 C 
ATOM     15  C   UNL     1       4.954   3.955  15.416  0.00  0.00    +0.000 C 
ENDBRANCH   7  15
ENDBRANCH   1   7
BRANCH   4  16
ATOM     16  C   UNL     1       8.273   7.790  18.215  0.00  0.00    +0.000 C 
BRANCH  16  17
ATOM     17  C   UNL     1       8.254   9.307  18.035  0.00  0.00    +0.000 C 
BRANCH  17  18
ATOM     18  C   UNL     1       9.175  10.037  19.019  0.00  0.00    +0.000 C 
BRANCH  18  19
ATOM     19  C   UNL     1       9.769  11.265  18.373  0.00  0.00    +0.000 A 
ATOM     20  C   UNL     1      11.153  11.358  18.172  0.00  0.00    +0.000 A 
ATOM     21  C   UNL     1      11.716  12.532  17.670  0.00  0.00    +0.000 A 
ATOM     22  C   UNL     1      10.902  13.620  17.363  0.00  0.00    +0.000 A 
ATOM     23  C   UNL     1       9.523  13.532  17.543  0.00  0.00    +0.000 A 
ATOM     24  C   UNL     1       8.957  12.358  18.044  0.00  0.00    +0.000 A 
ENDBRANCH  18  19
ENDBRANCH  17  18
ENDBRANCH  16  17
ENDBRANCH   4  16
TORSDOF 7
ENDMDL
