MODEL 1
REMARK VINA RESULT:      -8.8      0.000      0.000
REMARK  Name = 
REMARK  4 active torsions:
REMARK  status: ('A' for Active; 'I' for Inactive)
REMARK    1  A    between atoms: C_1  and  C_2
REMARK    2  A    between atoms: C_8  and  C_9
REMARK    3  A    between atoms: C_13  and  S_14
REMARK    4  A    between atoms: S_14  and  C_15
REMARK                            x       y       z     vdW  Elec       q    Type
REMARK                         _______ _______ _______ _____ _____    ______ ____
ROOT
ATOM      1  C   UNL     1      -0.282   9.426  23.055  0.00  0.00    +0.000 C 
ATOM      2  C   UNL     1       0.196   9.466  21.634  0.00  0.00    +0.000 A 
ATOM      3  C   UNL     1      -0.118  10.540  20.815  0.00  0.00    +0.000 A 
ATOM      4  C   UNL     1       0.397  10.550  19.531  0.00  0.00    +0.000 A 
ATOM      5  C   UNL     1       1.205   9.482  19.118  0.00  0.00    +0.000 A 
ATOM      6  C   UNL     1       1.776   9.408  17.864  0.00  0.00    +0.000 A 
ATOM      7  N   UNL     1       2.523   8.374  17.459  0.00  0.00    +0.000 NA
ATOM      8  C   UNL     1       2.693   7.377  18.346  0.00  0.00    +0.000 A 
ATOM      9  N   UNL     1       2.204   7.380  19.596  0.00  0.00    +0.000 NA
ATOM     10  C   UNL     1       1.470   8.420  19.981  0.00  0.00    +0.000 A 
ATOM     11  N   UNL     1       0.974   8.430  21.222  0.00  0.00    +0.000 NA
ENDROOT
BRANCH   8  12
ATOM     12  C   UNL     1       3.416   6.178  17.873  0.00  0.00    +0.000 A 
ATOM     13  C   UNL     1       2.804   4.910  17.817  0.00  0.00    +0.000 A 
ATOM     14  C   UNL     1       3.473   3.792  17.301  0.00  0.00    +0.000 A 
ATOM     15  C   UNL     1       4.783   3.910  16.844  0.00  0.00    +0.000 A 
ATOM     16  C   UNL     1       5.422   5.145  16.931  0.00  0.00    +0.000 A 
ATOM     17  C   UNL     1       4.748   6.268  17.423  0.00  0.00    +0.000 A 
BRANCH  16  18
ATOM     18  S   UNL     1       7.104   5.313  16.386  0.00  0.00    +0.000 S 
ATOM     19  C   UNL     1       7.012   4.840  14.679  0.00  0.00    +0.000 C 
ATOM     20  O   UNL     1       7.448   6.721  16.448  0.00  0.00    +0.000 OA
ATOM     21  O   UNL     1       7.899   4.323  17.087  0.00  0.00    +0.000 OA
ENDBRANCH  16  18
ENDBRANCH   8  12
TORSDOF 2
ENDMDL
MODEL 2
REMARK VINA RESULT:      -8.4      0.763      1.127
REMARK  Name = 
REMARK  4 active torsions:
REMARK  status: ('A' for Active; 'I' for Inactive)
REMARK    1  A    between atoms: C_1  and  C_2
REMARK    2  A    between atoms: C_8  and  C_9
REMARK    3  A    between atoms: C_13  and  S_14
REMARK    4  A    between atoms: S_14  and  C_15
REMARK                            x       y       z     vdW  Elec       q    Type
REMARK                         _______ _______ _______ _____ _____    ______ ____
ROOT
ATOM      1  C   UNL     1      -0.600   9.454  23.059  0.00  0.00    +0.000 C 
ATOM      2  C   UNL     1      -0.023   9.545  21.677  0.00  0.00    +0.000 A 
ATOM      3  C   UNL     1      -0.267  10.655  20.883  0.00  0.00    +0.000 A 
ATOM      4  C   UNL     1       0.336  10.710  19.640  0.00  0.00    +0.000 A 
ATOM      5  C   UNL     1       1.160   9.648  19.240  0.00  0.00    +0.000 A 
ATOM      6  C   UNL     1       1.816   9.616  18.027  0.00  0.00    +0.000 A 
ATOM      7  N   UNL     1       2.578   8.589  17.633  0.00  0.00    +0.000 NA
ATOM      8  C   UNL     1       2.674   7.555  18.487  0.00  0.00    +0.000 A 
ATOM      9  N   UNL     1       2.099   7.514  19.700  0.00  0.00    +0.000 NA
ATOM     10  C   UNL     1       1.352   8.548  20.076  0.00  0.00    +0.000 A 
ATOM     11  N   UNL     1       0.769   8.515  21.278  0.00  0.00    +0.000 NA
ENDROOT
BRANCH   8  12
ATOM     12  C   UNL     1       3.415   6.365  18.017  0.00  0.00    +0.000 A 
ATOM     13  C   UNL     1       2.805   5.100  17.908  0.00  0.00    +0.000 A 
ATOM     14  C   UNL     1       3.494   3.994  17.394  0.00  0.00    +0.000 A 
ATOM     15  C   UNL     1       4.821   4.119  16.993  0.00  0.00    +0.000 A 
ATOM     16  C   UNL     1       5.457   5.352  17.134  0.00  0.00    +0.000 A 
ATOM     17  C   UNL     1       4.764   6.464  17.624  0.00  0.00    +0.000 A 
BRANCH  16  18
ATOM     18  S   UNL     1       7.160   5.529  16.661  0.00  0.00    +0.000 S 
ATOM     19  C   UNL     1       7.662   6.984  17.545  0.00  0.00    +0.000 C 
ATOM     20  O   UNL     1       7.887   4.397  17.203  0.00  0.00    +0.000 OA
ATOM     21  O   UNL     1       7.198   5.827  15.242  0.00  0.00    +0.000 OA
ENDBRANCH  16  18
ENDBRANCH   8  12
TORSDOF 2
ENDMDL
MODEL 3
REMARK VINA RESULT:      -8.3      2.173      2.868
REMARK  Name = 
REMARK  4 active torsions:
REMARK  status: ('A' for Active; 'I' for Inactive)
REMARK    1  A    between atoms: C_1  and  C_2
REMARK    2  A    between atoms: C_8  and  C_9
REMARK    3  A    between atoms: C_13  and  S_14
REMARK    4  A    between atoms: S_14  and  C_15
REMARK                            x       y       z     vdW  Elec       q    Type
REMARK                         _______ _______ _______ _____ _____    ______ ____
ROOT
ATOM      1  C   UNL     1      -0.364   9.688  23.137  0.00  0.00    +0.000 C 
ATOM      2  C   UNL     1       0.081   9.682  21.705  0.00  0.00    +0.000 A 
ATOM      3  C   UNL     1      -0.312  10.692  20.841  0.00  0.00    +0.000 A 
ATOM      4  C   UNL     1       0.175  10.665  19.546  0.00  0.00    +0.000 A 
ATOM      5  C   UNL     1       1.035   9.624  19.168  0.00  0.00    +0.000 A 
ATOM      6  C   UNL     1       1.582   9.517  17.906  0.00  0.00    +0.000 A 
ATOM      7  N   UNL     1       2.379   8.508  17.536  0.00  0.00    +0.000 NA
ATOM      8  C   UNL     1       2.625   7.569  18.468  0.00  0.00    +0.000 A 
ATOM      9  N   UNL     1       2.163   7.609  19.728  0.00  0.00    +0.000 NA
ATOM     10  C   UNL     1       1.378   8.625  20.077  0.00  0.00    +0.000 A 
ATOM     11  N   UNL     1       0.908   8.672  21.328  0.00  0.00    +0.000 NA
ENDROOT
BRANCH   8  12
ATOM     12  C   UNL     1       3.405   6.390  18.040  0.00  0.00    +0.000 A 
ATOM     13  C   UNL     1       4.343   6.454  16.991  0.00  0.00    +0.000 A 
ATOM     14  C   UNL     1       5.130   5.349  16.638  0.00  0.00    +0.000 A 
ATOM     15  C   UNL     1       4.985   4.142  17.316  0.00  0.00    +0.000 A 
ATOM     16  C   UNL     1       4.031   4.043  18.327  0.00  0.00    +0.000 A 
ATOM     17  C   UNL     1       3.261   5.152  18.698  0.00  0.00    +0.000 A 
BRANCH  16  18
ATOM     18  S   UNL     1       3.802   2.504  19.183  0.00  0.00    +0.000 S 
ATOM     19  C   UNL     1       2.351   2.809  20.157  0.00  0.00    +0.000 C 
ATOM     20  O   UNL     1       3.479   1.494  18.193  0.00  0.00    +0.000 OA
ATOM     21  O   UNL     1       4.923   2.327  20.087  0.00  0.00    +0.000 OA
ENDBRANCH  16  18
ENDBRANCH   8  12
TORSDOF 2
ENDMDL
MODEL 4
REMARK VINA RESULT:      -7.8      2.636      3.096
REMARK  Name = 
REMARK  4 active torsions:
REMARK  status: ('A' for Active; 'I' for Inactive)
REMARK    1  A    between atoms: C_1  and  C_2
REMARK    2  A    between atoms: C_8  and  C_9
REMARK    3  A    between atoms: C_13  and  S_14
REMARK    4  A    between atoms: S_14  and  C_15
REMARK                            x       y       z     vdW  Elec       q    Type
REMARK                         _______ _______ _______ _____ _____    ______ ____
ROOT
ATOM      1  C   UNL     1      -0.725  10.218  23.083  0.00  0.00    +0.000 C 
ATOM      2  C   UNL     1      -0.196  10.177  21.679  0.00  0.00    +0.000 A 
ATOM      3  C   UNL     1      -0.439  11.225  20.805  0.00  0.00    +0.000 A 
ATOM      4  C   UNL     1       0.121  11.159  19.541  0.00  0.00    +0.000 A 
ATOM      5  C   UNL     1       0.900  10.043  19.204  0.00  0.00    +0.000 A 
ATOM      6  C   UNL     1       1.510   9.892  17.976  0.00  0.00    +0.000 A 
ATOM      7  N   UNL     1       2.230   8.814  17.643  0.00  0.00    +0.000 NA
ATOM      8  C   UNL     1       2.329   7.851  18.577  0.00  0.00    +0.000 A 
ATOM      9  N   UNL     1       1.797   7.927  19.808  0.00  0.00    +0.000 NA
ATOM     10  C   UNL     1       1.092   9.011  20.121  0.00  0.00    +0.000 A 
ATOM     11  N   UNL     1       0.553   9.095  21.341  0.00  0.00    +0.000 NA
ENDROOT
BRANCH   8  12
ATOM     12  C   UNL     1       3.019   6.605  18.183  0.00  0.00    +0.000 A 
ATOM     13  C   UNL     1       4.159   6.611  17.357  0.00  0.00    +0.000 A 
ATOM     14  C   UNL     1       4.849   5.431  17.047  0.00  0.00    +0.000 A 
ATOM     15  C   UNL     1       4.403   4.208  17.541  0.00  0.00    +0.000 A 
ATOM     16  C   UNL     1       3.251   4.174  18.324  0.00  0.00    +0.000 A 
ATOM     17  C   UNL     1       2.574   5.353  18.656  0.00  0.00    +0.000 A 
BRANCH  16  18
ATOM     18  S   UNL     1       2.642   2.623  18.938  0.00  0.00    +0.000 S 
ATOM     19  C   UNL     1       3.711   1.444  18.154  0.00  0.00    +0.000 C 
ATOM     20  O   UNL     1       2.897   2.585  20.366  0.00  0.00    +0.000 OA
ATOM     21  O   UNL     1       1.302   2.434  18.417  0.00  0.00    +0.000 OA
ENDBRANCH  16  18
ENDBRANCH   8  12
TORSDOF 2
ENDMDL
MODEL 5
REMARK VINA RESULT:      -7.7      1.193      2.366
REMARK  Name = 
REMARK  4 active torsions:
REMARK  status: ('A' for Active; 'I' for Inactive)
REMARK    1  A    between atoms: C_1  and  C_2
REMARK    2  A    between atoms: C_8  and  C_9
REMARK    3  A    between atoms: C_13  and  S_14
REMARK    4  A    between atoms: S_14  and  C_15
REMARK                            x       y       z     vdW  Elec       q    Type
REMARK                         _______ _______ _______ _____ _____    ______ ____
ROOT
ATOM      1  C   UNL     1       0.271  12.425  18.523  0.00  0.00    +0.000 C 
ATOM      2  C   UNL     1       0.574  11.153  19.260  0.00  0.00    +0.000 A 
ATOM      3  C   UNL     1       0.147  10.979  20.567  0.00  0.00    +0.000 A 
ATOM      4  C   UNL     1       0.405   9.765  21.178  0.00  0.00    +0.000 A 
ATOM      5  C   UNL     1       1.083   8.774  20.454  0.00  0.00    +0.000 A 
ATOM      6  C   UNL     1       1.375   7.528  20.970  0.00  0.00    +0.000 A 
ATOM      7  N   UNL     1       2.048   6.593  20.290  0.00  0.00    +0.000 NA
ATOM      8  C   UNL     1       2.449   6.929  19.051  0.00  0.00    +0.000 A 
ATOM      9  N   UNL     1       2.182   8.103  18.457  0.00  0.00    +0.000 NA
ATOM     10  C   UNL     1       1.505   9.016  19.147  0.00  0.00    +0.000 A 
ATOM     11  N   UNL     1       1.238  10.191  18.568  0.00  0.00    +0.000 NA
ENDROOT
BRANCH   8  12
ATOM     12  C   UNL     1       3.294   5.952  18.333  0.00  0.00    +0.000 A 
ATOM     13  C   UNL     1       2.761   4.782  17.759  0.00  0.00    +0.000 A 
ATOM     14  C   UNL     1       3.557   3.896  17.019  0.00  0.00    +0.000 A 
ATOM     15  C   UNL     1       4.916   4.150  16.850  0.00  0.00    +0.000 A 
ATOM     16  C   UNL     1       5.472   5.280  17.447  0.00  0.00    +0.000 A 
ATOM     17  C   UNL     1       4.675   6.178  18.166  0.00  0.00    +0.000 A 
BRANCH  16  18
ATOM     18  S   UNL     1       7.209   5.608  17.276  0.00  0.00    +0.000 S 
ATOM     19  C   UNL     1       7.751   5.741  18.960  0.00  0.00    +0.000 C 
ATOM     20  O   UNL     1       7.824   4.429  16.695  0.00  0.00    +0.000 OA
ATOM     21  O   UNL     1       7.356   6.908  16.650  0.00  0.00    +0.000 OA
ENDBRANCH  16  18
ENDBRANCH   8  12
TORSDOF 2
ENDMDL
MODEL 6
REMARK VINA RESULT:      -7.6      1.152      1.192
REMARK  Name = 
REMARK  4 active torsions:
REMARK  status: ('A' for Active; 'I' for Inactive)
REMARK    1  A    between atoms: C_1  and  C_2
REMARK    2  A    between atoms: C_8  and  C_9
REMARK    3  A    between atoms: C_13  and  S_14
REMARK    4  A    between atoms: S_14  and  C_15
REMARK                            x       y       z     vdW  Elec       q    Type
REMARK                         _______ _______ _______ _____ _____    ______ ____
ROOT
ATOM      1  C   UNL     1      -0.790  10.962  22.693  0.00  0.00    +0.000 C 
ATOM      2  C   UNL     1      -0.284  10.544  21.343  0.00  0.00    +0.000 A 
ATOM      3  C   UNL     1      -0.640  11.255  20.207  0.00  0.00    +0.000 A 
ATOM      4  C   UNL     1      -0.100  10.858  18.997  0.00  0.00    +0.000 A 
ATOM      5  C   UNL     1       0.775   9.763  18.974  0.00  0.00    +0.000 A 
ATOM      6  C   UNL     1       1.375   9.300  17.821  0.00  0.00    +0.000 A 
ATOM      7  N   UNL     1       2.187   8.237  17.794  0.00  0.00    +0.000 NA
ATOM      8  C   UNL     1       2.393   7.613  18.967  0.00  0.00    +0.000 A 
ATOM      9  N   UNL     1       1.879   8.012  20.141  0.00  0.00    +0.000 NA
ATOM     10  C   UNL     1       1.080   9.076  20.148  0.00  0.00    +0.000 A 
ATOM     11  N   UNL     1       0.558   9.478  21.311  0.00  0.00    +0.000 NA
ENDROOT
BRANCH   8  12
ATOM     12  C   UNL     1       3.191   6.369  18.933  0.00  0.00    +0.000 A 
ATOM     13  C   UNL     1       2.770   5.193  19.583  0.00  0.00    +0.000 A 
ATOM     14  C   UNL     1       3.497   3.998  19.487  0.00  0.00    +0.000 A 
ATOM     15  C   UNL     1       4.677   3.954  18.750  0.00  0.00    +0.000 A 
ATOM     16  C   UNL     1       5.135   5.118  18.134  0.00  0.00    +0.000 A 
ATOM     17  C   UNL     1       4.399   6.306  18.209  0.00  0.00    +0.000 A 
BRANCH  16  18
ATOM     18  S   UNL     1       6.655   5.097  17.217  0.00  0.00    +0.000 S 
ATOM     19  C   UNL     1       6.253   4.086  15.816  0.00  0.00    +0.000 C 
ATOM     20  O   UNL     1       6.903   6.446  16.746  0.00  0.00    +0.000 OA
ATOM     21  O   UNL     1       7.644   4.394  18.013  0.00  0.00    +0.000 OA
ENDBRANCH  16  18
ENDBRANCH   8  12
TORSDOF 2
ENDMDL
MODEL 7
REMARK VINA RESULT:      -7.5      1.375      2.253
REMARK  Name = 
REMARK  4 active torsions:
REMARK  status: ('A' for Active; 'I' for Inactive)
REMARK    1  A    between atoms: C_1  and  C_2
REMARK    2  A    between atoms: C_8  and  C_9
REMARK    3  A    between atoms: C_13  and  S_14
REMARK    4  A    between atoms: S_14  and  C_15
REMARK                            x       y       z     vdW  Elec       q    Type
REMARK                         _______ _______ _______ _____ _____    ______ ____
ROOT
ATOM      1  C   UNL     1       0.483  11.957  19.618  0.00  0.00    +0.000 C 
ATOM      2  C   UNL     1       0.692  10.562  20.130  0.00  0.00    +0.000 A 
ATOM      3  C   UNL     1       0.153  10.170  21.346  0.00  0.00    +0.000 A 
ATOM      4  C   UNL     1       0.330   8.856  21.741  0.00  0.00    +0.000 A 
ATOM      5  C   UNL     1       1.042   7.987  20.902  0.00  0.00    +0.000 A 
ATOM      6  C   UNL     1       1.260   6.658  21.200  0.00  0.00    +0.000 A 
ATOM      7  N   UNL     1       1.965   5.837  20.414  0.00  0.00    +0.000 NA
ATOM      8  C   UNL     1       2.476   6.376  19.293  0.00  0.00    +0.000 A 
ATOM      9  N   UNL     1       2.287   7.648  18.906  0.00  0.00    +0.000 NA
ATOM     10  C   UNL     1       1.577   8.446  19.699  0.00  0.00    +0.000 A 
ATOM     11  N   UNL     1       1.388   9.716  19.327  0.00  0.00    +0.000 NA
ENDROOT
BRANCH   8  12
ATOM     12  C   UNL     1       3.354   5.513  18.475  0.00  0.00    +0.000 A 
ATOM     13  C   UNL     1       2.844   4.484  17.661  0.00  0.00    +0.000 A 
ATOM     14  C   UNL     1       3.677   3.717  16.835  0.00  0.00    +0.000 A 
ATOM     15  C   UNL     1       5.049   3.949  16.816  0.00  0.00    +0.000 A 
ATOM     16  C   UNL     1       5.581   4.934  17.646  0.00  0.00    +0.000 A 
ATOM     17  C   UNL     1       4.749   5.717  18.454  0.00  0.00    +0.000 A 
BRANCH  16  18
ATOM     18  S   UNL     1       7.332   5.226  17.666  0.00  0.00    +0.000 S 
ATOM     19  C   UNL     1       7.439   6.986  17.464  0.00  0.00    +0.000 C 
ATOM     20  O   UNL     1       7.819   4.893  18.991  0.00  0.00    +0.000 OA
ATOM     21  O   UNL     1       7.900   4.601  16.486  0.00  0.00    +0.000 OA
ENDBRANCH  16  18
ENDBRANCH   8  12
TORSDOF 2
ENDMDL
MODEL 8
REMARK VINA RESULT:      -7.4      2.381      3.532
REMARK  Name = 
REMARK  4 active torsions:
REMARK  status: ('A' for Active; 'I' for Inactive)
REMARK    1  A    between atoms: C_1  and  C_2
REMARK    2  A    between atoms: C_8  and  C_9
REMARK    3  A    between atoms: C_13  and  S_14
REMARK    4  A    between atoms: S_14  and  C_15
REMARK                            x       y       z     vdW  Elec       q    Type
REMARK                         _______ _______ _______ _____ _____    ______ ____
ROOT
ATOM      1  C   UNL     1      -0.331  12.971  18.398  0.00  0.00    +0.000 C 
ATOM      2  C   UNL     1       0.067  11.784  19.224  0.00  0.00    +0.000 A 
ATOM      3  C   UNL     1      -0.278  11.711  20.565  0.00  0.00    +0.000 A 
ATOM      4  C   UNL     1       0.066  10.568  21.263  0.00  0.00    +0.000 A 
ATOM      5  C   UNL     1       0.746   9.543  20.589  0.00  0.00    +0.000 A 
ATOM      6  C   UNL     1       1.121   8.360  21.193  0.00  0.00    +0.000 A 
ATOM      7  N   UNL     1       1.795   7.395  20.559  0.00  0.00    +0.000 NA
ATOM      8  C   UNL     1       2.112   7.633  19.274  0.00  0.00    +0.000 A 
ATOM      9  N   UNL     1       1.761   8.738  18.597  0.00  0.00    +0.000 NA
ATOM     10  C   UNL     1       1.084   9.683  19.244  0.00  0.00    +0.000 A 
ATOM     11  N   UNL     1       0.734  10.790  18.581  0.00  0.00    +0.000 NA
ENDROOT
BRANCH   8  12
ATOM     12  C   UNL     1       2.958   6.630  18.595  0.00  0.00    +0.000 A 
ATOM     13  C   UNL     1       3.808   6.969  17.525  0.00  0.00    +0.000 A 
ATOM     14  C   UNL     1       4.660   6.026  16.934  0.00  0.00    +0.000 A 
ATOM     15  C   UNL     1       4.670   4.710  17.388  0.00  0.00    +0.000 A 
ATOM     16  C   UNL     1       3.805   4.342  18.417  0.00  0.00    +0.000 A 
ATOM     17  C   UNL     1       2.971   5.288  19.025  0.00  0.00    +0.000 A 
BRANCH  16  18
ATOM     18  S   UNL     1       3.773   2.662  18.991  0.00  0.00    +0.000 S 
ATOM     19  C   UNL     1       2.216   2.565  19.836  0.00  0.00    +0.000 C 
ATOM     20  O   UNL     1       3.710   1.800  17.826  0.00  0.00    +0.000 OA
ATOM     21  O   UNL     1       4.830   2.508  19.973  0.00  0.00    +0.000 OA
ENDBRANCH  16  18
ENDBRANCH   8  12
TORSDOF 2
ENDMDL
MODEL 9
REMARK VINA RESULT:      -7.2      4.117      7.738
REMARK  Name = 
REMARK  4 active torsions:
REMARK  status: ('A' for Active; 'I' for Inactive)
REMARK    1  A    between atoms: C_1  and  C_2
REMARK    2  A    between atoms: C_8  and  C_9
REMARK    3  A    between atoms: C_13  and  S_14
REMARK    4  A    between atoms: S_14  and  C_15
REMARK                            x       y       z     vdW  Elec       q    Type
REMARK                         _______ _______ _______ _____ _____    ______ ____
ROOT
ATOM      1  C   UNL     1       6.197   4.862  14.634  0.00  0.00    +0.000 C 
ATOM      2  C   UNL     1       5.400   4.769  15.902  0.00  0.00    +0.000 A 
ATOM      3  C   UNL     1       5.359   3.586  16.624  0.00  0.00    +0.000 A 
ATOM      4  C   UNL     1       4.655   3.575  17.814  0.00  0.00    +0.000 A 
ATOM      5  C   UNL     1       4.016   4.751  18.233  0.00  0.00    +0.000 A 
ATOM      6  C   UNL     1       3.302   4.845  19.410  0.00  0.00    +0.000 A 
ATOM      7  N   UNL     1       2.668   5.958  19.796  0.00  0.00    +0.000 NA
ATOM      8  C   UNL     1       2.749   7.011  18.962  0.00  0.00    +0.000 A 
ATOM      9  N   UNL     1       3.448   7.020  17.816  0.00  0.00    +0.000 NA
ATOM     10  C   UNL     1       4.077   5.906  17.454  0.00  0.00    +0.000 A 
ATOM     11  N   UNL     1       4.771   5.902  16.311  0.00  0.00    +0.000 NA
ENDROOT
BRANCH   8  12
ATOM     12  C   UNL     1       1.958   8.207  19.316  0.00  0.00    +0.000 A 
ATOM     13  C   UNL     1       1.685   9.227  18.383  0.00  0.00    +0.000 A 
ATOM     14  C   UNL     1       0.875  10.323  18.706  0.00  0.00    +0.000 A 
ATOM     15  C   UNL     1       0.329  10.438  19.982  0.00  0.00    +0.000 A 
ATOM     16  C   UNL     1       0.622   9.463  20.934  0.00  0.00    +0.000 A 
ATOM     17  C   UNL     1       1.411   8.355  20.606  0.00  0.00    +0.000 A 
BRANCH  16  18
ATOM     18  S   UNL     1      -0.034   9.605  22.578  0.00  0.00    +0.000 S 
ATOM     19  C   UNL     1      -0.751  11.228  22.575  0.00  0.00    +0.000 C 
ATOM     20  O   UNL     1      -1.106   8.637  22.709  0.00  0.00    +0.000 OA
ATOM     21  O   UNL     1       1.083   9.607  23.504  0.00  0.00    +0.000 OA
ENDBRANCH  16  18
ENDBRANCH   8  12
TORSDOF 2
ENDMDL
