MODEL 1
REMARK VINA RESULT:      -5.7      0.000      0.000
REMARK  Name = 
REMARK  17 active torsions:
REMARK  status: ('A' for Active; 'I' for Inactive)
REMARK    1  A    between atoms: C_1  and  C_2
REMARK    2  A    between atoms: C_2  and  C_3
REMARK    3  A    between atoms: C_3  and  C_4
REMARK    4  A    between atoms: C_4  and  C_5
REMARK    5  A    between atoms: C_5  and  C_6
REMARK    6  A    between atoms: C_6  and  C_7
REMARK    7  A    between atoms: C_7  and  C_8
REMARK    8  A    between atoms: C_8  and  C_9
REMARK    9  A    between atoms: C_10  and  C_11
REMARK   10  A    between atoms: C_11  and  C_12
REMARK   11  A    between atoms: C_12  and  C_13
REMARK   12  A    between atoms: C_13  and  C_14
REMARK   13  A    between atoms: C_14  and  C_15
REMARK   14  A    between atoms: C_15  and  C_16
REMARK   15  A    between atoms: C_16  and  C_17
REMARK   16  A    between atoms: C_17  and  C_18
REMARK   17  A    between atoms: C_17  and  C_19
REMARK                            x       y       z     vdW  Elec       q    Type
REMARK                         _______ _______ _______ _____ _____    ______ ____
ROOT
ATOM      1  C   UNL     1       1.269   2.851  18.535  0.00  0.00    +0.000 C 
ENDROOT
BRANCH   1   2
ATOM      2  C   UNL     1       1.360   2.738  20.048  0.00  0.00    +0.000 C 
BRANCH   2   4
ATOM      3  C   UNL     1       1.784   5.167  20.293  0.00  0.00    +0.000 C 
ATOM      4  C   UNL     1       1.124   4.068  20.679  0.00  0.00    +0.000 C 
BRANCH   3   5
ATOM      5  C   UNL     1       1.544   6.499  20.921  0.00  0.00    +0.000 C 
BRANCH   5   6
ATOM      6  C   UNL     1       2.079   7.614  20.034  0.00  0.00    +0.000 C 
BRANCH   6   7
ATOM      7  C   UNL     1       2.540   7.046  18.702  0.00  0.00    +0.000 C 
BRANCH   7   8
ATOM      8  C   UNL     1       2.535   8.135  17.643  0.00  0.00    +0.000 C 
BRANCH   8   9
ATOM      9  C   UNL     1       1.955   9.418  18.214  0.00  0.00    +0.000 C 
BRANCH   9  10
ATOM     10  C   UNL     1       0.505   9.572  17.789  0.00  0.00    +0.000 C 
BRANCH  10  12
ATOM     11  C   UNL     1      -0.554  10.066  19.991  0.00  0.00    +0.000 C 
ATOM     12  C   UNL     1      -0.187  10.632  18.633  0.00  0.00    +0.000 C 
ENDBRANCH  10  12
ENDBRANCH   9  10
ENDBRANCH   8   9
ENDBRANCH   7   8
ENDBRANCH   6   7
ENDBRANCH   5   6
ENDBRANCH   3   5
ENDBRANCH   2   4
ENDBRANCH   1   2
BRANCH   1  13
ATOM     13  C   UNL     1       2.255   1.898  17.884  0.00  0.00    +0.000 C 
BRANCH  13  14
ATOM     14  C   UNL     1       3.650   2.494  17.927  0.00  0.00    +0.000 C 
BRANCH  14  15
ATOM     15  C   UNL     1       3.649   3.838  17.228  0.00  0.00    +0.000 C 
BRANCH  15  16
ATOM     16  C   UNL     1       4.869   4.650  17.645  0.00  0.00    +0.000 C 
BRANCH  16  17
ATOM     17  C   UNL     1       5.546   5.329  16.452  0.00  0.00    +0.000 C 
ATOM     18  C   UNL     1       6.098   6.701  16.858  0.00  0.00    +0.000 C 
BRANCH  17  19
ATOM     19  C   UNL     1       6.669   4.466  15.883  0.00  0.00    +0.000 C 
ATOM     20  N   UNL     1       6.384   3.675  14.814  0.00  0.00    +0.000 N 
ATOM     21  O   UNL     1       7.824   4.474  16.324  0.00  0.00    +0.000 OA
ATOM     22  H   UNL     1       5.471   3.598  14.389  0.00  0.00    +0.000 HD
ATOM     23  H   UNL     1       7.136   3.108  14.449  0.00  0.00    +0.000 HD
ENDBRANCH  17  19
ENDBRANCH  16  17
ENDBRANCH  15  16
ENDBRANCH  14  15
ENDBRANCH  13  14
ENDBRANCH   1  13
TORSDOF 15
ENDMDL
MODEL 2
REMARK VINA RESULT:      -5.6      3.027      6.717
REMARK  Name = 
REMARK  17 active torsions:
REMARK  status: ('A' for Active; 'I' for Inactive)
REMARK    1  A    between atoms: C_1  and  C_2
REMARK    2  A    between atoms: C_2  and  C_3
REMARK    3  A    between atoms: C_3  and  C_4
REMARK    4  A    between atoms: C_4  and  C_5
REMARK    5  A    between atoms: C_5  and  C_6
REMARK    6  A    between atoms: C_6  and  C_7
REMARK    7  A    between atoms: C_7  and  C_8
REMARK    8  A    between atoms: C_8  and  C_9
REMARK    9  A    between atoms: C_10  and  C_11
REMARK   10  A    between atoms: C_11  and  C_12
REMARK   11  A    between atoms: C_12  and  C_13
REMARK   12  A    between atoms: C_13  and  C_14
REMARK   13  A    between atoms: C_14  and  C_15
REMARK   14  A    between atoms: C_15  and  C_16
REMARK   15  A    between atoms: C_16  and  C_17
REMARK   16  A    between atoms: C_17  and  C_18
REMARK   17  A    between atoms: C_17  and  C_19
REMARK                            x       y       z     vdW  Elec       q    Type
REMARK                         _______ _______ _______ _____ _____    ______ ____
ROOT
ATOM      1  C   UNL     1       3.495   6.134  19.406  0.00  0.00    +0.000 C 
ENDROOT
BRANCH   1   2
ATOM      2  C   UNL     1       3.348   6.462  17.930  0.00  0.00    +0.000 C 
BRANCH   2   4
ATOM      3  C   UNL     1       5.165   4.910  17.275  0.00  0.00    +0.000 C 
ATOM      4  C   UNL     1       3.919   5.364  17.098  0.00  0.00    +0.000 C 
BRANCH   3   5
ATOM      5  C   UNL     1       5.735   3.808  16.447  0.00  0.00    +0.000 C 
BRANCH   5   6
ATOM      6  C   UNL     1       6.911   4.309  15.622  0.00  0.00    +0.000 C 
BRANCH   6   7
ATOM      7  C   UNL     1       6.416   5.194  14.491  0.00  0.00    +0.000 C 
BRANCH   7   8
ATOM      8  C   UNL     1       6.873   4.636  13.155  0.00  0.00    +0.000 C 
BRANCH   8   9
ATOM      9  C   UNL     1       6.215   3.291  12.898  0.00  0.00    +0.000 C 
BRANCH   9  10
ATOM     10  C   UNL     1       4.780   3.490  12.437  0.00  0.00    +0.000 C 
BRANCH  10  12
ATOM     11  C   UNL     1       3.301   3.498  10.431  0.00  0.00    +0.000 C 
ATOM     12  C   UNL     1       4.605   2.987  11.012  0.00  0.00    +0.000 C 
ENDBRANCH  10  12
ENDBRANCH   9  10
ENDBRANCH   8   9
ENDBRANCH   7   8
ENDBRANCH   6   7
ENDBRANCH   5   6
ENDBRANCH   3   5
ENDBRANCH   2   4
ENDBRANCH   1   2
BRANCH   1  13
ATOM     13  C   UNL     1       2.157   6.279  20.105  0.00  0.00    +0.000 C 
BRANCH  13  14
ATOM     14  C   UNL     1       1.900   5.064  20.978  0.00  0.00    +0.000 C 
BRANCH  14  15
ATOM     15  C   UNL     1       1.212   3.989  20.163  0.00  0.00    +0.000 C 
BRANCH  15  16
ATOM     16  C   UNL     1       1.957   2.667  20.300  0.00  0.00    +0.000 C 
BRANCH  16  17
ATOM     17  C   UNL     1       3.261   2.654  19.499  0.00  0.00    +0.000 C 
ATOM     18  C   UNL     1       4.420   2.149  20.369  0.00  0.00    +0.000 C 
BRANCH  17  19
ATOM     19  C   UNL     1       3.139   1.789  18.248  0.00  0.00    +0.000 C 
ATOM     20  N   UNL     1       3.976   0.724  18.126  0.00  0.00    +0.000 N 
ATOM     21  O   UNL     1       2.301   1.989  17.360  0.00  0.00    +0.000 OA
ATOM     22  H   UNL     1       4.695   0.484  18.795  0.00  0.00    +0.000 HD
ATOM     23  H   UNL     1       3.885   0.161  17.292  0.00  0.00    +0.000 HD
ENDBRANCH  17  19
ENDBRANCH  16  17
ENDBRANCH  15  16
ENDBRANCH  14  15
ENDBRANCH  13  14
ENDBRANCH   1  13
TORSDOF 15
ENDMDL
MODEL 3
REMARK VINA RESULT:      -5.5      2.982      5.435
REMARK  Name = 
REMARK  17 active torsions:
REMARK  status: ('A' for Active; 'I' for Inactive)
REMARK    1  A    between atoms: C_1  and  C_2
REMARK    2  A    between atoms: C_2  and  C_3
REMARK    3  A    between atoms: C_3  and  C_4
REMARK    4  A    between atoms: C_4  and  C_5
REMARK    5  A    between atoms: C_5  and  C_6
REMARK    6  A    between atoms: C_6  and  C_7
REMARK    7  A    between atoms: C_7  and  C_8
REMARK    8  A    between atoms: C_8  and  C_9
REMARK    9  A    between atoms: C_10  and  C_11
REMARK   10  A    between atoms: C_11  and  C_12
REMARK   11  A    between atoms: C_12  and  C_13
REMARK   12  A    between atoms: C_13  and  C_14
REMARK   13  A    between atoms: C_14  and  C_15
REMARK   14  A    between atoms: C_15  and  C_16
REMARK   15  A    between atoms: C_16  and  C_17
REMARK   16  A    between atoms: C_17  and  C_18
REMARK   17  A    between atoms: C_17  and  C_19
REMARK                            x       y       z     vdW  Elec       q    Type
REMARK                         _______ _______ _______ _____ _____    ______ ____
ROOT
ATOM      1  C   UNL     1       5.450   5.542  16.078  0.00  0.00    +0.000 C 
ENDROOT
BRANCH   1   2
ATOM      2  C   UNL     1       5.137   4.830  17.384  0.00  0.00    +0.000 C 
BRANCH   2   4
ATOM      3  C   UNL     1       3.800   2.850  18.042  0.00  0.00    +0.000 C 
ATOM      4  C   UNL     1       4.029   3.852  17.184  0.00  0.00    +0.000 C 
BRANCH   3   5
ATOM      5  C   UNL     1       2.690   1.874  17.846  0.00  0.00    +0.000 C 
BRANCH   5   6
ATOM      6  C   UNL     1       1.643   2.024  18.940  0.00  0.00    +0.000 C 
BRANCH   6   7
ATOM      7  C   UNL     1       2.273   2.621  20.187  0.00  0.00    +0.000 C 
BRANCH   7   8
ATOM      8  C   UNL     1       1.235   3.405  20.971  0.00  0.00    +0.000 C 
BRANCH   8   9
ATOM      9  C   UNL     1       1.253   4.864  20.549  0.00  0.00    +0.000 C 
BRANCH   9  10
ATOM     10  C   UNL     1       2.683   5.325  20.320  0.00  0.00    +0.000 C 
BRANCH  10  12
ATOM     11  C   UNL     1       2.127   6.568  18.233  0.00  0.00    +0.000 C 
ATOM     12  C   UNL     1       2.701   6.682  19.632  0.00  0.00    +0.000 C 
ENDBRANCH  10  12
ENDBRANCH   9  10
ENDBRANCH   8   9
ENDBRANCH   7   8
ENDBRANCH   6   7
ENDBRANCH   5   6
ENDBRANCH   3   5
ENDBRANCH   2   4
ENDBRANCH   1   2
BRANCH   1  13
ATOM     13  C   UNL     1       6.749   5.014  15.498  0.00  0.00    +0.000 C 
BRANCH  13  14
ATOM     14  C   UNL     1       6.450   3.972  14.435  0.00  0.00    +0.000 C 
BRANCH  14  15
ATOM     15  C   UNL     1       6.569   4.600  13.062  0.00  0.00    +0.000 C 
BRANCH  15  16
ATOM     16  C   UNL     1       6.959   3.546  12.033  0.00  0.00    +0.000 C 
BRANCH  16  17
ATOM     17  C   UNL     1       5.925   2.421  11.939  0.00  0.00    +0.000 C 
ATOM     18  C   UNL     1       4.615   2.947  11.338  0.00  0.00    +0.000 C 
BRANCH  17  19
ATOM     19  C   UNL     1       6.445   1.254  11.106  0.00  0.00    +0.000 C 
ATOM     20  N   UNL     1       6.032   0.001  11.439  0.00  0.00    +0.000 N 
ATOM     21  O   UNL     1       7.193   1.392  10.131  0.00  0.00    +0.000 OA
ATOM     22  H   UNL     1       5.427  -0.211  12.220  0.00  0.00    +0.000 HD
ATOM     23  H   UNL     1       6.386  -0.763  10.880  0.00  0.00    +0.000 HD
ENDBRANCH  17  19
ENDBRANCH  16  17
ENDBRANCH  15  16
ENDBRANCH  14  15
ENDBRANCH  13  14
ENDBRANCH   1  13
TORSDOF 15
ENDMDL
MODEL 4
REMARK VINA RESULT:      -5.4      2.442      5.266
REMARK  Name = 
REMARK  17 active torsions:
REMARK  status: ('A' for Active; 'I' for Inactive)
REMARK    1  A    between atoms: C_1  and  C_2
REMARK    2  A    between atoms: C_2  and  C_3
REMARK    3  A    between atoms: C_3  and  C_4
REMARK    4  A    between atoms: C_4  and  C_5
REMARK    5  A    between atoms: C_5  and  C_6
REMARK    6  A    between atoms: C_6  and  C_7
REMARK    7  A    between atoms: C_7  and  C_8
REMARK    8  A    between atoms: C_8  and  C_9
REMARK    9  A    between atoms: C_10  and  C_11
REMARK   10  A    between atoms: C_11  and  C_12
REMARK   11  A    between atoms: C_12  and  C_13
REMARK   12  A    between atoms: C_13  and  C_14
REMARK   13  A    between atoms: C_14  and  C_15
REMARK   14  A    between atoms: C_15  and  C_16
REMARK   15  A    between atoms: C_16  and  C_17
REMARK   16  A    between atoms: C_17  and  C_18
REMARK   17  A    between atoms: C_17  and  C_19
REMARK                            x       y       z     vdW  Elec       q    Type
REMARK                         _______ _______ _______ _____ _____    ______ ____
ROOT
ATOM      1  C   UNL     1       6.525   5.768  16.440  0.00  0.00    +0.000 C 
ENDROOT
BRANCH   1   2
ATOM      2  C   UNL     1       5.607   6.945  16.726  0.00  0.00    +0.000 C 
BRANCH   2   4
ATOM      3  C   UNL     1       3.447   7.304  17.886  0.00  0.00    +0.000 C 
ATOM      4  C   UNL     1       4.325   6.468  17.319  0.00  0.00    +0.000 C 
BRANCH   3   5
ATOM      5  C   UNL     1       2.162   6.827  18.474  0.00  0.00    +0.000 C 
BRANCH   5   6
ATOM      6  C   UNL     1       2.209   6.897  19.993  0.00  0.00    +0.000 C 
BRANCH   6   7
ATOM      7  C   UNL     1       1.602   5.640  20.592  0.00  0.00    +0.000 C 
BRANCH   7   8
ATOM      8  C   UNL     1       2.588   4.488  20.496  0.00  0.00    +0.000 C 
BRANCH   8   9
ATOM      9  C   UNL     1       1.878   3.231  20.023  0.00  0.00    +0.000 C 
BRANCH   9  10
ATOM     10  C   UNL     1       1.402   3.405  18.590  0.00  0.00    +0.000 C 
BRANCH  10  12
ATOM     11  C   UNL     1       3.194   1.729  18.150  0.00  0.00    +0.000 C 
ATOM     12  C   UNL     1       2.479   2.954  17.615  0.00  0.00    +0.000 C 
ENDBRANCH  10  12
ENDBRANCH   9  10
ENDBRANCH   8   9
ENDBRANCH   7   8
ENDBRANCH   6   7
ENDBRANCH   5   6
ENDBRANCH   3   5
ENDBRANCH   2   4
ENDBRANCH   1   2
BRANCH   1  13
ATOM     13  C   UNL     1       5.920   4.492  16.997  0.00  0.00    +0.000 C 
BRANCH  13  14
ATOM     14  C   UNL     1       5.603   3.536  15.861  0.00  0.00    +0.000 C 
BRANCH  14  15
ATOM     15  C   UNL     1       6.270   4.019  14.590  0.00  0.00    +0.000 C 
BRANCH  15  16
ATOM     16  C   UNL     1       5.230   4.233  13.497  0.00  0.00    +0.000 C 
BRANCH  16  17
ATOM     17  C   UNL     1       5.264   3.122  12.444  0.00  0.00    +0.000 C 
ATOM     18  C   UNL     1       4.208   3.379  11.360  0.00  0.00    +0.000 C 
BRANCH  17  19
ATOM     19  C   UNL     1       6.644   3.001  11.804  0.00  0.00    +0.000 C 
ATOM     20  N   UNL     1       7.078   1.760  11.457  0.00  0.00    +0.000 N 
ATOM     21  O   UNL     1       7.369   3.972  11.561  0.00  0.00    +0.000 OA
ATOM     22  H   UNL     1       6.559   0.908  11.620  0.00  0.00    +0.000 HD
ATOM     23  H   UNL     1       7.993   1.695  11.036  0.00  0.00    +0.000 HD
ENDBRANCH  17  19
ENDBRANCH  16  17
ENDBRANCH  15  16
ENDBRANCH  14  15
ENDBRANCH  13  14
ENDBRANCH   1  13
TORSDOF 15
ENDMDL
MODEL 5
REMARK VINA RESULT:      -5.4      2.534      4.745
REMARK  Name = 
REMARK  17 active torsions:
REMARK  status: ('A' for Active; 'I' for Inactive)
REMARK    1  A    between atoms: C_1  and  C_2
REMARK    2  A    between atoms: C_2  and  C_3
REMARK    3  A    between atoms: C_3  and  C_4
REMARK    4  A    between atoms: C_4  and  C_5
REMARK    5  A    between atoms: C_5  and  C_6
REMARK    6  A    between atoms: C_6  and  C_7
REMARK    7  A    between atoms: C_7  and  C_8
REMARK    8  A    between atoms: C_8  and  C_9
REMARK    9  A    between atoms: C_10  and  C_11
REMARK   10  A    between atoms: C_11  and  C_12
REMARK   11  A    between atoms: C_12  and  C_13
REMARK   12  A    between atoms: C_13  and  C_14
REMARK   13  A    between atoms: C_14  and  C_15
REMARK   14  A    between atoms: C_15  and  C_16
REMARK   15  A    between atoms: C_16  and  C_17
REMARK   16  A    between atoms: C_17  and  C_18
REMARK   17  A    between atoms: C_17  and  C_19
REMARK                            x       y       z     vdW  Elec       q    Type
REMARK                         _______ _______ _______ _____ _____    ______ ____
ROOT
ATOM      1  C   UNL     1       7.046   5.591  19.346  0.00  0.00    +0.000 C 
ENDROOT
BRANCH   1   2
ATOM      2  C   UNL     1       5.548   5.345  19.428  0.00  0.00    +0.000 C 
BRANCH   2   4
ATOM      3  C   UNL     1       4.564   3.120  19.894  0.00  0.00    +0.000 C 
ATOM      4  C   UNL     1       5.238   3.931  19.070  0.00  0.00    +0.000 C 
BRANCH   3   5
ATOM      5  C   UNL     1       4.249   1.706  19.536  0.00  0.00    +0.000 C 
BRANCH   5   6
ATOM      6  C   UNL     1       3.735   1.617  18.107  0.00  0.00    +0.000 C 
BRANCH   6   7
ATOM      7  C   UNL     1       2.274   2.029  18.051  0.00  0.00    +0.000 C 
BRANCH   7   8
ATOM      8  C   UNL     1       2.133   3.347  17.308  0.00  0.00    +0.000 C 
BRANCH   8   9
ATOM      9  C   UNL     1       1.427   4.368  18.184  0.00  0.00    +0.000 C 
BRANCH   9  10
ATOM     10  C   UNL     1       0.989   3.724  19.489  0.00  0.00    +0.000 C 
BRANCH  10  12
ATOM     11  C   UNL     1       2.016   5.886  20.184  0.00  0.00    +0.000 C 
ATOM     12  C   UNL     1       1.368   4.605  20.670  0.00  0.00    +0.000 C 
ENDBRANCH  10  12
ENDBRANCH   9  10
ENDBRANCH   8   9
ENDBRANCH   7   8
ENDBRANCH   6   7
ENDBRANCH   5   6
ENDBRANCH   3   5
ENDBRANCH   2   4
ENDBRANCH   1   2
BRANCH   1  13
ATOM     13  C   UNL     1       7.463   5.775  17.899  0.00  0.00    +0.000 C 
BRANCH  13  14
ATOM     14  C   UNL     1       6.858   7.054  17.349  0.00  0.00    +0.000 C 
BRANCH  14  15
ATOM     15  C   UNL     1       5.455   6.779  16.851  0.00  0.00    +0.000 C 
BRANCH  15  16
ATOM     16  C   UNL     1       5.496   6.254  15.421  0.00  0.00    +0.000 C 
BRANCH  16  17
ATOM     17  C   UNL     1       6.179   4.887  15.329  0.00  0.00    +0.000 C 
ATOM     18  C   UNL     1       5.147   3.761  15.477  0.00  0.00    +0.000 C 
BRANCH  17  19
ATOM     19  C   UNL     1       6.932   4.728  14.012  0.00  0.00    +0.000 C 
ATOM     20  N   UNL     1       6.555   3.720  13.180  0.00  0.00    +0.000 N 
ATOM     21  O   UNL     1       7.842   5.484  13.652  0.00  0.00    +0.000 OA
ATOM     22  H   UNL     1       5.828   3.050  13.390  0.00  0.00    +0.000 HD
ATOM     23  H   UNL     1       7.064   3.626  12.313  0.00  0.00    +0.000 HD
ENDBRANCH  17  19
ENDBRANCH  16  17
ENDBRANCH  15  16
ENDBRANCH  14  15
ENDBRANCH  13  14
ENDBRANCH   1  13
TORSDOF 15
ENDMDL
MODEL 6
REMARK VINA RESULT:      -5.4      1.218      1.407
REMARK  Name = 
REMARK  17 active torsions:
REMARK  status: ('A' for Active; 'I' for Inactive)
REMARK    1  A    between atoms: C_1  and  C_2
REMARK    2  A    between atoms: C_2  and  C_3
REMARK    3  A    between atoms: C_3  and  C_4
REMARK    4  A    between atoms: C_4  and  C_5
REMARK    5  A    between atoms: C_5  and  C_6
REMARK    6  A    between atoms: C_6  and  C_7
REMARK    7  A    between atoms: C_7  and  C_8
REMARK    8  A    between atoms: C_8  and  C_9
REMARK    9  A    between atoms: C_10  and  C_11
REMARK   10  A    between atoms: C_11  and  C_12
REMARK   11  A    between atoms: C_12  and  C_13
REMARK   12  A    between atoms: C_13  and  C_14
REMARK   13  A    between atoms: C_14  and  C_15
REMARK   14  A    between atoms: C_15  and  C_16
REMARK   15  A    between atoms: C_16  and  C_17
REMARK   16  A    between atoms: C_17  and  C_18
REMARK   17  A    between atoms: C_17  and  C_19
REMARK                            x       y       z     vdW  Elec       q    Type
REMARK                         _______ _______ _______ _____ _____    ______ ____
ROOT
ATOM      1  C   UNL     1       1.707   2.094  18.325  0.00  0.00    +0.000 C 
ENDROOT
BRANCH   1   2
ATOM      2  C   UNL     1       1.029   2.168  19.683  0.00  0.00    +0.000 C 
BRANCH   2   4
ATOM      3  C   UNL     1       1.172   4.618  20.022  0.00  0.00    +0.000 C 
ATOM      4  C   UNL     1       1.486   3.380  20.422  0.00  0.00    +0.000 C 
BRANCH   3   5
ATOM      5  C   UNL     1       1.624   5.831  20.763  0.00  0.00    +0.000 C 
BRANCH   5   6
ATOM      6  C   UNL     1       2.517   6.695  19.885  0.00  0.00    +0.000 C 
BRANCH   6   7
ATOM      7  C   UNL     1       1.777   7.953  19.464  0.00  0.00    +0.000 C 
BRANCH   7   8
ATOM      8  C   UNL     1       2.347   8.479  18.158  0.00  0.00    +0.000 C 
BRANCH   8   9
ATOM      9  C   UNL     1       1.640   9.764  17.760  0.00  0.00    +0.000 C 
BRANCH   9  10
ATOM     10  C   UNL     1       1.237  10.546  19.000  0.00  0.00    +0.000 C 
BRANCH  10  12
ATOM     11  C   UNL     1      -1.158  10.291  18.359  0.00  0.00    +0.000 C 
ATOM     12  C   UNL     1      -0.078  11.274  18.765  0.00  0.00    +0.000 C 
ENDBRANCH  10  12
ENDBRANCH   9  10
ENDBRANCH   8   9
ENDBRANCH   7   8
ENDBRANCH   6   7
ENDBRANCH   5   6
ENDBRANCH   3   5
ENDBRANCH   2   4
ENDBRANCH   1   2
BRANCH   1  13
ATOM     13  C   UNL     1       3.192   1.835  18.500  0.00  0.00    +0.000 C 
BRANCH  13  14
ATOM     14  C   UNL     1       3.977   2.641  17.481  0.00  0.00    +0.000 C 
BRANCH  14  15
ATOM     15  C   UNL     1       3.574   4.099  17.567  0.00  0.00    +0.000 C 
BRANCH  15  16
ATOM     16  C   UNL     1       4.526   4.958  16.744  0.00  0.00    +0.000 C 
BRANCH  16  17
ATOM     17  C   UNL     1       5.792   4.196  16.344  0.00  0.00    +0.000 C 
ATOM     18  C   UNL     1       5.904   4.108  14.816  0.00  0.00    +0.000 C 
BRANCH  17  19
ATOM     19  C   UNL     1       7.043   4.853  16.918  0.00  0.00    +0.000 C 
ATOM     20  N   UNL     1       7.453   6.029  16.370  0.00  0.00    +0.000 N 
ATOM     21  O   UNL     1       7.682   4.388  17.869  0.00  0.00    +0.000 OA
ATOM     22  H   UNL     1       6.999   6.482  15.589  0.00  0.00    +0.000 HD
ATOM     23  H   UNL     1       8.283   6.452  16.759  0.00  0.00    +0.000 HD
ENDBRANCH  17  19
ENDBRANCH  16  17
ENDBRANCH  15  16
ENDBRANCH  14  15
ENDBRANCH  13  14
ENDBRANCH   1  13
TORSDOF 15
ENDMDL
MODEL 7
REMARK VINA RESULT:      -5.3      1.294      1.613
REMARK  Name = 
REMARK  17 active torsions:
REMARK  status: ('A' for Active; 'I' for Inactive)
REMARK    1  A    between atoms: C_1  and  C_2
REMARK    2  A    between atoms: C_2  and  C_3
REMARK    3  A    between atoms: C_3  and  C_4
REMARK    4  A    between atoms: C_4  and  C_5
REMARK    5  A    between atoms: C_5  and  C_6
REMARK    6  A    between atoms: C_6  and  C_7
REMARK    7  A    between atoms: C_7  and  C_8
REMARK    8  A    between atoms: C_8  and  C_9
REMARK    9  A    between atoms: C_10  and  C_11
REMARK   10  A    between atoms: C_11  and  C_12
REMARK   11  A    between atoms: C_12  and  C_13
REMARK   12  A    between atoms: C_13  and  C_14
REMARK   13  A    between atoms: C_14  and  C_15
REMARK   14  A    between atoms: C_15  and  C_16
REMARK   15  A    between atoms: C_16  and  C_17
REMARK   16  A    between atoms: C_17  and  C_18
REMARK   17  A    between atoms: C_17  and  C_19
REMARK                            x       y       z     vdW  Elec       q    Type
REMARK                         _______ _______ _______ _____ _____    ______ ____
ROOT
ATOM      1  C   UNL     1       1.766   2.164  19.431  0.00  0.00    +0.000 C 
ENDROOT
BRANCH   1   2
ATOM      2  C   UNL     1       0.788   3.187  19.982  0.00  0.00    +0.000 C 
BRANCH   2   4
ATOM      3  C   UNL     1       2.202   5.187  20.357  0.00  0.00    +0.000 C 
ATOM      4  C   UNL     1       1.246   4.568  19.654  0.00  0.00    +0.000 C 
BRANCH   3   5
ATOM      5  C   UNL     1       2.665   6.567  20.026  0.00  0.00    +0.000 C 
BRANCH   5   6
ATOM      6  C   UNL     1       2.021   7.053  18.737  0.00  0.00    +0.000 C 
BRANCH   6   7
ATOM      7  C   UNL     1       2.205   8.554  18.595  0.00  0.00    +0.000 C 
BRANCH   7   8
ATOM      8  C   UNL     1       1.061   9.146  17.790  0.00  0.00    +0.000 C 
BRANCH   8   9
ATOM      9  C   UNL     1       0.139   9.941  18.698  0.00  0.00    +0.000 C 
BRANCH   9  10
ATOM     10  C   UNL     1       0.898  10.423  19.923  0.00  0.00    +0.000 C 
BRANCH  10  12
ATOM     11  C   UNL     1      -0.126   8.731  21.441  0.00  0.00    +0.000 C 
ATOM     12  C   UNL     1       0.067  10.212  21.181  0.00  0.00    +0.000 C 
ENDBRANCH  10  12
ENDBRANCH   9  10
ENDBRANCH   8   9
ENDBRANCH   7   8
ENDBRANCH   6   7
ENDBRANCH   5   6
ENDBRANCH   3   5
ENDBRANCH   2   4
ENDBRANCH   1   2
BRANCH   1  13
ATOM     13  C   UNL     1       2.097   2.488  17.986  0.00  0.00    +0.000 C 
BRANCH  13  14
ATOM     14  C   UNL     1       3.596   2.396  17.769  0.00  0.00    +0.000 C 
BRANCH  14  15
ATOM     15  C   UNL     1       4.162   3.782  17.541  0.00  0.00    +0.000 C 
BRANCH  15  16
ATOM     16  C   UNL     1       5.200   3.752  16.426  0.00  0.00    +0.000 C 
BRANCH  16  17
ATOM     17  C   UNL     1       5.300   5.093  15.695  0.00  0.00    +0.000 C 
ATOM     18  C   UNL     1       4.714   6.218  16.558  0.00  0.00    +0.000 C 
BRANCH  17  19
ATOM     19  C   UNL     1       6.744   5.421  15.328  0.00  0.00    +0.000 C 
ATOM     20  N   UNL     1       7.561   5.886  16.312  0.00  0.00    +0.000 N 
ATOM     21  O   UNL     1       7.214   5.257  14.196  0.00  0.00    +0.000 OA
ATOM     22  H   UNL     1       7.267   6.057  17.263  0.00  0.00    +0.000 HD
ATOM     23  H   UNL     1       8.514   6.100  16.054  0.00  0.00    +0.000 HD
ENDBRANCH  17  19
ENDBRANCH  16  17
ENDBRANCH  15  16
ENDBRANCH  14  15
ENDBRANCH  13  14
ENDBRANCH   1  13
TORSDOF 15
ENDMDL
MODEL 8
REMARK VINA RESULT:      -5.3      5.274      8.015
REMARK  Name = 
REMARK  17 active torsions:
REMARK  status: ('A' for Active; 'I' for Inactive)
REMARK    1  A    between atoms: C_1  and  C_2
REMARK    2  A    between atoms: C_2  and  C_3
REMARK    3  A    between atoms: C_3  and  C_4
REMARK    4  A    between atoms: C_4  and  C_5
REMARK    5  A    between atoms: C_5  and  C_6
REMARK    6  A    between atoms: C_6  and  C_7
REMARK    7  A    between atoms: C_7  and  C_8
REMARK    8  A    between atoms: C_8  and  C_9
REMARK    9  A    between atoms: C_10  and  C_11
REMARK   10  A    between atoms: C_11  and  C_12
REMARK   11  A    between atoms: C_12  and  C_13
REMARK   12  A    between atoms: C_13  and  C_14
REMARK   13  A    between atoms: C_14  and  C_15
REMARK   14  A    between atoms: C_15  and  C_16
REMARK   15  A    between atoms: C_16  and  C_17
REMARK   16  A    between atoms: C_17  and  C_18
REMARK   17  A    between atoms: C_17  and  C_19
REMARK                            x       y       z     vdW  Elec       q    Type
REMARK                         _______ _______ _______ _____ _____    ______ ____
ROOT
ATOM      1  C   UNL     1       8.171   7.948  18.354  0.00  0.00    +0.000 C 
ENDROOT
BRANCH   1   2
ATOM      2  C   UNL     1       7.575   7.125  17.224  0.00  0.00    +0.000 C 
BRANCH   2   4
ATOM      3  C   UNL     1       5.988   5.616  18.384  0.00  0.00    +0.000 C 
ATOM      4  C   UNL     1       6.202   6.670  17.587  0.00  0.00    +0.000 C 
BRANCH   3   5
ATOM      5  C   UNL     1       4.615   5.163  18.750  0.00  0.00    +0.000 C 
BRANCH   5   6
ATOM      6  C   UNL     1       4.485   3.656  18.585  0.00  0.00    +0.000 C 
BRANCH   6   7
ATOM      7  C   UNL     1       3.670   3.335  17.344  0.00  0.00    +0.000 C 
BRANCH   7   8
ATOM      8  C   UNL     1       2.420   2.561  17.727  0.00  0.00    +0.000 C 
BRANCH   8   9
ATOM      9  C   UNL     1       1.357   3.511  18.251  0.00  0.00    +0.000 C 
BRANCH   9  10
ATOM     10  C   UNL     1       0.803   3.001  19.571  0.00  0.00    +0.000 C 
BRANCH  10  12
ATOM     11  C   UNL     1       2.269   3.000  21.586  0.00  0.00    +0.000 C 
ATOM     12  C   UNL     1       1.336   3.832  20.729  0.00  0.00    +0.000 C 
ENDBRANCH  10  12
ENDBRANCH   9  10
ENDBRANCH   8   9
ENDBRANCH   7   8
ENDBRANCH   6   7
ENDBRANCH   5   6
ENDBRANCH   3   5
ENDBRANCH   2   4
ENDBRANCH   1   2
BRANCH   1  13
ATOM     13  C   UNL     1       8.226   9.411  17.956  0.00  0.00    +0.000 C 
BRANCH  13  14
ATOM     14  C   UNL     1       9.184  10.155  18.868  0.00  0.00    +0.000 C 
BRANCH  14  15
ATOM     15  C   UNL     1      10.154  10.966  18.034  0.00  0.00    +0.000 C 
BRANCH  15  16
ATOM     16  C   UNL     1      10.717  12.121  18.852  0.00  0.00    +0.000 C 
BRANCH  16  17
ATOM     17  C   UNL     1       9.613  13.013  19.426  0.00  0.00    +0.000 C 
ATOM     18  C   UNL     1      10.176  13.918  20.531  0.00  0.00    +0.000 C 
BRANCH  17  19
ATOM     19  C   UNL     1       8.964  13.865  18.340  0.00  0.00    +0.000 C 
ATOM     20  N   UNL     1       9.778  14.460  17.426  0.00  0.00    +0.000 N 
ATOM     21  O   UNL     1       7.741  14.016  18.232  0.00  0.00    +0.000 OA
ATOM     22  H   UNL     1      10.786  14.399  17.436  0.00  0.00    +0.000 HD
ATOM     23  H   UNL     1       9.335  15.022  16.714  0.00  0.00    +0.000 HD
ENDBRANCH  17  19
ENDBRANCH  16  17
ENDBRANCH  15  16
ENDBRANCH  14  15
ENDBRANCH  13  14
ENDBRANCH   1  13
TORSDOF 15
ENDMDL
MODEL 9
REMARK VINA RESULT:      -5.3      6.178      9.051
REMARK  Name = 
REMARK  17 active torsions:
REMARK  status: ('A' for Active; 'I' for Inactive)
REMARK    1  A    between atoms: C_1  and  C_2
REMARK    2  A    between atoms: C_2  and  C_3
REMARK    3  A    between atoms: C_3  and  C_4
REMARK    4  A    between atoms: C_4  and  C_5
REMARK    5  A    between atoms: C_5  and  C_6
REMARK    6  A    between atoms: C_6  and  C_7
REMARK    7  A    between atoms: C_7  and  C_8
REMARK    8  A    between atoms: C_8  and  C_9
REMARK    9  A    between atoms: C_10  and  C_11
REMARK   10  A    between atoms: C_11  and  C_12
REMARK   11  A    between atoms: C_12  and  C_13
REMARK   12  A    between atoms: C_13  and  C_14
REMARK   13  A    between atoms: C_14  and  C_15
REMARK   14  A    between atoms: C_15  and  C_16
REMARK   15  A    between atoms: C_16  and  C_17
REMARK   16  A    between atoms: C_17  and  C_18
REMARK   17  A    between atoms: C_17  and  C_19
REMARK                            x       y       z     vdW  Elec       q    Type
REMARK                         _______ _______ _______ _____ _____    ______ ____
ROOT
ATOM      1  C   UNL     1       9.250  10.343  18.264  0.00  0.00    +0.000 C 
ENDROOT
BRANCH   1   2
ATOM      2  C   UNL     1       8.168   9.400  17.764  0.00  0.00    +0.000 C 
BRANCH   2   4
ATOM      3  C   UNL     1       7.663   6.985  17.988  0.00  0.00    +0.000 C 
ATOM      4  C   UNL     1       8.274   8.082  18.452  0.00  0.00    +0.000 C 
BRANCH   3   5
ATOM      5  C   UNL     1       7.774   5.664  18.673  0.00  0.00    +0.000 C 
BRANCH   5   6
ATOM      6  C   UNL     1       7.729   4.529  17.661  0.00  0.00    +0.000 C 
BRANCH   6   7
ATOM      7  C   UNL     1       6.970   4.966  16.420  0.00  0.00    +0.000 C 
BRANCH   7   8
ATOM      8  C   UNL     1       6.016   3.869  15.980  0.00  0.00    +0.000 C 
BRANCH   8   9
ATOM      9  C   UNL     1       4.603   4.418  15.873  0.00  0.00    +0.000 C 
BRANCH   9  10
ATOM     10  C   UNL     1       4.296   5.309  17.066  0.00  0.00    +0.000 C 
BRANCH  10  12
ATOM     11  C   UNL     1       2.010   4.633  17.793  0.00  0.00    +0.000 C 
ATOM     12  C   UNL     1       3.490   4.546  18.106  0.00  0.00    +0.000 C 
ENDBRANCH  10  12
ENDBRANCH   9  10
ENDBRANCH   8   9
ENDBRANCH   7   8
ENDBRANCH   6   7
ENDBRANCH   5   6
ENDBRANCH   3   5
ENDBRANCH   2   4
ENDBRANCH   1   2
BRANCH   1  13
ATOM     13  C   UNL     1       9.387  10.222  19.771  0.00  0.00    +0.000 C 
BRANCH  13  14
ATOM     14  C   UNL     1       9.465  11.605  20.391  0.00  0.00    +0.000 C 
BRANCH  14  15
ATOM     15  C   UNL     1      10.910  12.056  20.448  0.00  0.00    +0.000 C 
BRANCH  15  16
ATOM     16  C   UNL     1      10.996  13.571  20.311  0.00  0.00    +0.000 C 
BRANCH  16  17
ATOM     17  C   UNL     1      11.606  13.995  18.973  0.00  0.00    +0.000 C 
ATOM     18  C   UNL     1      12.323  12.811  18.312  0.00  0.00    +0.000 C 
BRANCH  17  19
ATOM     19  C   UNL     1      10.544  14.551  18.028  0.00  0.00    +0.000 C 
ATOM     20  N   UNL     1       9.943  13.685  17.168  0.00  0.00    +0.000 N 
ATOM     21  O   UNL     1      10.185  15.734  18.026  0.00  0.00    +0.000 OA
ATOM     22  H   UNL     1      10.172  12.704  17.093  0.00  0.00    +0.000 HD
ATOM     23  H   UNL     1       9.244  14.067  16.547  0.00  0.00    +0.000 HD
ENDBRANCH  17  19
ENDBRANCH  16  17
ENDBRANCH  15  16
ENDBRANCH  14  15
ENDBRANCH  13  14
ENDBRANCH   1  13
TORSDOF 15
ENDMDL
