MODEL 1
REMARK VINA RESULT:      -9.6      0.000      0.000
REMARK  Name = 
REMARK  6 active torsions:
REMARK  status: ('A' for Active; 'I' for Inactive)
REMARK    1  A    between atoms: C_1  and  C_2
REMARK    2  A    between atoms: C_9  and  C_10
REMARK    3  A    between atoms: C_13  and  O_14
REMARK    4  A    between atoms: O_14  and  C_15
REMARK    5  A    between atoms: C_15  and  C_16
REMARK    6  A    between atoms: N_23  and  C_24
REMARK                            x       y       z     vdW  Elec       q    Type
REMARK                         _______ _______ _______ _____ _____    ______ ____
ROOT
ATOM      1  C   UNL     1       2.127   6.086  19.860  0.00  0.00    +0.000 A 
ATOM      2  C   UNL     1       1.443   5.279  20.820  0.00  0.00    +0.000 A 
ATOM      3  C   UNL     1       1.494   3.879  20.822  0.00  0.00    +0.000 A 
ATOM      4  C   UNL     1       2.222   3.239  19.844  0.00  0.00    +0.000 A 
ATOM      5  C   UNL     1       2.883   4.042  18.933  0.00  0.00    +0.000 A 
ATOM      6  C   UNL     1       3.648   3.573  17.805  0.00  0.00    +0.000 A 
ATOM      7  O   UNL     1       3.802   2.381  17.615  0.00  0.00    +0.000 OA
ATOM      8  N   UNL     1       4.114   4.712  17.140  0.00  0.00    +0.000 N 
ATOM      9  N   UNL     1       3.765   5.920  17.871  0.00  0.00    +0.000 N 
ATOM     10  C   UNL     1       2.899   5.435  18.903  0.00  0.00    +0.000 A 
ATOM     11  H   UNL     1       3.274   6.603  17.296  0.00  0.00    +0.000 HD
ENDROOT
BRANCH   8  12
ATOM     12  C   UNL     1       5.133   4.630  16.142  0.00  0.00    +0.000 A 
ATOM     13  C   UNL     1       6.437   5.064  16.463  0.00  0.00    +0.000 A 
ATOM     14  C   UNL     1       7.438   5.219  15.502  0.00  0.00    +0.000 A 
ATOM     15  C   UNL     1       7.160   4.876  14.196  0.00  0.00    +0.000 A 
ATOM     16  F   UNL     1       8.096   5.062  13.256  0.00  0.00    +0.000 F 
ATOM     17  C   UNL     1       5.916   4.346  13.853  0.00  0.00    +0.000 A 
ATOM     18  C   UNL     1       4.898   4.212  14.826  0.00  0.00    +0.000 A 
ENDBRANCH   8  12
BRANCH   1  19
ATOM     19  C   UNL     1       1.832   7.560  19.980  0.00  0.00    +0.000 C 
BRANCH  19  20
ATOM     20  O   UNL     1       1.868   8.063  21.306  0.00  0.00    +0.000 OA
BRANCH  20  24
ATOM     21  C   UNL     1      -0.890  11.062  22.403  0.00  0.00    +0.000 A 
ATOM     22  C   UNL     1      -0.387  10.096  23.299  0.00  0.00    +0.000 A 
ATOM     23  C   UNL     1       0.519   9.107  22.896  0.00  0.00    +0.000 A 
ATOM     24  C   UNL     1       0.907   9.009  21.566  0.00  0.00    +0.000 A 
ATOM     25  C   UNL     1       0.372   9.902  20.643  0.00  0.00    +0.000 A 
ATOM     26  C   UNL     1      -0.488  10.927  21.065  0.00  0.00    +0.000 A 
BRANCH  21  35
ATOM     27  C   UNL     1      -0.036  14.073  22.225  0.00  0.00    +0.000 C 
ATOM     28  C   UNL     1      -1.321  13.581  22.841  0.00  0.00    +0.000 A 
ATOM     29  C   UNL     1      -2.160  14.573  23.402  0.00  0.00    +0.000 A 
ATOM     30  C   UNL     1      -3.380  14.240  23.970  0.00  0.00    +0.000 A 
ATOM     31  F   UNL     1      -4.156  15.203  24.484  0.00  0.00    +0.000 F 
ATOM     32  C   UNL     1      -3.786  12.921  24.002  0.00  0.00    +0.000 A 
ATOM     33  F   UNL     1      -4.966  12.586  24.541  0.00  0.00    +0.000 F 
ATOM     34  C   UNL     1      -2.964  11.924  23.484  0.00  0.00    +0.000 A 
ATOM     35  C   UNL     1      -1.709  12.212  22.891  0.00  0.00    +0.000 A 
ENDBRANCH  21  35
ENDBRANCH  20  24
ENDBRANCH  19  20
ENDBRANCH   1  19
TORSDOF 5
ENDMDL
MODEL 2
REMARK VINA RESULT:      -9.5      4.260     11.665
REMARK  Name = 
REMARK  6 active torsions:
REMARK  status: ('A' for Active; 'I' for Inactive)
REMARK    1  A    between atoms: C_1  and  C_2
REMARK    2  A    between atoms: C_9  and  C_10
REMARK    3  A    between atoms: C_13  and  O_14
REMARK    4  A    between atoms: O_14  and  C_15
REMARK    5  A    between atoms: C_15  and  C_16
REMARK    6  A    between atoms: N_23  and  C_24
REMARK                            x       y       z     vdW  Elec       q    Type
REMARK                         _______ _______ _______ _____ _____    ______ ____
ROOT
ATOM      1  C   UNL     1      -1.162  11.045  18.331  0.00  0.00    +0.000 A 
ATOM      2  C   UNL     1      -1.526  10.236  17.210  0.00  0.00    +0.000 A 
ATOM      3  C   UNL     1      -2.850  10.058  16.789  0.00  0.00    +0.000 A 
ATOM      4  C   UNL     1      -3.860  10.674  17.495  0.00  0.00    +0.000 A 
ATOM      5  C   UNL     1      -3.482  11.459  18.568  0.00  0.00    +0.000 A 
ATOM      6  C   UNL     1      -4.382  12.139  19.464  0.00  0.00    +0.000 A 
ATOM      7  O   UNL     1      -5.585  12.098  19.283  0.00  0.00    +0.000 OA
ATOM      8  N   UNL     1      -3.583  12.786  20.414  0.00  0.00    +0.000 N 
ATOM      9  N   UNL     1      -2.172  12.637  20.093  0.00  0.00    +0.000 N 
ATOM     10  C   UNL     1      -2.183  11.702  19.010  0.00  0.00    +0.000 A 
ATOM     11  H   UNL     1      -1.627  12.266  20.870  0.00  0.00    +0.000 HD
ENDROOT
BRANCH   8  12
ATOM     12  C   UNL     1      -4.120  13.781  21.288  0.00  0.00    +0.000 A 
ATOM     13  C   UNL     1      -3.852  15.140  21.020  0.00  0.00    +0.000 A 
ATOM     14  C   UNL     1      -4.151  16.160  21.925  0.00  0.00    +0.000 A 
ATOM     15  C   UNL     1      -4.788  15.834  23.102  0.00  0.00    +0.000 A 
ATOM     16  F   UNL     1      -5.042  16.796  23.999  0.00  0.00    +0.000 F 
ATOM     17  C   UNL     1      -5.164  14.516  23.362  0.00  0.00    +0.000 A 
ATOM     18  C   UNL     1      -4.839  13.482  22.452  0.00  0.00    +0.000 A 
ENDBRANCH   8  12
BRANCH   1  19
ATOM     19  C   UNL     1       0.306  10.994  18.669  0.00  0.00    +0.000 C 
BRANCH  19  20
ATOM     20  O   UNL     1       0.616  10.269  19.848  0.00  0.00    +0.000 OA
BRANCH  20  24
ATOM     21  C   UNL     1       2.307   6.444  19.290  0.00  0.00    +0.000 A 
ATOM     22  C   UNL     1       1.770   6.891  20.515  0.00  0.00    +0.000 A 
ATOM     23  C   UNL     1       1.227   8.173  20.667  0.00  0.00    +0.000 A 
ATOM     24  C   UNL     1       1.259   9.079  19.615  0.00  0.00    +0.000 A 
ATOM     25  C   UNL     1       1.849   8.693  18.415  0.00  0.00    +0.000 A 
ATOM     26  C   UNL     1       2.336   7.387  18.251  0.00  0.00    +0.000 A 
BRANCH  21  35
ATOM     27  C   UNL     1       5.265   5.406  19.299  0.00  0.00    +0.000 C 
ATOM     28  C   UNL     1       4.053   4.538  19.076  0.00  0.00    +0.000 A 
ATOM     29  C   UNL     1       4.307   3.171  18.818  0.00  0.00    +0.000 A 
ATOM     30  C   UNL     1       3.267   2.273  18.626  0.00  0.00    +0.000 A 
ATOM     31  F   UNL     1       3.540   0.983  18.393  0.00  0.00    +0.000 F 
ATOM     32  C   UNL     1       1.961   2.715  18.676  0.00  0.00    +0.000 A 
ATOM     33  F   UNL     1       0.946   1.858  18.500  0.00  0.00    +0.000 F 
ATOM     34  C   UNL     1       1.686   4.062  18.897  0.00  0.00    +0.000 A 
ATOM     35  C   UNL     1       2.713   5.018  19.101  0.00  0.00    +0.000 A 
ENDBRANCH  21  35
ENDBRANCH  20  24
ENDBRANCH  19  20
ENDBRANCH   1  19
TORSDOF 5
ENDMDL
MODEL 3
REMARK VINA RESULT:      -9.4      1.359      1.824
REMARK  Name = 
REMARK  6 active torsions:
REMARK  status: ('A' for Active; 'I' for Inactive)
REMARK    1  A    between atoms: C_1  and  C_2
REMARK    2  A    between atoms: C_9  and  C_10
REMARK    3  A    between atoms: C_13  and  O_14
REMARK    4  A    between atoms: O_14  and  C_15
REMARK    5  A    between atoms: C_15  and  C_16
REMARK    6  A    between atoms: N_23  and  C_24
REMARK                            x       y       z     vdW  Elec       q    Type
REMARK                         _______ _______ _______ _____ _____    ______ ____
ROOT
ATOM      1  C   UNL     1       2.228   4.946  20.443  0.00  0.00    +0.000 A 
ATOM      2  C   UNL     1       1.497   3.967  21.185  0.00  0.00    +0.000 A 
ATOM      3  C   UNL     1       1.460   2.610  20.839  0.00  0.00    +0.000 A 
ATOM      4  C   UNL     1       2.146   2.192  19.720  0.00  0.00    +0.000 A 
ATOM      5  C   UNL     1       2.853   3.154  19.025  0.00  0.00    +0.000 A 
ATOM      6  C   UNL     1       3.585   2.935  17.803  0.00  0.00    +0.000 A 
ATOM      7  O   UNL     1       3.665   1.821  17.321  0.00  0.00    +0.000 OA
ATOM      8  N   UNL     1       4.120   4.175  17.433  0.00  0.00    +0.000 N 
ATOM      9  N   UNL     1       3.848   5.182  18.448  0.00  0.00    +0.000 N 
ATOM     10  C   UNL     1       2.956   4.508  19.341  0.00  0.00    +0.000 A 
ATOM     11  H   UNL     1       3.400   6.014  18.068  0.00  0.00    +0.000 HD
ENDROOT
BRANCH   8  12
ATOM     12  C   UNL     1       5.130   4.282  16.429  0.00  0.00    +0.000 A 
ATOM     13  C   UNL     1       6.433   4.671  16.811  0.00  0.00    +0.000 A 
ATOM     14  C   UNL     1       7.422   5.005  15.884  0.00  0.00    +0.000 A 
ATOM     15  C   UNL     1       7.135   4.893  14.541  0.00  0.00    +0.000 A 
ATOM     16  F   UNL     1       8.059   5.252  13.641  0.00  0.00    +0.000 F 
ATOM     17  C   UNL     1       5.894   4.414  14.120  0.00  0.00    +0.000 A 
ATOM     18  C   UNL     1       4.887   4.098  15.062  0.00  0.00    +0.000 A 
ENDBRANCH   8  12
BRANCH   1  19
ATOM     19  C   UNL     1       2.025   6.358  20.930  0.00  0.00    +0.000 C 
BRANCH  19  20
ATOM     20  O   UNL     1       2.145   7.353  19.926  0.00  0.00    +0.000 OA
BRANCH  20  24
ATOM     21  C   UNL     1      -0.372  10.632  20.765  0.00  0.00    +0.000 A 
ATOM     22  C   UNL     1      -0.246   9.508  21.607  0.00  0.00    +0.000 A 
ATOM     23  C   UNL     1       0.592   8.431  21.290  0.00  0.00    +0.000 A 
ATOM     24  C   UNL     1       1.286   8.411  20.088  0.00  0.00    +0.000 A 
ATOM     25  C   UNL     1       1.125   9.472  19.202  0.00  0.00    +0.000 A 
ATOM     26  C   UNL     1       0.332  10.575  19.553  0.00  0.00    +0.000 A 
BRANCH  21  35
ATOM     27  C   UNL     1      -2.669  12.008  19.135  0.00  0.00    +0.000 C 
ATOM     28  C   UNL     1      -2.152  12.495  20.465  0.00  0.00    +0.000 A 
ATOM     29  C   UNL     1      -2.742  13.680  20.964  0.00  0.00    +0.000 A 
ATOM     30  C   UNL     1      -2.365  14.204  22.192  0.00  0.00    +0.000 A 
ATOM     31  F   UNL     1      -2.948  15.322  22.642  0.00  0.00    +0.000 F 
ATOM     32  C   UNL     1      -1.392  13.572  22.939  0.00  0.00    +0.000 A 
ATOM     33  F   UNL     1      -1.023  14.063  24.130  0.00  0.00    +0.000 F 
ATOM     34  C   UNL     1      -0.775  12.422  22.454  0.00  0.00    +0.000 A 
ATOM     35  C   UNL     1      -1.126  11.845  21.208  0.00  0.00    +0.000 A 
ENDBRANCH  21  35
ENDBRANCH  20  24
ENDBRANCH  19  20
ENDBRANCH   1  19
TORSDOF 5
ENDMDL
MODEL 4
REMARK VINA RESULT:      -9.3      4.158     11.297
REMARK  Name = 
REMARK  6 active torsions:
REMARK  status: ('A' for Active; 'I' for Inactive)
REMARK    1  A    between atoms: C_1  and  C_2
REMARK    2  A    between atoms: C_9  and  C_10
REMARK    3  A    between atoms: C_13  and  O_14
REMARK    4  A    between atoms: O_14  and  C_15
REMARK    5  A    between atoms: C_15  and  C_16
REMARK    6  A    between atoms: N_23  and  C_24
REMARK                            x       y       z     vdW  Elec       q    Type
REMARK                         _______ _______ _______ _____ _____    ______ ____
ROOT
ATOM      1  C   UNL     1      -0.666  11.483  21.813  0.00  0.00    +0.000 A 
ATOM      2  C   UNL     1      -1.518  11.224  22.930  0.00  0.00    +0.000 A 
ATOM      3  C   UNL     1      -2.199  12.231  23.627  0.00  0.00    +0.000 A 
ATOM      4  C   UNL     1      -2.030  13.540  23.235  0.00  0.00    +0.000 A 
ATOM      5  C   UNL     1      -1.209  13.764  22.146  0.00  0.00    +0.000 A 
ATOM      6  C   UNL     1      -0.858  15.057  21.615  0.00  0.00    +0.000 A 
ATOM      7  O   UNL     1      -1.332  16.071  22.091  0.00  0.00    +0.000 OA
ATOM      8  N   UNL     1       0.009  14.823  20.541  0.00  0.00    +0.000 N 
ATOM      9  N   UNL     1       0.146  13.398  20.284  0.00  0.00    +0.000 N 
ATOM     10  C   UNL     1      -0.537  12.803  21.393  0.00  0.00    +0.000 A 
ATOM     11  H   UNL     1       1.117  13.091  20.267  0.00  0.00    +0.000 HD
ENDROOT
BRANCH   8  12
ATOM     12  C   UNL     1       0.336  15.854  19.607  0.00  0.00    +0.000 A 
ATOM     13  C   UNL     1      -0.708  16.497  18.908  0.00  0.00    +0.000 A 
ATOM     14  C   UNL     1      -0.478  17.358  17.834  0.00  0.00    +0.000 A 
ATOM     15  C   UNL     1       0.824  17.641  17.480  0.00  0.00    +0.000 A 
ATOM     16  F   UNL     1       1.060  18.430  16.424  0.00  0.00    +0.000 F 
ATOM     17  C   UNL     1       1.887  17.109  18.210  0.00  0.00    +0.000 A 
ATOM     18  C   UNL     1       1.649  16.219  19.283  0.00  0.00    +0.000 A 
ENDBRANCH   8  12
BRANCH   1  19
ATOM     19  C   UNL     1       0.053  10.262  21.297  0.00  0.00    +0.000 C 
BRANCH  19  20
ATOM     20  O   UNL     1       0.835  10.482  20.135  0.00  0.00    +0.000 OA
BRANCH  20  24
ATOM     21  C   UNL     1       2.706   7.172  18.309  0.00  0.00    +0.000 A 
ATOM     22  C   UNL     1       2.327   8.338  17.613  0.00  0.00    +0.000 A 
ATOM     23  C   UNL     1       1.697   9.414  18.251  0.00  0.00    +0.000 A 
ATOM     24  C   UNL     1       1.364   9.336  19.596  0.00  0.00    +0.000 A 
ATOM     25  C   UNL     1       1.658   8.169  20.294  0.00  0.00    +0.000 A 
ATOM     26  C   UNL     1       2.344   7.119  19.663  0.00  0.00    +0.000 A 
BRANCH  21  35
ATOM     27  C   UNL     1       1.805   4.205  17.851  0.00  0.00    +0.000 C 
ATOM     28  C   UNL     1       3.150   4.761  17.462  0.00  0.00    +0.000 A 
ATOM     29  C   UNL     1       4.059   3.842  16.886  0.00  0.00    +0.000 A 
ATOM     30  C   UNL     1       5.316   4.249  16.463  0.00  0.00    +0.000 A 
ATOM     31  F   UNL     1       6.150   3.357  15.913  0.00  0.00    +0.000 F 
ATOM     32  C   UNL     1       5.698   5.567  16.612  0.00  0.00    +0.000 A 
ATOM     33  F   UNL     1       6.906   5.975  16.201  0.00  0.00    +0.000 F 
ATOM     34  C   UNL     1       4.833   6.483  17.204  0.00  0.00    +0.000 A 
ATOM     35  C   UNL     1       3.537   6.118  17.651  0.00  0.00    +0.000 A 
ENDBRANCH  21  35
ENDBRANCH  20  24
ENDBRANCH  19  20
ENDBRANCH   1  19
TORSDOF 5
ENDMDL
MODEL 5
REMARK VINA RESULT:      -9.3      0.946      1.192
REMARK  Name = 
REMARK  6 active torsions:
REMARK  status: ('A' for Active; 'I' for Inactive)
REMARK    1  A    between atoms: C_1  and  C_2
REMARK    2  A    between atoms: C_9  and  C_10
REMARK    3  A    between atoms: C_13  and  O_14
REMARK    4  A    between atoms: O_14  and  C_15
REMARK    5  A    between atoms: C_15  and  C_16
REMARK    6  A    between atoms: N_23  and  C_24
REMARK                            x       y       z     vdW  Elec       q    Type
REMARK                         _______ _______ _______ _____ _____    ______ ____
ROOT
ATOM      1  C   UNL     1       2.277   4.946  20.478  0.00  0.00    +0.000 A 
ATOM      2  C   UNL     1       1.555   3.967  21.228  0.00  0.00    +0.000 A 
ATOM      3  C   UNL     1       1.517   2.610  20.884  0.00  0.00    +0.000 A 
ATOM      4  C   UNL     1       2.192   2.191  19.759  0.00  0.00    +0.000 A 
ATOM      5  C   UNL     1       2.892   3.154  19.056  0.00  0.00    +0.000 A 
ATOM      6  C   UNL     1       3.612   2.936  17.828  0.00  0.00    +0.000 A 
ATOM      7  O   UNL     1       3.689   1.821  17.346  0.00  0.00    +0.000 OA
ATOM      8  N   UNL     1       4.141   4.175  17.452  0.00  0.00    +0.000 N 
ATOM      9  N   UNL     1       3.877   5.183  18.467  0.00  0.00    +0.000 N 
ATOM     10  C   UNL     1       2.995   4.508  19.370  0.00  0.00    +0.000 A 
ATOM     11  H   UNL     1       3.424   6.014  18.092  0.00  0.00    +0.000 HD
ENDROOT
BRANCH   8  12
ATOM     12  C   UNL     1       5.142   4.284  16.437  0.00  0.00    +0.000 A 
ATOM     13  C   UNL     1       6.457   4.635  16.812  0.00  0.00    +0.000 A 
ATOM     14  C   UNL     1       7.442   4.968  15.881  0.00  0.00    +0.000 A 
ATOM     15  C   UNL     1       7.136   4.893  14.539  0.00  0.00    +0.000 A 
ATOM     16  F   UNL     1       8.058   5.253  13.636  0.00  0.00    +0.000 F 
ATOM     17  C   UNL     1       5.880   4.451  14.123  0.00  0.00    +0.000 A 
ATOM     18  C   UNL     1       4.878   4.136  15.069  0.00  0.00    +0.000 A 
ENDBRANCH   8  12
BRANCH   1  19
ATOM     19  C   UNL     1       2.076   6.359  20.966  0.00  0.00    +0.000 C 
BRANCH  19  20
ATOM     20  O   UNL     1       1.923   7.323  19.938  0.00  0.00    +0.000 OA
BRANCH  20  24
ATOM     21  C   UNL     1      -0.132  10.699  21.413  0.00  0.00    +0.000 A 
ATOM     22  C   UNL     1       0.026   9.501  22.139  0.00  0.00    +0.000 A 
ATOM     23  C   UNL     1       0.705   8.395  21.612  0.00  0.00    +0.000 A 
ATOM     24  C   UNL     1       1.196   8.425  20.314  0.00  0.00    +0.000 A 
ATOM     25  C   UNL     1       0.992   9.567  19.546  0.00  0.00    +0.000 A 
ATOM     26  C   UNL     1       0.364  10.693  20.101  0.00  0.00    +0.000 A 
BRANCH  21  35
ATOM     27  C   UNL     1       1.061  13.585  21.139  0.00  0.00    +0.000 C 
ATOM     28  C   UNL     1      -0.150  13.233  21.965  0.00  0.00    +0.000 A 
ATOM     29  C   UNL     1      -0.742  14.298  22.684  0.00  0.00    +0.000 A 
ATOM     30  C   UNL     1      -1.878  14.097  23.454  0.00  0.00    +0.000 A 
ATOM     31  F   UNL     1      -2.420  15.128  24.116  0.00  0.00    +0.000 F 
ATOM     32  C   UNL     1      -2.439  12.839  23.535  0.00  0.00    +0.000 A 
ATOM     33  F   UNL     1      -3.540  12.632  24.270  0.00  0.00    +0.000 F 
ATOM     34  C   UNL     1      -1.857  11.769  22.862  0.00  0.00    +0.000 A 
ATOM     35  C   UNL     1      -0.697  11.922  22.060  0.00  0.00    +0.000 A 
ENDBRANCH  21  35
ENDBRANCH  20  24
ENDBRANCH  19  20
ENDBRANCH   1  19
TORSDOF 5
ENDMDL
MODEL 6
REMARK VINA RESULT:      -9.3      1.838      2.021
REMARK  Name = 
REMARK  6 active torsions:
REMARK  status: ('A' for Active; 'I' for Inactive)
REMARK    1  A    between atoms: C_1  and  C_2
REMARK    2  A    between atoms: C_9  and  C_10
REMARK    3  A    between atoms: C_13  and  O_14
REMARK    4  A    between atoms: O_14  and  C_15
REMARK    5  A    between atoms: C_15  and  C_16
REMARK    6  A    between atoms: N_23  and  C_24
REMARK                            x       y       z     vdW  Elec       q    Type
REMARK                         _______ _______ _______ _____ _____    ______ ____
ROOT
ATOM      1  C   UNL     1       2.105   4.956  20.370  0.00  0.00    +0.000 A 
ATOM      2  C   UNL     1       1.440   3.975  21.167  0.00  0.00    +0.000 A 
ATOM      3  C   UNL     1       1.507   2.600  20.909  0.00  0.00    +0.000 A 
ATOM      4  C   UNL     1       2.235   2.163  19.824  0.00  0.00    +0.000 A 
ATOM      5  C   UNL     1       2.878   3.130  19.074  0.00  0.00    +0.000 A 
ATOM      6  C   UNL     1       3.639   2.889  17.874  0.00  0.00    +0.000 A 
ATOM      7  O   UNL     1       3.806   1.755  17.466  0.00  0.00    +0.000 OA
ATOM      8  N   UNL     1       4.085   4.138  17.430  0.00  0.00    +0.000 N 
ATOM      9  N   UNL     1       3.727   5.185  18.375  0.00  0.00    +0.000 N 
ATOM     10  C   UNL     1       2.877   4.505  19.303  0.00  0.00    +0.000 A 
ATOM     11  H   UNL     1       3.224   5.956  17.940  0.00  0.00    +0.000 HD
ENDROOT
BRANCH   8  12
ATOM     12  C   UNL     1       5.097   4.257  16.427  0.00  0.00    +0.000 A 
ATOM     13  C   UNL     1       6.391   4.667  16.811  0.00  0.00    +0.000 A 
ATOM     14  C   UNL     1       7.378   5.012  15.887  0.00  0.00    +0.000 A 
ATOM     15  C   UNL     1       7.097   4.890  14.543  0.00  0.00    +0.000 A 
ATOM     16  F   UNL     1       8.018   5.259  13.644  0.00  0.00    +0.000 F 
ATOM     17  C   UNL     1       5.865   4.390  14.120  0.00  0.00    +0.000 A 
ATOM     18  C   UNL     1       4.860   4.062  15.061  0.00  0.00    +0.000 A 
ENDBRANCH   8  12
BRANCH   1  19
ATOM     19  C   UNL     1       1.793   6.378  20.764  0.00  0.00    +0.000 C 
BRANCH  19  20
ATOM     20  O   UNL     1       2.212   7.356  19.827  0.00  0.00    +0.000 OA
BRANCH  20  24
ATOM     21  C   UNL     1      -0.056  10.901  20.124  0.00  0.00    +0.000 A 
ATOM     22  C   UNL     1       0.015   9.931  21.145  0.00  0.00    +0.000 A 
ATOM     23  C   UNL     1       0.770   8.759  21.006  0.00  0.00    +0.000 A 
ATOM     24  C   UNL     1       1.430   8.485  19.816  0.00  0.00    +0.000 A 
ATOM     25  C   UNL     1       1.319   9.389  18.763  0.00  0.00    +0.000 A 
ATOM     26  C   UNL     1       0.612  10.589  18.930  0.00  0.00    +0.000 A 
BRANCH  21  35
ATOM     27  C   UNL     1       1.449  13.544  20.887  0.00  0.00    +0.000 C 
ATOM     28  C   UNL     1      -0.046  13.422  20.735  0.00  0.00    +0.000 A 
ATOM     29  C   UNL     1      -0.795  14.593  21.000  0.00  0.00    +0.000 A 
ATOM     30  C   UNL     1      -2.175  14.606  20.864  0.00  0.00    +0.000 A 
ATOM     31  F   UNL     1      -2.854  15.733  21.113  0.00  0.00    +0.000 F 
ATOM     32  C   UNL     1      -2.838  13.459  20.475  0.00  0.00    +0.000 A 
ATOM     33  F   UNL     1      -4.170  13.459  20.333  0.00  0.00    +0.000 F 
ATOM     34  C   UNL     1      -2.126  12.287  20.240  0.00  0.00    +0.000 A 
ATOM     35  C   UNL     1      -0.715  12.222  20.362  0.00  0.00    +0.000 A 
ENDBRANCH  21  35
ENDBRANCH  20  24
ENDBRANCH  19  20
ENDBRANCH   1  19
TORSDOF 5
ENDMDL
MODEL 7
REMARK VINA RESULT:      -9.2      3.699     12.235
REMARK  Name = 
REMARK  6 active torsions:
REMARK  status: ('A' for Active; 'I' for Inactive)
REMARK    1  A    between atoms: C_1  and  C_2
REMARK    2  A    between atoms: C_9  and  C_10
REMARK    3  A    between atoms: C_13  and  O_14
REMARK    4  A    between atoms: O_14  and  C_15
REMARK    5  A    between atoms: C_15  and  C_16
REMARK    6  A    between atoms: N_23  and  C_24
REMARK                            x       y       z     vdW  Elec       q    Type
REMARK                         _______ _______ _______ _____ _____    ______ ____
ROOT
ATOM      1  C   UNL     1      -1.177  11.532  19.107  0.00  0.00    +0.000 A 
ATOM      2  C   UNL     1      -1.818  10.864  18.018  0.00  0.00    +0.000 A 
ATOM      3  C   UNL     1      -3.195  10.940  17.775  0.00  0.00    +0.000 A 
ATOM      4  C   UNL     1      -3.981  11.678  18.633  0.00  0.00    +0.000 A 
ATOM      5  C   UNL     1      -3.337  12.322  19.672  0.00  0.00    +0.000 A 
ATOM      6  C   UNL     1      -3.980  13.092  20.706  0.00  0.00    +0.000 A 
ATOM      7  O   UNL     1      -5.184  13.268  20.688  0.00  0.00    +0.000 OA
ATOM      8  N   UNL     1      -2.964  13.536  21.560  0.00  0.00    +0.000 N 
ATOM      9  N   UNL     1      -1.654  13.167  21.046  0.00  0.00    +0.000 N 
ATOM     10  C   UNL     1      -1.969  12.312  19.942  0.00  0.00    +0.000 A 
ATOM     11  H   UNL     1      -1.089  12.663  21.727  0.00  0.00    +0.000 HD
ENDROOT
BRANCH   8  12
ATOM     12  C   UNL     1      -3.199  14.554  22.535  0.00  0.00    +0.000 A 
ATOM     13  C   UNL     1      -3.276  14.189  23.896  0.00  0.00    +0.000 A 
ATOM     14  C   UNL     1      -3.708  15.069  24.889  0.00  0.00    +0.000 A 
ATOM     15  C   UNL     1      -4.015  16.366  24.536  0.00  0.00    +0.000 A 
ATOM     16  F   UNL     1      -4.473  17.209  25.470  0.00  0.00    +0.000 F 
ATOM     17  C   UNL     1      -3.854  16.798  23.219  0.00  0.00    +0.000 A 
ATOM     18  C   UNL     1      -3.438  15.896  22.212  0.00  0.00    +0.000 A 
ENDBRANCH   8  12
BRANCH   1  19
ATOM     19  C   UNL     1       0.291  11.210  19.241  0.00  0.00    +0.000 C 
BRANCH  19  20
ATOM     20  O   UNL     1       0.590  10.193  20.182  0.00  0.00    +0.000 OA
BRANCH  20  24
ATOM     21  C   UNL     1       2.771   7.083  18.348  0.00  0.00    +0.000 A 
ATOM     22  C   UNL     1       2.278   8.207  17.654  0.00  0.00    +0.000 A 
ATOM     23  C   UNL     1       1.547   9.215  18.295  0.00  0.00    +0.000 A 
ATOM     24  C   UNL     1       1.227   9.105  19.641  0.00  0.00    +0.000 A 
ATOM     25  C   UNL     1       1.636   7.971  20.337  0.00  0.00    +0.000 A 
ATOM     26  C   UNL     1       2.420   6.994  19.704  0.00  0.00    +0.000 A 
BRANCH  21  35
ATOM     27  C   UNL     1       2.060   4.112  17.643  0.00  0.00    +0.000 C 
ATOM     28  C   UNL     1       3.398   4.757  17.386  0.00  0.00    +0.000 A 
ATOM     29  C   UNL     1       4.391   3.923  16.821  0.00  0.00    +0.000 A 
ATOM     30  C   UNL     1       5.651   4.417  16.515  0.00  0.00    +0.000 A 
ATOM     31  F   UNL     1       6.566   3.604  15.971  0.00  0.00    +0.000 F 
ATOM     32  C   UNL     1       5.952   5.739  16.773  0.00  0.00    +0.000 A 
ATOM     33  F   UNL     1       7.162   6.231  16.475  0.00  0.00    +0.000 F 
ATOM     34  C   UNL     1       5.001   6.571  17.357  0.00  0.00    +0.000 A 
ATOM     35  C   UNL     1       3.699   6.116  17.687  0.00  0.00    +0.000 A 
ENDBRANCH  21  35
ENDBRANCH  20  24
ENDBRANCH  19  20
ENDBRANCH   1  19
TORSDOF 5
ENDMDL
MODEL 8
REMARK VINA RESULT:      -9.2      3.911     11.831
REMARK  Name = 
REMARK  6 active torsions:
REMARK  status: ('A' for Active; 'I' for Inactive)
REMARK    1  A    between atoms: C_1  and  C_2
REMARK    2  A    between atoms: C_9  and  C_10
REMARK    3  A    between atoms: C_13  and  O_14
REMARK    4  A    between atoms: O_14  and  C_15
REMARK    5  A    between atoms: C_15  and  C_16
REMARK    6  A    between atoms: N_23  and  C_24
REMARK                            x       y       z     vdW  Elec       q    Type
REMARK                         _______ _______ _______ _____ _____    ______ ____
ROOT
ATOM      1  C   UNL     1      -1.048  11.078  18.356  0.00  0.00    +0.000 A 
ATOM      2  C   UNL     1      -1.444  10.267  17.248  0.00  0.00    +0.000 A 
ATOM      3  C   UNL     1      -2.781  10.064  16.884  0.00  0.00    +0.000 A 
ATOM      4  C   UNL     1      -3.771  10.657  17.636  0.00  0.00    +0.000 A 
ATOM      5  C   UNL     1      -3.363  11.444  18.696  0.00  0.00    +0.000 A 
ATOM      6  C   UNL     1      -4.236  12.102  19.634  0.00  0.00    +0.000 A 
ATOM      7  O   UNL     1      -5.445  12.037  19.505  0.00  0.00    +0.000 OA
ATOM      8  N   UNL     1      -3.410  12.761  20.551  0.00  0.00    +0.000 N 
ATOM      9  N   UNL     1      -2.011  12.642  20.169  0.00  0.00    +0.000 N 
ATOM     10  C   UNL     1      -2.051  11.711  19.083  0.00  0.00    +0.000 A 
ATOM     11  H   UNL     1      -1.426  12.279  20.919  0.00  0.00    +0.000 HD
ENDROOT
BRANCH   8  12
ATOM     12  C   UNL     1      -3.927  13.741  21.454  0.00  0.00    +0.000 A 
ATOM     13  C   UNL     1      -4.200  13.362  22.786  0.00  0.00    +0.000 A 
ATOM     14  C   UNL     1      -4.898  14.182  23.675  0.00  0.00    +0.000 A 
ATOM     15  C   UNL     1      -5.283  15.437  23.253  0.00  0.00    +0.000 A 
ATOM     16  F   UNL     1      -5.991  16.217  24.080  0.00  0.00    +0.000 F 
ATOM     17  C   UNL     1      -4.943  15.891  21.979  0.00  0.00    +0.000 A 
ATOM     18  C   UNL     1      -4.256  15.048  21.074  0.00  0.00    +0.000 A 
ENDBRANCH   8  12
BRANCH   1  19
ATOM     19  C   UNL     1       0.435  11.055  18.630  0.00  0.00    +0.000 C 
BRANCH  19  20
ATOM     20  O   UNL     1       0.816  10.281  19.756  0.00  0.00    +0.000 OA
BRANCH  20  24
ATOM     21  C   UNL     1       2.313   6.422  18.943  0.00  0.00    +0.000 A 
ATOM     22  C   UNL     1       1.901   6.848  20.223  0.00  0.00    +0.000 A 
ATOM     23  C   UNL     1       1.420   8.142  20.458  0.00  0.00    +0.000 A 
ATOM     24  C   UNL     1       1.393   9.078  19.433  0.00  0.00    +0.000 A 
ATOM     25  C   UNL     1       1.861   8.711  18.175  0.00  0.00    +0.000 A 
ATOM     26  C   UNL     1       2.285   7.396  17.932  0.00  0.00    +0.000 A 
BRANCH  21  35
ATOM     27  C   UNL     1       0.885   3.970  20.276  0.00  0.00    +0.000 C 
ATOM     28  C   UNL     1       2.027   3.869  19.297  0.00  0.00    +0.000 A 
ATOM     29  C   UNL     1       2.485   2.561  19.012  0.00  0.00    +0.000 A 
ATOM     30  C   UNL     1       3.511   2.345  18.104  0.00  0.00    +0.000 A 
ATOM     31  F   UNL     1       3.917   1.095  17.848  0.00  0.00    +0.000 F 
ATOM     32  C   UNL     1       4.107   3.418  17.473  0.00  0.00    +0.000 A 
ATOM     33  F   UNL     1       5.095   3.224  16.588  0.00  0.00    +0.000 F 
ATOM     34  C   UNL     1       3.694   4.716  17.761  0.00  0.00    +0.000 A 
ATOM     35  C   UNL     1       2.649   4.990  18.678  0.00  0.00    +0.000 A 
ENDBRANCH  21  35
ENDBRANCH  20  24
ENDBRANCH  19  20
ENDBRANCH   1  19
TORSDOF 5
ENDMDL
MODEL 9
REMARK VINA RESULT:      -9.2      3.986     11.731
REMARK  Name = 
REMARK  6 active torsions:
REMARK  status: ('A' for Active; 'I' for Inactive)
REMARK    1  A    between atoms: C_1  and  C_2
REMARK    2  A    between atoms: C_9  and  C_10
REMARK    3  A    between atoms: C_13  and  O_14
REMARK    4  A    between atoms: O_14  and  C_15
REMARK    5  A    between atoms: C_15  and  C_16
REMARK    6  A    between atoms: N_23  and  C_24
REMARK                            x       y       z     vdW  Elec       q    Type
REMARK                         _______ _______ _______ _____ _____    ______ ____
ROOT
ATOM      1  C   UNL     1       1.082  12.903  19.115  0.00  0.00    +0.000 A 
ATOM      2  C   UNL     1       1.855  13.991  18.605  0.00  0.00    +0.000 A 
ATOM      3  C   UNL     1       1.500  15.335  18.782  0.00  0.00    +0.000 A 
ATOM      4  C   UNL     1       0.341  15.631  19.465  0.00  0.00    +0.000 A 
ATOM      5  C   UNL     1      -0.384  14.562  19.957  0.00  0.00    +0.000 A 
ATOM      6  C   UNL     1      -1.647  14.654  20.645  0.00  0.00    +0.000 A 
ATOM      7  O   UNL     1      -2.142  15.739  20.887  0.00  0.00    +0.000 OA
ATOM      8  N   UNL     1      -2.035  13.342  20.938  0.00  0.00    +0.000 N 
ATOM      9  N   UNL     1      -0.999  12.395  20.556  0.00  0.00    +0.000 N 
ATOM     10  C   UNL     1      -0.063  13.211  19.844  0.00  0.00    +0.000 A 
ATOM     11  H   UNL     1      -1.345  11.652  19.951  0.00  0.00    +0.000 HD
ENDROOT
BRANCH   8  12
ATOM     12  C   UNL     1      -3.094  13.064  21.857  0.00  0.00    +0.000 A 
ATOM     13  C   UNL     1      -4.426  13.089  21.389  0.00  0.00    +0.000 A 
ATOM     14  C   UNL     1      -5.527  13.040  22.246  0.00  0.00    +0.000 A 
ATOM     15  C   UNL     1      -5.306  12.901  23.599  0.00  0.00    +0.000 A 
ATOM     16  F   UNL     1      -6.351  12.897  24.437  0.00  0.00    +0.000 F 
ATOM     17  C   UNL     1      -4.008  12.768  24.094  0.00  0.00    +0.000 A 
ATOM     18  C   UNL     1      -2.895  12.841  23.225  0.00  0.00    +0.000 A 
ENDBRANCH   8  12
BRANCH   1  19
ATOM     19  C   UNL     1       1.592  11.545  18.702  0.00  0.00    +0.000 C 
BRANCH  19  20
ATOM     20  O   UNL     1       0.834  10.453  19.196  0.00  0.00    +0.000 OA
BRANCH  20  24
ATOM     21  C   UNL     1       2.442   6.564  18.902  0.00  0.00    +0.000 A 
ATOM     22  C   UNL     1       1.956   7.121  20.103  0.00  0.00    +0.000 A 
ATOM     23  C   UNL     1       1.440   8.421  20.165  0.00  0.00    +0.000 A 
ATOM     24  C   UNL     1       1.448   9.236  19.041  0.00  0.00    +0.000 A 
ATOM     25  C   UNL     1       1.988   8.741  17.858  0.00  0.00    +0.000 A 
ATOM     26  C   UNL     1       2.448   7.417  17.787  0.00  0.00    +0.000 A 
BRANCH  21  35
ATOM     27  C   UNL     1       5.378   5.469  18.972  0.00  0.00    +0.000 C 
ATOM     28  C   UNL     1       4.147   4.612  18.822  0.00  0.00    +0.000 A 
ATOM     29  C   UNL     1       4.372   3.224  18.667  0.00  0.00    +0.000 A 
ATOM     30  C   UNL     1       3.313   2.336  18.550  0.00  0.00    +0.000 A 
ATOM     31  F   UNL     1       3.558   1.026  18.413  0.00  0.00    +0.000 F 
ATOM     32  C   UNL     1       2.016   2.807  18.574  0.00  0.00    +0.000 A 
ATOM     33  F   UNL     1       0.983   1.960  18.469  0.00  0.00    +0.000 F 
ATOM     34  C   UNL     1       1.770   4.172  18.694  0.00  0.00    +0.000 A 
ATOM     35  C   UNL     1       2.817   5.120  18.819  0.00  0.00    +0.000 A 
ENDBRANCH  21  35
ENDBRANCH  20  24
ENDBRANCH  19  20
ENDBRANCH   1  19
TORSDOF 5
ENDMDL
