MODEL 1
REMARK VINA RESULT:      -7.2      0.000      0.000
REMARK  Name = 
REMARK  9 active torsions:
REMARK  status: ('A' for Active; 'I' for Inactive)
REMARK    1  A    between atoms: C_1  and  C_2
REMARK    2  A    between atoms: C_2  and  C_3
REMARK    3  A    between atoms: C_4  and  C_5
REMARK    4  A    between atoms: C_5  and  C_6
REMARK    5  A    between atoms: C_11  and  C_12
REMARK    6  A    between atoms: C_12  and  C_13
REMARK    7  A    between atoms: N_15  and  C_16
REMARK    8  A    between atoms: C_16  and  C_17
REMARK    9  A    between atoms: C_16  and  C_18
REMARK                            x       y       z     vdW  Elec       q    Type
REMARK                         _______ _______ _______ _____ _____    ______ ____
ROOT
ATOM      1  C   UNL     1       5.584   4.172  15.194  0.00  0.00    +0.000 C 
ATOM      2  C   UNL     1       6.546   5.262  15.608  0.00  0.00    +0.000 C 
ATOM      3  O   UNL     1       7.715   5.356  15.263  0.00  0.00    +0.000 OA
ATOM      4  C   UNL     1       5.918   6.237  16.508  0.00  0.00    +0.000 C 
ATOM      5  C   UNL     1       4.718   5.738  16.809  0.00  0.00    +0.000 C 
ATOM      6  C   UNL     1       4.415   4.398  16.190  0.00  0.00    +0.000 C 
ENDROOT
BRANCH   1   7
ATOM      7  C   UNL     1       5.111   4.354  13.746  0.00  0.00    +0.000 C 
BRANCH   7   9
ATOM      8  C   UNL     1       5.310   2.949  11.661  0.00  0.00    +0.000 C 
ATOM      9  C   UNL     1       5.868   3.546  12.726  0.00  0.00    +0.000 C 
BRANCH   8  11
ATOM     10  C   UNL     1       3.573   3.905  10.145  0.00  0.00    +0.000 C 
ATOM     11  C   UNL     1       3.852   2.956  11.301  0.00  0.00    +0.000 C 
ENDBRANCH   8  11
ENDBRANCH   7   9
ENDBRANCH   1   7
BRANCH   6  12
ATOM     12  C   UNL     1       4.344   3.305  17.265  0.00  0.00    +0.000 C 
BRANCH  12  13
ATOM     13  C   UNL     1       3.007   3.342  17.981  0.00  0.00    +0.000 C 
ATOM     14  O   UNL     1       1.942   3.181  17.395  0.00  0.00    +0.000 OA
ATOM     15  N   UNL     1       3.107   3.572  19.333  0.00  0.00    +0.000 N 
ATOM     16  H   UNL     1       3.995   3.866  19.719  0.00  0.00    +0.000 HD
BRANCH  15  17
ATOM     17  C   UNL     1       1.926   3.638  20.183  0.00  0.00    +0.000 C 
ATOM     18  C   UNL     1       2.119   2.761  21.417  0.00  0.00    +0.000 C 
ATOM     19  C   UNL     1       1.626   5.080  20.582  0.00  0.00    +0.000 C 
ENDBRANCH  15  17
ENDBRANCH  12  13
ENDBRANCH   6  12
TORSDOF 6
ENDMDL
MODEL 2
REMARK VINA RESULT:      -7.1      3.014      6.320
REMARK  Name = 
REMARK  9 active torsions:
REMARK  status: ('A' for Active; 'I' for Inactive)
REMARK    1  A    between atoms: C_1  and  C_2
REMARK    2  A    between atoms: C_2  and  C_3
REMARK    3  A    between atoms: C_4  and  C_5
REMARK    4  A    between atoms: C_5  and  C_6
REMARK    5  A    between atoms: C_11  and  C_12
REMARK    6  A    between atoms: C_12  and  C_13
REMARK    7  A    between atoms: N_15  and  C_16
REMARK    8  A    between atoms: C_16  and  C_17
REMARK    9  A    between atoms: C_16  and  C_18
REMARK                            x       y       z     vdW  Elec       q    Type
REMARK                         _______ _______ _______ _____ _____    ______ ____
ROOT
ATOM      1  C   UNL     1       2.987   5.047  17.628  0.00  0.00    +0.000 C 
ATOM      2  C   UNL     1       3.479   5.481  18.990  0.00  0.00    +0.000 C 
ATOM      3  O   UNL     1       2.996   6.367  19.679  0.00  0.00    +0.000 OA
ATOM      4  C   UNL     1       4.646   4.705  19.424  0.00  0.00    +0.000 C 
ATOM      5  C   UNL     1       5.006   3.963  18.375  0.00  0.00    +0.000 C 
ATOM      6  C   UNL     1       4.167   4.165  17.140  0.00  0.00    +0.000 C 
ENDROOT
BRANCH   1   7
ATOM      7  C   UNL     1       1.695   4.227  17.727  0.00  0.00    +0.000 C 
BRANCH   7   9
ATOM      8  C   UNL     1       1.635   2.257  19.301  0.00  0.00    +0.000 C 
ATOM      9  C   UNL     1       1.889   2.780  18.091  0.00  0.00    +0.000 C 
BRANCH   8  11
ATOM     10  C   UNL     1       2.160   2.984  21.630  0.00  0.00    +0.000 C 
ATOM     11  C   UNL     1       1.137   3.006  20.505  0.00  0.00    +0.000 C 
ENDBRANCH   8  11
ENDBRANCH   7   9
ENDBRANCH   1   7
BRANCH   6  12
ATOM     12  C   UNL     1       4.984   4.843  16.031  0.00  0.00    +0.000 C 
BRANCH  12  13
ATOM     13  C   UNL     1       6.380   5.177  16.520  0.00  0.00    +0.000 C 
ATOM     14  O   UNL     1       7.324   4.404  16.397  0.00  0.00    +0.000 OA
ATOM     15  N   UNL     1       6.481   6.415  17.111  0.00  0.00    +0.000 N 
ATOM     16  H   UNL     1       5.636   6.925  17.335  0.00  0.00    +0.000 HD
BRANCH  15  17
ATOM     17  C   UNL     1       7.746   6.906  17.638  0.00  0.00    +0.000 C 
ATOM     18  C   UNL     1       7.745   8.432  17.669  0.00  0.00    +0.000 C 
ATOM     19  C   UNL     1       8.014   6.334  19.027  0.00  0.00    +0.000 C 
ENDBRANCH  15  17
ENDBRANCH  12  13
ENDBRANCH   6  12
TORSDOF 6
ENDMDL
MODEL 3
REMARK VINA RESULT:      -7.0      1.567      2.187
REMARK  Name = 
REMARK  9 active torsions:
REMARK  status: ('A' for Active; 'I' for Inactive)
REMARK    1  A    between atoms: C_1  and  C_2
REMARK    2  A    between atoms: C_2  and  C_3
REMARK    3  A    between atoms: C_4  and  C_5
REMARK    4  A    between atoms: C_5  and  C_6
REMARK    5  A    between atoms: C_11  and  C_12
REMARK    6  A    between atoms: C_12  and  C_13
REMARK    7  A    between atoms: N_15  and  C_16
REMARK    8  A    between atoms: C_16  and  C_17
REMARK    9  A    between atoms: C_16  and  C_18
REMARK                            x       y       z     vdW  Elec       q    Type
REMARK                         _______ _______ _______ _____ _____    ______ ____
ROOT
ATOM      1  C   UNL     1       5.805   4.441  17.277  0.00  0.00    +0.000 C 
ATOM      2  C   UNL     1       7.238   4.889  17.460  0.00  0.00    +0.000 C 
ATOM      3  O   UNL     1       8.201   4.157  17.628  0.00  0.00    +0.000 OA
ATOM      4  C   UNL     1       7.365   6.350  17.418  0.00  0.00    +0.000 C 
ATOM      5  C   UNL     1       6.120   6.828  17.401  0.00  0.00    +0.000 C 
ATOM      6  C   UNL     1       5.039   5.779  17.454  0.00  0.00    +0.000 C 
ENDROOT
BRANCH   1   7
ATOM      7  C   UNL     1       5.568   3.855  15.880  0.00  0.00    +0.000 C 
BRANCH   7   9
ATOM      8  C   UNL     1       6.437   4.110  13.526  0.00  0.00    +0.000 C 
ATOM      9  C   UNL     1       6.604   4.225  14.853  0.00  0.00    +0.000 C 
BRANCH   8  11
ATOM     10  C   UNL     1       5.591   2.612  11.719  0.00  0.00    +0.000 C 
ATOM     11  C   UNL     1       5.216   3.584  12.826  0.00  0.00    +0.000 C 
ENDBRANCH   8  11
ENDBRANCH   7   9
ENDBRANCH   1   7
BRANCH   6  12
ATOM     12  C   UNL     1       4.280   5.847  18.786  0.00  0.00    +0.000 C 
BRANCH  12  13
ATOM     13  C   UNL     1       2.967   5.093  18.695  0.00  0.00    +0.000 C 
ATOM     14  O   UNL     1       2.114   5.353  17.853  0.00  0.00    +0.000 OA
ATOM     15  N   UNL     1       2.827   4.103  19.640  0.00  0.00    +0.000 N 
ATOM     16  H   UNL     1       3.486   4.057  20.407  0.00  0.00    +0.000 HD
BRANCH  15  17
ATOM     17  C   UNL     1       1.632   3.274  19.703  0.00  0.00    +0.000 C 
ATOM     18  C   UNL     1       1.817   2.021  18.854  0.00  0.00    +0.000 C 
ATOM     19  C   UNL     1       1.303   2.908  21.149  0.00  0.00    +0.000 C 
ENDBRANCH  15  17
ENDBRANCH  12  13
ENDBRANCH   6  12
TORSDOF 6
ENDMDL
MODEL 4
REMARK VINA RESULT:      -6.9      2.239      6.841
REMARK  Name = 
REMARK  9 active torsions:
REMARK  status: ('A' for Active; 'I' for Inactive)
REMARK    1  A    between atoms: C_1  and  C_2
REMARK    2  A    between atoms: C_2  and  C_3
REMARK    3  A    between atoms: C_4  and  C_5
REMARK    4  A    between atoms: C_5  and  C_6
REMARK    5  A    between atoms: C_11  and  C_12
REMARK    6  A    between atoms: C_12  and  C_13
REMARK    7  A    between atoms: N_15  and  C_16
REMARK    8  A    between atoms: C_16  and  C_17
REMARK    9  A    between atoms: C_16  and  C_18
REMARK                            x       y       z     vdW  Elec       q    Type
REMARK                         _______ _______ _______ _____ _____    ______ ____
ROOT
ATOM      1  C   UNL     1       5.373   4.291  18.599  0.00  0.00    +0.000 C 
ATOM      2  C   UNL     1       4.601   3.049  18.981  0.00  0.00    +0.000 C 
ATOM      3  O   UNL     1       4.692   2.445  20.039  0.00  0.00    +0.000 OA
ATOM      4  C   UNL     1       3.695   2.615  17.911  0.00  0.00    +0.000 C 
ATOM      5  C   UNL     1       3.978   3.382  16.857  0.00  0.00    +0.000 C 
ATOM      6  C   UNL     1       5.091   4.374  17.076  0.00  0.00    +0.000 C 
ENDROOT
BRANCH   1   7
ATOM      7  C   UNL     1       4.839   5.535  19.323  0.00  0.00    +0.000 C 
BRANCH   7   9
ATOM      8  C   UNL     1       2.347   5.920  19.344  0.00  0.00    +0.000 C 
ATOM      9  C   UNL     1       3.551   6.083  18.772  0.00  0.00    +0.000 C 
BRANCH   8  11
ATOM     10  C   UNL     1       1.105   4.000  20.345  0.00  0.00    +0.000 C 
ATOM     11  C   UNL     1       2.059   5.156  20.605  0.00  0.00    +0.000 C 
ENDBRANCH   8  11
ENDBRANCH   7   9
ENDBRANCH   1   7
BRANCH   6  12
ATOM     12  C   UNL     1       6.321   4.007  16.233  0.00  0.00    +0.000 C 
BRANCH  12  13
ATOM     13  C   UNL     1       6.138   4.448  14.794  0.00  0.00    +0.000 C 
ATOM     14  O   UNL     1       5.879   5.607  14.488  0.00  0.00    +0.000 OA
ATOM     15  N   UNL     1       6.286   3.433  13.878  0.00  0.00    +0.000 N 
ATOM     16  H   UNL     1       6.327   2.476  14.205  0.00  0.00    +0.000 HD
BRANCH  15  17
ATOM     17  C   UNL     1       6.148   3.671  12.448  0.00  0.00    +0.000 C 
ATOM     18  C   UNL     1       7.154   2.825  11.675  0.00  0.00    +0.000 C 
ATOM     19  C   UNL     1       4.722   3.380  11.986  0.00  0.00    +0.000 C 
ENDBRANCH  15  17
ENDBRANCH  12  13
ENDBRANCH   6  12
TORSDOF 6
ENDMDL
MODEL 5
REMARK VINA RESULT:      -6.8      3.576      4.742
REMARK  Name = 
REMARK  9 active torsions:
REMARK  status: ('A' for Active; 'I' for Inactive)
REMARK    1  A    between atoms: C_1  and  C_2
REMARK    2  A    between atoms: C_2  and  C_3
REMARK    3  A    between atoms: C_4  and  C_5
REMARK    4  A    between atoms: C_5  and  C_6
REMARK    5  A    between atoms: C_11  and  C_12
REMARK    6  A    between atoms: C_12  and  C_13
REMARK    7  A    between atoms: N_15  and  C_16
REMARK    8  A    between atoms: C_16  and  C_17
REMARK    9  A    between atoms: C_16  and  C_18
REMARK                            x       y       z     vdW  Elec       q    Type
REMARK                         _______ _______ _______ _____ _____    ______ ____
ROOT
ATOM      1  C   UNL     1       5.399   5.619  17.340  0.00  0.00    +0.000 C 
ATOM      2  C   UNL     1       6.833   6.086  17.243  0.00  0.00    +0.000 C 
ATOM      3  O   UNL     1       7.394   6.473  16.229  0.00  0.00    +0.000 OA
ATOM      4  C   UNL     1       7.520   6.022  18.538  0.00  0.00    +0.000 C 
ATOM      5  C   UNL     1       6.682   5.398  19.369  0.00  0.00    +0.000 C 
ATOM      6  C   UNL     1       5.383   4.957  18.744  0.00  0.00    +0.000 C 
ENDROOT
BRANCH   1   7
ATOM      7  C   UNL     1       4.415   6.795  17.279  0.00  0.00    +0.000 C 
BRANCH   7   9
ATOM      8  C   UNL     1       2.318   7.652  18.389  0.00  0.00    +0.000 C 
ATOM      9  C   UNL     1       3.267   6.712  18.248  0.00  0.00    +0.000 C 
BRANCH   8  11
ATOM     10  C   UNL     1       1.219   9.889  18.266  0.00  0.00    +0.000 C 
ATOM     11  C   UNL     1       2.234   8.949  17.635  0.00  0.00    +0.000 C 
ENDBRANCH   8  11
ENDBRANCH   7   9
ENDBRANCH   1   7
BRANCH   6  12
ATOM     12  C   UNL     1       5.308   3.426  18.667  0.00  0.00    +0.000 C 
BRANCH  12  13
ATOM     13  C   UNL     1       4.169   2.901  19.520  0.00  0.00    +0.000 C 
ATOM     14  O   UNL     1       4.353   2.164  20.482  0.00  0.00    +0.000 OA
ATOM     15  N   UNL     1       2.927   3.324  19.109  0.00  0.00    +0.000 N 
ATOM     16  H   UNL     1       2.833   3.785  18.213  0.00  0.00    +0.000 HD
BRANCH  15  17
ATOM     17  C   UNL     1       1.715   2.922  19.810  0.00  0.00    +0.000 C 
ATOM     18  C   UNL     1       1.147   4.100  20.596  0.00  0.00    +0.000 C 
ATOM     19  C   UNL     1       0.682   2.370  18.832  0.00  0.00    +0.000 C 
ENDBRANCH  15  17
ENDBRANCH  12  13
ENDBRANCH   6  12
TORSDOF 6
ENDMDL
MODEL 6
REMARK VINA RESULT:      -6.8      1.704      2.017
REMARK  Name = 
REMARK  9 active torsions:
REMARK  status: ('A' for Active; 'I' for Inactive)
REMARK    1  A    between atoms: C_1  and  C_2
REMARK    2  A    between atoms: C_2  and  C_3
REMARK    3  A    between atoms: C_4  and  C_5
REMARK    4  A    between atoms: C_5  and  C_6
REMARK    5  A    between atoms: C_11  and  C_12
REMARK    6  A    between atoms: C_12  and  C_13
REMARK    7  A    between atoms: N_15  and  C_16
REMARK    8  A    between atoms: C_16  and  C_17
REMARK    9  A    between atoms: C_16  and  C_18
REMARK                            x       y       z     vdW  Elec       q    Type
REMARK                         _______ _______ _______ _____ _____    ______ ____
ROOT
ATOM      1  C   UNL     1       6.664   4.906  16.883  0.00  0.00    +0.000 C 
ATOM      2  C   UNL     1       6.693   6.415  16.977  0.00  0.00    +0.000 C 
ATOM      3  O   UNL     1       7.691   7.117  16.922  0.00  0.00    +0.000 OA
ATOM      4  C   UNL     1       5.350   6.979  17.152  0.00  0.00    +0.000 C 
ATOM      5  C   UNL     1       4.536   5.940  17.345  0.00  0.00    +0.000 C 
ATOM      6  C   UNL     1       5.217   4.595  17.350  0.00  0.00    +0.000 C 
ENDROOT
BRANCH   1   7
ATOM      7  C   UNL     1       6.891   4.423  15.445  0.00  0.00    +0.000 C 
BRANCH   7   9
ATOM      8  C   UNL     1       5.596   3.753  13.386  0.00  0.00    +0.000 C 
ATOM      9  C   UNL     1       5.639   4.063  14.693  0.00  0.00    +0.000 C 
BRANCH   8  11
ATOM     10  C   UNL     1       6.685   2.536  11.499  0.00  0.00    +0.000 C 
ATOM     11  C   UNL     1       6.764   3.727  12.441  0.00  0.00    +0.000 C 
ENDBRANCH   8  11
ENDBRANCH   7   9
ENDBRANCH   1   7
BRANCH   6  12
ATOM     12  C   UNL     1       5.177   3.969  18.750  0.00  0.00    +0.000 C 
BRANCH  12  13
ATOM     13  C   UNL     1       3.981   3.047  18.892  0.00  0.00    +0.000 C 
ATOM     14  O   UNL     1       3.781   2.106  18.133  0.00  0.00    +0.000 OA
ATOM     15  N   UNL     1       3.152   3.370  19.942  0.00  0.00    +0.000 N 
ATOM     16  H   UNL     1       3.280   4.254  20.418  0.00  0.00    +0.000 HD
BRANCH  15  17
ATOM     17  C   UNL     1       1.955   2.593  20.233  0.00  0.00    +0.000 C 
ATOM     18  C   UNL     1       1.646   2.645  21.726  0.00  0.00    +0.000 C 
ATOM     19  C   UNL     1       0.770   3.097  19.414  0.00  0.00    +0.000 C 
ENDBRANCH  15  17
ENDBRANCH  12  13
ENDBRANCH   6  12
TORSDOF 6
ENDMDL
MODEL 7
REMARK VINA RESULT:      -6.8      2.232      6.689
REMARK  Name = 
REMARK  9 active torsions:
REMARK  status: ('A' for Active; 'I' for Inactive)
REMARK    1  A    between atoms: C_1  and  C_2
REMARK    2  A    between atoms: C_2  and  C_3
REMARK    3  A    between atoms: C_4  and  C_5
REMARK    4  A    between atoms: C_5  and  C_6
REMARK    5  A    between atoms: C_11  and  C_12
REMARK    6  A    between atoms: C_12  and  C_13
REMARK    7  A    between atoms: N_15  and  C_16
REMARK    8  A    between atoms: C_16  and  C_17
REMARK    9  A    between atoms: C_16  and  C_18
REMARK                            x       y       z     vdW  Elec       q    Type
REMARK                         _______ _______ _______ _____ _____    ______ ____
ROOT
ATOM      1  C   UNL     1       4.229   4.532  17.695  0.00  0.00    +0.000 C 
ATOM      2  C   UNL     1       4.588   5.200  19.003  0.00  0.00    +0.000 C 
ATOM      3  O   UNL     1       3.797   5.644  19.822  0.00  0.00    +0.000 OA
ATOM      4  C   UNL     1       6.040   5.271  19.202  0.00  0.00    +0.000 C 
ATOM      5  C   UNL     1       6.589   4.864  18.056  0.00  0.00    +0.000 C 
ATOM      6  C   UNL     1       5.603   4.506  16.974  0.00  0.00    +0.000 C 
ENDROOT
BRANCH   1   7
ATOM      7  C   UNL     1       3.698   3.110  17.912  0.00  0.00    +0.000 C 
BRANCH   7   9
ATOM      8  C   UNL     1       1.286   2.654  18.495  0.00  0.00    +0.000 C 
ATOM      9  C   UNL     1       2.240   2.921  17.589  0.00  0.00    +0.000 C 
BRANCH   8  11
ATOM     10  C   UNL     1       1.141   3.748  20.734  0.00  0.00    +0.000 C 
ATOM     11  C   UNL     1       1.490   2.478  19.974  0.00  0.00    +0.000 C 
ENDBRANCH   8  11
ENDBRANCH   7   9
ENDBRANCH   1   7
BRANCH   6  12
ATOM     12  C   UNL     1       5.675   5.512  15.818  0.00  0.00    +0.000 C 
BRANCH  12  13
ATOM     13  C   UNL     1       6.550   4.982  14.698  0.00  0.00    +0.000 C 
ATOM     14  O   UNL     1       7.740   5.261  14.603  0.00  0.00    +0.000 OA
ATOM     15  N   UNL     1       5.884   4.170  13.809  0.00  0.00    +0.000 N 
ATOM     16  H   UNL     1       4.873   4.121  13.847  0.00  0.00    +0.000 HD
BRANCH  15  17
ATOM     17  C   UNL     1       6.564   3.567  12.671  0.00  0.00    +0.000 C 
ATOM     18  C   UNL     1       5.573   2.768  11.831  0.00  0.00    +0.000 C 
ATOM     19  C   UNL     1       7.257   4.634  11.828  0.00  0.00    +0.000 C 
ENDBRANCH  15  17
ENDBRANCH  12  13
ENDBRANCH   6  12
TORSDOF 6
ENDMDL
MODEL 8
REMARK VINA RESULT:      -6.8      0.916      1.238
REMARK  Name = 
REMARK  9 active torsions:
REMARK  status: ('A' for Active; 'I' for Inactive)
REMARK    1  A    between atoms: C_1  and  C_2
REMARK    2  A    between atoms: C_2  and  C_3
REMARK    3  A    between atoms: C_4  and  C_5
REMARK    4  A    between atoms: C_5  and  C_6
REMARK    5  A    between atoms: C_11  and  C_12
REMARK    6  A    between atoms: C_12  and  C_13
REMARK    7  A    between atoms: N_15  and  C_16
REMARK    8  A    between atoms: C_16  and  C_17
REMARK    9  A    between atoms: C_16  and  C_18
REMARK                            x       y       z     vdW  Elec       q    Type
REMARK                         _______ _______ _______ _____ _____    ______ ____
ROOT
ATOM      1  C   UNL     1       5.693   3.938  15.894  0.00  0.00    +0.000 C 
ATOM      2  C   UNL     1       6.770   4.650  16.681  0.00  0.00    +0.000 C 
ATOM      3  O   UNL     1       7.974   4.474  16.571  0.00  0.00    +0.000 OA
ATOM      4  C   UNL     1       6.206   5.612  17.636  0.00  0.00    +0.000 C 
ATOM      5  C   UNL     1       4.886   5.419  17.616  0.00  0.00    +0.000 C 
ATOM      6  C   UNL     1       4.420   4.321  16.695  0.00  0.00    +0.000 C 
ENDROOT
BRANCH   1   7
ATOM      7  C   UNL     1       5.609   4.457  14.452  0.00  0.00    +0.000 C 
BRANCH   7   9
ATOM      8  C   UNL     1       5.680   3.316  12.204  0.00  0.00    +0.000 C 
ATOM      9  C   UNL     1       6.212   3.549  13.415  0.00  0.00    +0.000 C 
BRANCH   8  11
ATOM     10  C   UNL     1       3.644   2.872  10.832  0.00  0.00    +0.000 C 
ATOM     11  C   UNL     1       4.399   3.891  11.671  0.00  0.00    +0.000 C 
ENDBRANCH   8  11
ENDBRANCH   7   9
ENDBRANCH   1   7
BRANCH   6  12
ATOM     12  C   UNL     1       3.858   3.139  17.497  0.00  0.00    +0.000 C 
BRANCH  12  13
ATOM     13  C   UNL     1       2.805   3.611  18.482  0.00  0.00    +0.000 C 
ATOM     14  O   UNL     1       1.701   4.007  18.127  0.00  0.00    +0.000 OA
ATOM     15  N   UNL     1       3.208   3.555  19.796  0.00  0.00    +0.000 N 
ATOM     16  H   UNL     1       4.184   3.384  20.006  0.00  0.00    +0.000 HD
BRANCH  15  17
ATOM     17  C   UNL     1       2.328   3.965  20.881  0.00  0.00    +0.000 C 
ATOM     18  C   UNL     1       1.797   5.372  20.623  0.00  0.00    +0.000 C 
ATOM     19  C   UNL     1       1.180   2.973  21.052  0.00  0.00    +0.000 C 
ENDBRANCH  15  17
ENDBRANCH  12  13
ENDBRANCH   6  12
TORSDOF 6
ENDMDL
MODEL 9
REMARK VINA RESULT:      -6.7      1.204      1.456
REMARK  Name = 
REMARK  9 active torsions:
REMARK  status: ('A' for Active; 'I' for Inactive)
REMARK    1  A    between atoms: C_1  and  C_2
REMARK    2  A    between atoms: C_2  and  C_3
REMARK    3  A    between atoms: C_4  and  C_5
REMARK    4  A    between atoms: C_5  and  C_6
REMARK    5  A    between atoms: C_11  and  C_12
REMARK    6  A    between atoms: C_12  and  C_13
REMARK    7  A    between atoms: N_15  and  C_16
REMARK    8  A    between atoms: C_16  and  C_17
REMARK    9  A    between atoms: C_16  and  C_18
REMARK                            x       y       z     vdW  Elec       q    Type
REMARK                         _______ _______ _______ _____ _____    ______ ____
ROOT
ATOM      1  C   UNL     1       5.796   4.386  15.702  0.00  0.00    +0.000 C 
ATOM      2  C   UNL     1       6.398   5.599  16.376  0.00  0.00    +0.000 C 
ATOM      3  O   UNL     1       7.555   5.977  16.270  0.00  0.00    +0.000 OA
ATOM      4  C   UNL     1       5.418   6.307  17.208  0.00  0.00    +0.000 C 
ATOM      5  C   UNL     1       4.331   5.534  17.234  0.00  0.00    +0.000 C 
ATOM      6  C   UNL     1       4.454   4.242  16.468  0.00  0.00    +0.000 C 
ENDROOT
BRANCH   1   7
ATOM      7  C   UNL     1       5.549   4.632  14.208  0.00  0.00    +0.000 C 
BRANCH   7   9
ATOM      8  C   UNL     1       5.539   3.238  12.106  0.00  0.00    +0.000 C 
ATOM      9  C   UNL     1       6.076   3.558  13.294  0.00  0.00    +0.000 C 
BRANCH   8  11
ATOM     10  C   UNL     1       3.488   2.829  10.744  0.00  0.00    +0.000 C 
ATOM     11  C   UNL     1       4.323   3.864  11.483  0.00  0.00    +0.000 C 
ENDBRANCH   8  11
ENDBRANCH   7   9
ENDBRANCH   1   7
BRANCH   6  12
ATOM     12  C   UNL     1       4.452   3.041  17.423  0.00  0.00    +0.000 C 
BRANCH  12  13
ATOM     13  C   UNL     1       4.213   3.491  18.852  0.00  0.00    +0.000 C 
ATOM     14  O   UNL     1       5.129   3.788  19.611  0.00  0.00    +0.000 OA
ATOM     15  N   UNL     1       2.885   3.529  19.208  0.00  0.00    +0.000 N 
ATOM     16  H   UNL     1       2.197   3.110  18.595  0.00  0.00    +0.000 HD
BRANCH  15  17
ATOM     17  C   UNL     1       2.465   3.941  20.540  0.00  0.00    +0.000 C 
ATOM     18  C   UNL     1       1.972   5.384  20.513  0.00  0.00    +0.000 C 
ATOM     19  C   UNL     1       1.385   3.006  21.080  0.00  0.00    +0.000 C 
ENDBRANCH  15  17
ENDBRANCH  12  13
ENDBRANCH   6  12
TORSDOF 6
ENDMDL
