MODEL 1
REMARK VINA RESULT:      -7.6      0.000      0.000
REMARK  Name = 
REMARK  5 active torsions:
REMARK  status: ('A' for Active; 'I' for Inactive)
REMARK    1  A    between atoms: C_2  and  N_3
REMARK    2  A    between atoms: C_2  and  N_10
REMARK    3  A    between atoms: N_3  and  C_4
REMARK    4  A    between atoms: C_12  and  C_13
REMARK    5  A    between atoms: C_21  and  C_22
REMARK                            x       y       z     vdW  Elec       q    Type
REMARK                         _______ _______ _______ _____ _____    ______ ____
ROOT
ATOM      1  N   UNL     1       9.657  11.915  18.246  0.00  0.00    +0.000 N 
ATOM      2  N   UNL     1       8.842  10.920  17.756  0.00  0.00    +0.000 NA
ATOM      3  C   UNL     1       8.908   9.921  18.582  0.00  0.00    +0.000 C 
ATOM      4  C   UNL     1       9.775  10.136  19.788  0.00  0.00    +0.000 C 
ATOM      5  C   UNL     1      10.225  11.571  19.541  0.00  0.00    +0.000 C 
ENDROOT
BRANCH   5   6
ATOM      6  C   UNL     1       9.752  12.507  20.639  0.00  0.00    +0.000 A 
ATOM      7  C   UNL     1      10.362  13.742  20.929  0.00  0.00    +0.000 A 
ATOM      8  C   UNL     1       9.835  14.577  21.922  0.00  0.00    +0.000 A 
ATOM      9  C   UNL     1       8.692  14.191  22.623  0.00  0.00    +0.000 A 
ATOM     10  C   UNL     1       8.125  12.943  22.369  0.00  0.00    +0.000 A 
ATOM     11  C   UNL     1       8.629  12.120  21.373  0.00  0.00    +0.000 A 
ATOM     12  O   UNL     1       7.044  12.459  23.051  0.00  0.00    +0.000 OA
ATOM     13  C   UNL     1       6.207  13.545  23.415  0.00  0.00    +0.000 C 
ATOM     14  C   UNL     1       6.968  14.637  24.156  0.00  0.00    +0.000 C 
ATOM     15  O   UNL     1       8.166  15.085  23.509  0.00  0.00    +0.000 OA
ENDBRANCH   5   6
BRANCH   3  16
ATOM     16  C   UNL     1       8.213   8.634  18.345  0.00  0.00    +0.000 A 
ATOM     17  C   UNL     1       7.229   8.577  17.350  0.00  0.00    +0.000 A 
ATOM     18  C   UNL     1       6.569   7.380  17.083  0.00  0.00    +0.000 A 
ATOM     19  C   UNL     1       6.892   6.234  17.808  0.00  0.00    +0.000 A 
ATOM     20 BR   UNL     1       6.000   4.609  17.444  0.00  0.00    +0.000 Br
ATOM     21  C   UNL     1       7.872   6.279  18.800  0.00  0.00    +0.000 A 
ATOM     22  C   UNL     1       8.536   7.479  19.069  0.00  0.00    +0.000 A 
ENDBRANCH   3  16
BRANCH   1  24
ATOM     23  S   UNL     1      11.380  13.455  16.867  0.00  0.00    +0.000 S 
ATOM     24  C   UNL     1       9.862  13.085  17.517  0.00  0.00    +0.000 C 
BRANCH  24  25
ATOM     25  N   UNL     1       8.718  13.867  17.352  0.00  0.00    +0.000 N 
ATOM     26  H   UNL     1       8.201  13.759  16.488  0.00  0.00    +0.000 HD
BRANCH  25  27
ATOM     27  C   UNL     1       8.244  14.881  18.220  0.00  0.00    +0.000 A 
ATOM     28  C   UNL     1       8.824  16.152  18.171  0.00  0.00    +0.000 A 
ATOM     29  C   UNL     1       8.372  17.169  19.025  0.00  0.00    +0.000 A 
ATOM     30  C   UNL     1       7.322  16.932  19.913  0.00  0.00    +0.000 A 
ATOM     31  C   UNL     1       6.715  15.682  19.934  0.00  0.00    +0.000 A 
ATOM     32  C   UNL     1       7.165  14.668  19.089  0.00  0.00    +0.000 A 
ENDBRANCH  25  27
ENDBRANCH  24  25
ENDBRANCH   1  24
TORSDOF 5
ENDMDL
MODEL 2
REMARK VINA RESULT:      -7.6      7.022      8.796
REMARK  Name = 
REMARK  5 active torsions:
REMARK  status: ('A' for Active; 'I' for Inactive)
REMARK    1  A    between atoms: C_2  and  N_3
REMARK    2  A    between atoms: C_2  and  N_10
REMARK    3  A    between atoms: N_3  and  C_4
REMARK    4  A    between atoms: C_12  and  C_13
REMARK    5  A    between atoms: C_21  and  C_22
REMARK                            x       y       z     vdW  Elec       q    Type
REMARK                         _______ _______ _______ _____ _____    ______ ____
ROOT
ATOM      1  N   UNL     1       0.152   9.967  20.426  0.00  0.00    +0.000 N 
ATOM      2  N   UNL     1       1.106   8.976  20.417  0.00  0.00    +0.000 NA
ATOM      3  C   UNL     1       1.466   8.791  19.184  0.00  0.00    +0.000 C 
ATOM      4  C   UNL     1       0.803   9.686  18.178  0.00  0.00    +0.000 C 
ATOM      5  C   UNL     1      -0.059  10.536  19.103  0.00  0.00    +0.000 C 
ENDROOT
BRANCH   5   6
ATOM      6  C   UNL     1       0.329  12.004  19.044  0.00  0.00    +0.000 A 
ATOM      7  C   UNL     1      -0.543  13.025  18.622  0.00  0.00    +0.000 A 
ATOM      8  C   UNL     1      -0.130  14.363  18.647  0.00  0.00    +0.000 A 
ATOM      9  C   UNL     1       1.147  14.691  19.102  0.00  0.00    +0.000 A 
ATOM     10  C   UNL     1       2.023  13.671  19.466  0.00  0.00    +0.000 A 
ATOM     11  C   UNL     1       1.615  12.344  19.464  0.00  0.00    +0.000 A 
ATOM     12  O   UNL     1       3.312  13.895  19.864  0.00  0.00    +0.000 OA
ATOM     13  C   UNL     1       3.372  15.143  20.538  0.00  0.00    +0.000 C 
ATOM     14  C   UNL     1       2.771  16.275  19.715  0.00  0.00    +0.000 C 
ATOM     15  O   UNL     1       1.460  16.015  19.197  0.00  0.00    +0.000 OA
ENDBRANCH   5   6
BRANCH   3  16
ATOM     16  C   UNL     1       2.431   7.745  18.775  0.00  0.00    +0.000 A 
ATOM     17  C   UNL     1       2.530   6.584  19.553  0.00  0.00    +0.000 A 
ATOM     18  C   UNL     1       3.411   5.568  19.189  0.00  0.00    +0.000 A 
ATOM     19  C   UNL     1       4.195   5.708  18.044  0.00  0.00    +0.000 A 
ATOM     20 BR   UNL     1       5.388   4.330  17.548  0.00  0.00    +0.000 Br
ATOM     21  C   UNL     1       4.103   6.860  17.261  0.00  0.00    +0.000 A 
ATOM     22  C   UNL     1       3.219   7.879  17.625  0.00  0.00    +0.000 A 
ENDBRANCH   3  16
BRANCH   1  24
ATOM     23  S   UNL     1      -0.071   9.598  23.082  0.00  0.00    +0.000 S 
ATOM     24  C   UNL     1      -0.493  10.319  21.611  0.00  0.00    +0.000 C 
BRANCH  24  25
ATOM     25  N   UNL     1      -1.455  11.320  21.465  0.00  0.00    +0.000 N 
ATOM     26  H   UNL     1      -1.938  11.374  20.577  0.00  0.00    +0.000 HD
BRANCH  25  27
ATOM     27  C   UNL     1      -1.766  12.346  22.390  0.00  0.00    +0.000 A 
ATOM     28  C   UNL     1      -2.971  12.290  23.097  0.00  0.00    +0.000 A 
ATOM     29  C   UNL     1      -3.299  13.299  24.015  0.00  0.00    +0.000 A 
ATOM     30  C   UNL     1      -2.417  14.354  24.253  0.00  0.00    +0.000 A 
ATOM     31  C   UNL     1      -1.199  14.390  23.582  0.00  0.00    +0.000 A 
ATOM     32  C   UNL     1      -0.872  13.390  22.666  0.00  0.00    +0.000 A 
ENDBRANCH  25  27
ENDBRANCH  24  25
ENDBRANCH   1  24
TORSDOF 5
ENDMDL
MODEL 3
REMARK VINA RESULT:      -7.6      9.420     10.742
REMARK  Name = 
REMARK  5 active torsions:
REMARK  status: ('A' for Active; 'I' for Inactive)
REMARK    1  A    between atoms: C_2  and  N_3
REMARK    2  A    between atoms: C_2  and  N_10
REMARK    3  A    between atoms: N_3  and  C_4
REMARK    4  A    between atoms: C_12  and  C_13
REMARK    5  A    between atoms: C_21  and  C_22
REMARK                            x       y       z     vdW  Elec       q    Type
REMARK                         _______ _______ _______ _____ _____    ______ ____
ROOT
ATOM      1  N   UNL     1      -1.287  11.298  18.099  0.00  0.00    +0.000 N 
ATOM      2  N   UNL     1      -0.783  10.021  18.182  0.00  0.00    +0.000 NA
ATOM      3  C   UNL     1       0.408  10.104  18.690  0.00  0.00    +0.000 C 
ATOM      4  C   UNL     1       0.858  11.488  19.058  0.00  0.00    +0.000 C 
ATOM      5  C   UNL     1      -0.389  12.282  18.686  0.00  0.00    +0.000 C 
ENDROOT
BRANCH   5   6
ATOM      6  C   UNL     1      -1.002  12.966  19.895  0.00  0.00    +0.000 A 
ATOM      7  C   UNL     1      -1.226  14.353  19.977  0.00  0.00    +0.000 A 
ATOM      8  C   UNL     1      -1.846  14.905  21.104  0.00  0.00    +0.000 A 
ATOM      9  C   UNL     1      -2.257  14.078  22.149  0.00  0.00    +0.000 A 
ATOM     10  C   UNL     1      -1.983  12.713  22.087  0.00  0.00    +0.000 A 
ATOM     11  C   UNL     1      -1.387  12.156  20.964  0.00  0.00    +0.000 A 
ATOM     12  O   UNL     1      -2.292  11.839  23.092  0.00  0.00    +0.000 OA
ATOM     13  C   UNL     1      -3.473  12.286  23.740  0.00  0.00    +0.000 C 
ATOM     14  C   UNL     1      -3.371  13.738  24.191  0.00  0.00    +0.000 C 
ATOM     15  O   UNL     1      -2.943  14.656  23.177  0.00  0.00    +0.000 OA
ENDBRANCH   5   6
BRANCH   3  16
ATOM     16  C   UNL     1       1.293   8.929  18.864  0.00  0.00    +0.000 A 
ATOM     17  C   UNL     1       2.111   8.542  17.795  0.00  0.00    +0.000 A 
ATOM     18  C   UNL     1       2.973   7.456  17.928  0.00  0.00    +0.000 A 
ATOM     19  C   UNL     1       3.020   6.751  19.131  0.00  0.00    +0.000 A 
ATOM     20 BR   UNL     1       4.190   5.280  19.313  0.00  0.00    +0.000 Br
ATOM     21  C   UNL     1       2.210   7.129  20.202  0.00  0.00    +0.000 A 
ATOM     22  C   UNL     1       1.346   8.220  20.071  0.00  0.00    +0.000 A 
ENDBRANCH   3  16
BRANCH   1  24
ATOM     23  S   UNL     1      -2.892  10.904  15.975  0.00  0.00    +0.000 S 
ATOM     24  C   UNL     1      -2.525  11.534  17.502  0.00  0.00    +0.000 C 
BRANCH  24  25
ATOM     25  N   UNL     1      -3.407  12.281  18.284  0.00  0.00    +0.000 N 
ATOM     26  H   UNL     1      -3.125  13.220  18.535  0.00  0.00    +0.000 HD
BRANCH  25  27
ATOM     27  C   UNL     1      -4.621  11.836  18.863  0.00  0.00    +0.000 A 
ATOM     28  C   UNL     1      -5.054  12.400  20.066  0.00  0.00    +0.000 A 
ATOM     29  C   UNL     1      -6.252  11.970  20.657  0.00  0.00    +0.000 A 
ATOM     30  C   UNL     1      -7.038  10.997  20.037  0.00  0.00    +0.000 A 
ATOM     31  C   UNL     1      -6.631  10.466  18.819  0.00  0.00    +0.000 A 
ATOM     32  C   UNL     1      -5.438  10.887  18.231  0.00  0.00    +0.000 A 
ENDBRANCH  25  27
ENDBRANCH  24  25
ENDBRANCH   1  24
TORSDOF 5
ENDMDL
MODEL 4
REMARK VINA RESULT:      -7.6      0.126      1.232
REMARK  Name = 
REMARK  5 active torsions:
REMARK  status: ('A' for Active; 'I' for Inactive)
REMARK    1  A    between atoms: C_2  and  N_3
REMARK    2  A    between atoms: C_2  and  N_10
REMARK    3  A    between atoms: N_3  and  C_4
REMARK    4  A    between atoms: C_12  and  C_13
REMARK    5  A    between atoms: C_21  and  C_22
REMARK                            x       y       z     vdW  Elec       q    Type
REMARK                         _______ _______ _______ _____ _____    ______ ____
ROOT
ATOM      1  N   UNL     1       9.560  11.914  18.241  0.00  0.00    +0.000 N 
ATOM      2  N   UNL     1       8.754  10.922  17.732  0.00  0.00    +0.000 NA
ATOM      3  C   UNL     1       8.833   9.904  18.534  0.00  0.00    +0.000 C 
ATOM      4  C   UNL     1       9.702  10.101  19.741  0.00  0.00    +0.000 C 
ATOM      5  C   UNL     1      10.137  11.545  19.525  0.00  0.00    +0.000 C 
ENDROOT
BRANCH   5   6
ATOM      6  C   UNL     1       9.658  12.451  20.647  0.00  0.00    +0.000 A 
ATOM      7  C   UNL     1      10.245  13.694  20.951  0.00  0.00    +0.000 A 
ATOM      8  C   UNL     1       9.713  14.499  21.966  0.00  0.00    +0.000 A 
ATOM      9  C   UNL     1       8.590  14.075  22.675  0.00  0.00    +0.000 A 
ATOM     10  C   UNL     1       8.047  12.820  22.407  0.00  0.00    +0.000 A 
ATOM     11  C   UNL     1       8.555  12.025  21.389  0.00  0.00    +0.000 A 
ATOM     12  O   UNL     1       6.987  12.298  23.094  0.00  0.00    +0.000 OA
ATOM     13  C   UNL     1       6.131  13.359  23.490  0.00  0.00    +0.000 C 
ATOM     14  C   UNL     1       6.878  14.455  24.240  0.00  0.00    +0.000 C 
ATOM     15  O   UNL     1       8.056  14.941  23.585  0.00  0.00    +0.000 OA
ENDBRANCH   5   6
BRANCH   3  16
ATOM     16  C   UNL     1       8.151   8.617  18.269  0.00  0.00    +0.000 A 
ATOM     17  C   UNL     1       8.520   7.496  19.024  0.00  0.00    +0.000 A 
ATOM     18  C   UNL     1       7.887   6.272  18.820  0.00  0.00    +0.000 A 
ATOM     19  C   UNL     1       6.880   6.164  17.861  0.00  0.00    +0.000 A 
ATOM     20 BR   UNL     1       6.018   4.506  17.586  0.00  0.00    +0.000 Br
ATOM     21  C   UNL     1       6.504   7.275  17.104  0.00  0.00    +0.000 A 
ATOM     22  C   UNL     1       7.138   8.504  17.309  0.00  0.00    +0.000 A 
ENDBRANCH   3  16
BRANCH   1  24
ATOM     23  S   UNL     1      11.263  13.507  16.898  0.00  0.00    +0.000 S 
ATOM     24  C   UNL     1       9.750  13.103  17.538  0.00  0.00    +0.000 C 
BRANCH  24  25
ATOM     25  N   UNL     1       8.596  13.873  17.391  0.00  0.00    +0.000 N 
ATOM     26  H   UNL     1       8.036  13.718  16.562  0.00  0.00    +0.000 HD
BRANCH  25  27
ATOM     27  C   UNL     1       8.164  14.933  18.226  0.00  0.00    +0.000 A 
ATOM     28  C   UNL     1       7.146  14.703  19.156  0.00  0.00    +0.000 A 
ATOM     29  C   UNL     1       6.701  15.741  19.988  0.00  0.00    +0.000 A 
ATOM     30  C   UNL     1       7.289  17.005  19.917  0.00  0.00    +0.000 A 
ATOM     31  C   UNL     1       8.330  17.225  19.023  0.00  0.00    +0.000 A 
ATOM     32  C   UNL     1       8.771  16.196  18.191  0.00  0.00    +0.000 A 
ENDBRANCH  25  27
ENDBRANCH  24  25
ENDBRANCH   1  24
TORSDOF 5
ENDMDL
MODEL 5
REMARK VINA RESULT:      -7.5      6.732      8.518
REMARK  Name = 
REMARK  5 active torsions:
REMARK  status: ('A' for Active; 'I' for Inactive)
REMARK    1  A    between atoms: C_2  and  N_3
REMARK    2  A    between atoms: C_2  and  N_10
REMARK    3  A    between atoms: N_3  and  C_4
REMARK    4  A    between atoms: C_12  and  C_13
REMARK    5  A    between atoms: C_21  and  C_22
REMARK                            x       y       z     vdW  Elec       q    Type
REMARK                         _______ _______ _______ _____ _____    ______ ____
ROOT
ATOM      1  N   UNL     1       0.603   9.551  20.091  0.00  0.00    +0.000 N 
ATOM      2  N   UNL     1       1.588   8.603  19.933  0.00  0.00    +0.000 NA
ATOM      3  C   UNL     1       1.755   8.422  18.659  0.00  0.00    +0.000 C 
ATOM      4  C   UNL     1       0.902   9.277  17.768  0.00  0.00    +0.000 C 
ATOM      5  C   UNL     1       0.159  10.097  18.816  0.00  0.00    +0.000 C 
ENDROOT
BRANCH   5   6
ATOM      6  C   UNL     1       0.467  11.580  18.693  0.00  0.00    +0.000 A 
ATOM      7  C   UNL     1      -0.518  12.569  18.510  0.00  0.00    +0.000 A 
ATOM      8  C   UNL     1      -0.162  13.922  18.459  0.00  0.00    +0.000 A 
ATOM      9  C   UNL     1       1.173  14.298  18.602  0.00  0.00    +0.000 A 
ATOM     10  C   UNL     1       2.149  13.311  18.728  0.00  0.00    +0.000 A 
ATOM     11  C   UNL     1       1.803  11.969  18.800  0.00  0.00    +0.000 A 
ATOM     12  O   UNL     1       3.486  13.585  18.811  0.00  0.00    +0.000 OA
ATOM     13  C   UNL     1       3.659  14.828  19.473  0.00  0.00    +0.000 C 
ATOM     14  C   UNL     1       2.837  15.941  18.838  0.00  0.00    +0.000 C 
ATOM     15  O   UNL     1       1.451  15.633  18.643  0.00  0.00    +0.000 OA
ENDBRANCH   5   6
BRANCH   3  16
ATOM     16  C   UNL     1       2.690   7.416  18.104  0.00  0.00    +0.000 A 
ATOM     17  C   UNL     1       2.384   6.058  18.264  0.00  0.00    +0.000 A 
ATOM     18  C   UNL     1       3.227   5.082  17.737  0.00  0.00    +0.000 A 
ATOM     19  C   UNL     1       4.379   5.460  17.048  0.00  0.00    +0.000 A 
ATOM     20 BR   UNL     1       5.521   4.137  16.332  0.00  0.00    +0.000 Br
ATOM     21  C   UNL     1       4.692   6.809  16.883  0.00  0.00    +0.000 A 
ATOM     22  C   UNL     1       3.846   7.790  17.409  0.00  0.00    +0.000 A 
ENDBRANCH   3  16
BRANCH   1  24
ATOM     23  S   UNL     1       0.965   9.388  22.752  0.00  0.00    +0.000 S 
ATOM     24  C   UNL     1       0.139   9.886  21.362  0.00  0.00    +0.000 C 
BRANCH  24  25
ATOM     25  N   UNL     1      -1.009  10.679  21.363  0.00  0.00    +0.000 N 
ATOM     26  H   UNL     1      -1.730  10.454  20.689  0.00  0.00    +0.000 HD
BRANCH  25  27
ATOM     27  C   UNL     1      -1.243  11.841  22.139  0.00  0.00    +0.000 A 
ATOM     28  C   UNL     1      -0.358  12.919  22.044  0.00  0.00    +0.000 A 
ATOM     29  C   UNL     1      -0.570  14.077  22.807  0.00  0.00    +0.000 A 
ATOM     30  C   UNL     1      -1.681  14.177  23.646  0.00  0.00    +0.000 A 
ATOM     31  C   UNL     1      -2.586  13.124  23.710  0.00  0.00    +0.000 A 
ATOM     32  C   UNL     1      -2.375  11.970  22.956  0.00  0.00    +0.000 A 
ENDBRANCH  25  27
ENDBRANCH  24  25
ENDBRANCH   1  24
TORSDOF 5
ENDMDL
MODEL 6
REMARK VINA RESULT:      -7.4      9.084     10.510
REMARK  Name = 
REMARK  5 active torsions:
REMARK  status: ('A' for Active; 'I' for Inactive)
REMARK    1  A    between atoms: C_2  and  N_3
REMARK    2  A    between atoms: C_2  and  N_10
REMARK    3  A    between atoms: N_3  and  C_4
REMARK    4  A    between atoms: C_12  and  C_13
REMARK    5  A    between atoms: C_21  and  C_22
REMARK                            x       y       z     vdW  Elec       q    Type
REMARK                         _______ _______ _______ _____ _____    ______ ____
ROOT
ATOM      1  N   UNL     1      -0.541  13.347  20.873  0.00  0.00    +0.000 N 
ATOM      2  N   UNL     1       0.197  12.523  20.056  0.00  0.00    +0.000 NA
ATOM      3  C   UNL     1       0.090  11.316  20.520  0.00  0.00    +0.000 C 
ATOM      4  C   UNL     1      -0.790  11.164  21.727  0.00  0.00    +0.000 C 
ATOM      5  C   UNL     1      -1.261  12.603  21.896  0.00  0.00    +0.000 C 
ENDROOT
BRANCH   5   6
ATOM      6  C   UNL     1      -2.767  12.725  21.738  0.00  0.00    +0.000 A 
ATOM      7  C   UNL     1      -3.431  12.644  20.499  0.00  0.00    +0.000 A 
ATOM      8  C   UNL     1      -4.828  12.711  20.439  0.00  0.00    +0.000 A 
ATOM      9  C   UNL     1      -5.571  12.848  21.611  0.00  0.00    +0.000 A 
ATOM     10  C   UNL     1      -4.906  12.982  22.828  0.00  0.00    +0.000 A 
ATOM     11  C   UNL     1      -3.523  12.896  22.899  0.00  0.00    +0.000 A 
ATOM     12  O   UNL     1      -5.550  13.182  24.017  0.00  0.00    +0.000 OA
ATOM     13  C   UNL     1      -6.804  12.518  23.976  0.00  0.00    +0.000 C 
ATOM     14  C   UNL     1      -7.625  12.909  22.753  0.00  0.00    +0.000 C 
ATOM     15  O   UNL     1      -6.930  12.809  21.503  0.00  0.00    +0.000 OA
ENDBRANCH   5   6
BRANCH   3  16
ATOM     16  C   UNL     1       0.812  10.162  19.937  0.00  0.00    +0.000 A 
ATOM     17  C   UNL     1       1.061   9.047  20.748  0.00  0.00    +0.000 A 
ATOM     18  C   UNL     1       1.718   7.934  20.229  0.00  0.00    +0.000 A 
ATOM     19  C   UNL     1       2.129   7.930  18.897  0.00  0.00    +0.000 A 
ATOM     20 BR   UNL     1       3.018   6.420  18.191  0.00  0.00    +0.000 Br
ATOM     21  C   UNL     1       1.885   9.035  18.080  0.00  0.00    +0.000 A 
ATOM     22  C   UNL     1       1.224  10.152  18.598  0.00  0.00    +0.000 A 
ENDBRANCH   3  16
BRANCH   1  24
ATOM     23  S   UNL     1      -0.283  15.794  21.962  0.00  0.00    +0.000 S 
ATOM     24  C   UNL     1      -0.541  14.727  20.674  0.00  0.00    +0.000 C 
BRANCH  24  25
ATOM     25  N   UNL     1      -0.727  15.116  19.347  0.00  0.00    +0.000 N 
ATOM     26  H   UNL     1      -1.382  14.579  18.793  0.00  0.00    +0.000 HD
BRANCH  25  27
ATOM     27  C   UNL     1      -0.021  16.125  18.646  0.00  0.00    +0.000 A 
ATOM     28  C   UNL     1       1.374  16.063  18.574  0.00  0.00    +0.000 A 
ATOM     29  C   UNL     1       2.091  17.054  17.888  0.00  0.00    +0.000 A 
ATOM     30  C   UNL     1       1.420  18.096  17.246  0.00  0.00    +0.000 A 
ATOM     31  C   UNL     1       0.031  18.137  17.280  0.00  0.00    +0.000 A 
ATOM     32  C   UNL     1      -0.684  17.155  17.966  0.00  0.00    +0.000 A 
ENDBRANCH  25  27
ENDBRANCH  24  25
ENDBRANCH   1  24
TORSDOF 5
ENDMDL
MODEL 7
REMARK VINA RESULT:      -7.4      7.239      8.964
REMARK  Name = 
REMARK  5 active torsions:
REMARK  status: ('A' for Active; 'I' for Inactive)
REMARK    1  A    between atoms: C_2  and  N_3
REMARK    2  A    between atoms: C_2  and  N_10
REMARK    3  A    between atoms: N_3  and  C_4
REMARK    4  A    between atoms: C_12  and  C_13
REMARK    5  A    between atoms: C_21  and  C_22
REMARK                            x       y       z     vdW  Elec       q    Type
REMARK                         _______ _______ _______ _____ _____    ______ ____
ROOT
ATOM      1  N   UNL     1       0.114  10.200  20.657  0.00  0.00    +0.000 N 
ATOM      2  N   UNL     1       0.946   9.107  20.570  0.00  0.00    +0.000 NA
ATOM      3  C   UNL     1       1.409   9.065  19.358  0.00  0.00    +0.000 C 
ATOM      4  C   UNL     1       0.961  10.179  18.457  0.00  0.00    +0.000 C 
ATOM      5  C   UNL     1       0.108  10.984  19.431  0.00  0.00    +0.000 C 
ENDROOT
BRANCH   5   6
ATOM      6  C   UNL     1       0.665  12.382  19.644  0.00  0.00    +0.000 A 
ATOM      7  C   UNL     1       1.897  12.644  20.271  0.00  0.00    +0.000 A 
ATOM      8  C   UNL     1       2.370  13.957  20.383  0.00  0.00    +0.000 A 
ATOM      9  C   UNL     1       1.624  15.013  19.861  0.00  0.00    +0.000 A 
ATOM     10  C   UNL     1       0.379  14.753  19.290  0.00  0.00    +0.000 A 
ATOM     11  C   UNL     1      -0.087  13.452  19.157  0.00  0.00    +0.000 A 
ATOM     12  O   UNL     1      -0.446  15.731  18.810  0.00  0.00    +0.000 OA
ATOM     13  C   UNL     1       0.349  16.791  18.301  0.00  0.00    +0.000 C 
ATOM     14  C   UNL     1       1.373  17.285  19.314  0.00  0.00    +0.000 C 
ATOM     15  O   UNL     1       2.177  16.259  19.911  0.00  0.00    +0.000 OA
ENDBRANCH   5   6
BRANCH   3  16
ATOM     16  C   UNL     1       2.287   7.977  18.869  0.00  0.00    +0.000 A 
ATOM     17  C   UNL     1       2.368   6.795  19.617  0.00  0.00    +0.000 A 
ATOM     18  C   UNL     1       3.166   5.741  19.178  0.00  0.00    +0.000 A 
ATOM     19  C   UNL     1       3.885   5.864  17.990  0.00  0.00    +0.000 A 
ATOM     20 BR   UNL     1       4.965   4.433  17.392  0.00  0.00    +0.000 Br
ATOM     21  C   UNL     1       3.810   7.036  17.237  0.00  0.00    +0.000 A 
ATOM     22  C   UNL     1       3.008   8.094  17.675  0.00  0.00    +0.000 A 
ENDBRANCH   3  16
BRANCH   1  24
ATOM     23  S   UNL     1      -0.234   9.652  23.269  0.00  0.00    +0.000 S 
ATOM     24  C   UNL     1      -0.606  10.451  21.824  0.00  0.00    +0.000 C 
BRANCH  24  25
ATOM     25  N   UNL     1      -1.600  11.421  21.689  0.00  0.00    +0.000 N 
ATOM     26  H   UNL     1      -2.120  11.435  20.820  0.00  0.00    +0.000 HD
BRANCH  25  27
ATOM     27  C   UNL     1      -1.901  12.468  22.594  0.00  0.00    +0.000 A 
ATOM     28  C   UNL     1      -3.136  12.475  23.249  0.00  0.00    +0.000 A 
ATOM     29  C   UNL     1      -3.455  13.505  24.146  0.00  0.00    +0.000 A 
ATOM     30  C   UNL     1      -2.533  14.518  24.416  0.00  0.00    +0.000 A 
ATOM     31  C   UNL     1      -1.288  14.490  23.799  0.00  0.00    +0.000 A 
ATOM     32  C   UNL     1      -0.970  13.470  22.903  0.00  0.00    +0.000 A 
ENDBRANCH  25  27
ENDBRANCH  24  25
ENDBRANCH   1  24
TORSDOF 5
ENDMDL
MODEL 8
REMARK VINA RESULT:      -7.4      7.239      8.899
REMARK  Name = 
REMARK  5 active torsions:
REMARK  status: ('A' for Active; 'I' for Inactive)
REMARK    1  A    between atoms: C_2  and  N_3
REMARK    2  A    between atoms: C_2  and  N_10
REMARK    3  A    between atoms: N_3  and  C_4
REMARK    4  A    between atoms: C_12  and  C_13
REMARK    5  A    between atoms: C_21  and  C_22
REMARK                            x       y       z     vdW  Elec       q    Type
REMARK                         _______ _______ _______ _____ _____    ______ ____
ROOT
ATOM      1  N   UNL     1       0.107  10.207  20.634  0.00  0.00    +0.000 N 
ATOM      2  N   UNL     1       0.930   9.107  20.563  0.00  0.00    +0.000 NA
ATOM      3  C   UNL     1       1.385   9.038  19.349  0.00  0.00    +0.000 C 
ATOM      4  C   UNL     1       0.940  10.138  18.430  0.00  0.00    +0.000 C 
ATOM      5  C   UNL     1       0.100  10.968  19.393  0.00  0.00    +0.000 C 
ENDROOT
BRANCH   5   6
ATOM      6  C   UNL     1       0.668  12.365  19.576  0.00  0.00    +0.000 A 
ATOM      7  C   UNL     1       1.938  12.626  20.126  0.00  0.00    +0.000 A 
ATOM      8  C   UNL     1       2.416  13.938  20.212  0.00  0.00    +0.000 A 
ATOM      9  C   UNL     1       1.639  14.996  19.742  0.00  0.00    +0.000 A 
ATOM     10  C   UNL     1       0.361  14.737  19.249  0.00  0.00    +0.000 A 
ATOM     11  C   UNL     1      -0.112  13.437  19.141  0.00  0.00    +0.000 A 
ATOM     12  O   UNL     1      -0.492  15.718  18.826  0.00  0.00    +0.000 OA
ATOM     13  C   UNL     1       0.269  16.779  18.271  0.00  0.00    +0.000 C 
ATOM     14  C   UNL     1       1.354  17.270  19.220  0.00  0.00    +0.000 C 
ATOM     15  O   UNL     1       2.194  16.242  19.761  0.00  0.00    +0.000 OA
ENDBRANCH   5   6
BRANCH   3  16
ATOM     16  C   UNL     1       2.251   7.934  18.876  0.00  0.00    +0.000 A 
ATOM     17  C   UNL     1       2.994   8.121  17.703  0.00  0.00    +0.000 A 
ATOM     18  C   UNL     1       3.837   7.114  17.237  0.00  0.00    +0.000 A 
ATOM     19  C   UNL     1       3.942   5.917  17.944  0.00  0.00    +0.000 A 
ATOM     20 BR   UNL     1       5.087   4.552  17.316  0.00  0.00    +0.000 Br
ATOM     21  C   UNL     1       3.207   5.721  19.114  0.00  0.00    +0.000 A 
ATOM     22  C   UNL     1       2.363   6.731  19.583  0.00  0.00    +0.000 A 
ENDBRANCH   3  16
BRANCH   1  24
ATOM     23  S   UNL     1      -0.274   9.663  23.242  0.00  0.00    +0.000 S 
ATOM     24  C   UNL     1      -0.604  10.486  21.801  0.00  0.00    +0.000 C 
BRANCH  24  25
ATOM     25  N   UNL     1      -1.549  11.503  21.667  0.00  0.00    +0.000 N 
ATOM     26  H   UNL     1      -2.008  11.597  20.770  0.00  0.00    +0.000 HD
BRANCH  25  27
ATOM     27  C   UNL     1      -1.874  12.498  22.622  0.00  0.00    +0.000 A 
ATOM     28  C   UNL     1      -0.980  13.549  22.848  0.00  0.00    +0.000 A 
ATOM     29  C   UNL     1      -1.281  14.542  23.792  0.00  0.00    +0.000 A 
ATOM     30  C   UNL     1      -2.487  14.507  24.495  0.00  0.00    +0.000 A 
ATOM     31  C   UNL     1      -3.396  13.487  24.242  0.00  0.00    +0.000 A 
ATOM     32  C   UNL     1      -3.097  12.496  23.307  0.00  0.00    +0.000 A 
ENDBRANCH  25  27
ENDBRANCH  24  25
ENDBRANCH   1  24
TORSDOF 5
ENDMDL
MODEL 9
REMARK VINA RESULT:      -7.4      7.393      8.723
REMARK  Name = 
REMARK  5 active torsions:
REMARK  status: ('A' for Active; 'I' for Inactive)
REMARK    1  A    between atoms: C_2  and  N_3
REMARK    2  A    between atoms: C_2  and  N_10
REMARK    3  A    between atoms: N_3  and  C_4
REMARK    4  A    between atoms: C_12  and  C_13
REMARK    5  A    between atoms: C_21  and  C_22
REMARK                            x       y       z     vdW  Elec       q    Type
REMARK                         _______ _______ _______ _____ _____    ______ ____
ROOT
ATOM      1  N   UNL     1       0.272  10.808  19.828  0.00  0.00    +0.000 N 
ATOM      2  N   UNL     1       0.639   9.508  20.090  0.00  0.00    +0.000 NA
ATOM      3  C   UNL     1       1.523   9.166  19.204  0.00  0.00    +0.000 C 
ATOM      4  C   UNL     1       1.902  10.236  18.223  0.00  0.00    +0.000 C 
ATOM      5  C   UNL     1       1.048  11.388  18.741  0.00  0.00    +0.000 C 
ENDROOT
BRANCH   5   6
ATOM      6  C   UNL     1       1.900  12.555  19.207  0.00  0.00    +0.000 A 
ATOM      7  C   UNL     1       2.026  12.941  20.555  0.00  0.00    +0.000 A 
ATOM      8  C   UNL     1       2.874  13.995  20.914  0.00  0.00    +0.000 A 
ATOM      9  C   UNL     1       3.609  14.663  19.935  0.00  0.00    +0.000 A 
ATOM     10  C   UNL     1       3.438  14.313  18.597  0.00  0.00    +0.000 A 
ATOM     11  C   UNL     1       2.616  13.256  18.235  0.00  0.00    +0.000 A 
ATOM     12  O   UNL     1       4.070  14.954  17.567  0.00  0.00    +0.000 OA
ATOM     13  C   UNL     1       5.339  15.402  18.016  0.00  0.00    +0.000 C 
ATOM     14  C   UNL     1       5.244  16.226  19.294  0.00  0.00    +0.000 C 
ATOM     15  O   UNL     1       4.492  15.616  20.351  0.00  0.00    +0.000 OA
ENDBRANCH   5   6
BRANCH   3  16
ATOM     16  C   UNL     1       2.099   7.803  19.126  0.00  0.00    +0.000 A 
ATOM     17  C   UNL     1       2.864   7.462  18.003  0.00  0.00    +0.000 A 
ATOM     18  C   UNL     1       3.440   6.198  17.903  0.00  0.00    +0.000 A 
ATOM     19  C   UNL     1       3.256   5.270  18.928  0.00  0.00    +0.000 A 
ATOM     20 BR   UNL     1       4.040   3.556  18.796  0.00  0.00    +0.000 Br
ATOM     21  C   UNL     1       2.497   5.600  20.052  0.00  0.00    +0.000 A 
ATOM     22  C   UNL     1       1.920   6.869  20.153  0.00  0.00    +0.000 A 
ENDBRANCH   3  16
BRANCH   1  24
ATOM     23  S   UNL     1      -0.877  11.171  22.233  0.00  0.00    +0.000 S 
ATOM     24  C   UNL     1      -0.739  11.421  20.566  0.00  0.00    +0.000 C 
BRANCH  24  25
ATOM     25  N   UNL     1      -1.566  12.261  19.818  0.00  0.00    +0.000 N 
ATOM     26  H   UNL     1      -1.383  13.255  19.865  0.00  0.00    +0.000 HD
BRANCH  25  27
ATOM     27  C   UNL     1      -2.712  11.888  19.073  0.00  0.00    +0.000 A 
ATOM     28  C   UNL     1      -3.978  12.276  19.520  0.00  0.00    +0.000 A 
ATOM     29  C   UNL     1      -5.125  11.914  18.798  0.00  0.00    +0.000 A 
ATOM     30  C   UNL     1      -5.013  11.186  17.612  0.00  0.00    +0.000 A 
ATOM     31  C   UNL     1      -3.753  10.835  17.143  0.00  0.00    +0.000 A 
ATOM     32  C   UNL     1      -2.611  11.190  17.861  0.00  0.00    +0.000 A 
ENDBRANCH  25  27
ENDBRANCH  24  25
ENDBRANCH   1  24
TORSDOF 5
ENDMDL
