MODEL 1
REMARK VINA RESULT:      -8.1      0.000      0.000
REMARK  Name = 
REMARK  10 active torsions:
REMARK  status: ('A' for Active; 'I' for Inactive)
REMARK    1  A    between atoms: CG1_1  and  CB_2
REMARK    2  A    between atoms: CB_2  and  CG2_3
REMARK    3  A    between atoms: CB_2  and  CA_4
REMARK    4  A    between atoms: CA_4  and  N_5
REMARK    5  A    between atoms: CA_4  and  C_30
REMARK    6  A    between atoms: C_6  and  C_8
REMARK    7  A    between atoms: C_10  and  C_11
REMARK    8  A    between atoms: C_14  and  N_15
REMARK    9  A    between atoms: N_18  and  C_19
REMARK   10  A    between atoms: C_30  and  OXT_32
REMARK                            x       y       z     vdW  Elec       q    Type
REMARK                         _______ _______ _______ _____ _____    ______ ____
ROOT
ATOM      1  C   UNK A   0       2.671   6.975  18.336  0.00  0.00    +0.000 A 
ATOM      2  C   UNK A   0       2.309   6.913  19.683  0.00  0.00    +0.000 A 
ATOM      3  C   UNK A   0       1.761   8.026  20.329  0.00  0.00    +0.000 A 
ATOM      4  C   UNK A   0       1.568   9.232  19.650  0.00  0.00    +0.000 A 
ATOM      5  C   UNK A   0       1.862   9.286  18.285  0.00  0.00    +0.000 A 
ATOM      6  C   UNK A   0       2.421   8.171  17.640  0.00  0.00    +0.000 A 
ENDROOT
BRANCH   4   7
ATOM      7  N   UNK A   0       1.085  10.397  20.295  0.00  0.00    +0.000 N 
ATOM      8  C   UNK A   0      -0.225  10.560  20.715  0.00  0.00    +0.000 C 
ATOM      9  O   UNK A   0      -1.083   9.683  20.681  0.00  0.00    +0.000 OA
ATOM     10  N   UNK A   0      -0.467  11.852  21.164  0.00  0.00    +0.000 N 
ATOM     11  H   UNK A   0       1.766  10.991  20.749  0.00  0.00    +0.000 HD
ATOM     12  H   UNK A   0       0.043  12.562  20.658  0.00  0.00    +0.000 HD
BRANCH  10  13
ATOM     13  C   UNK A   0      -1.751  12.214  21.642  0.00  0.00    +0.000 A 
ATOM     14  C   UNK A   0      -2.080  12.108  22.999  0.00  0.00    +0.000 A 
ATOM     15  C   UNK A   0      -3.370  12.411  23.442  0.00  0.00    +0.000 A 
ATOM     16  C   UNK A   0      -4.340  12.808  22.526  0.00  0.00    +0.000 A 
ATOM     17  C   UNK A   0      -4.007  12.924  21.177  0.00  0.00    +0.000 A 
ATOM     18 CL   UNK A   0      -5.221  13.366  20.039  0.00  0.00    +0.000 Cl
ATOM     19  C   UNK A   0      -2.711  12.656  20.732  0.00  0.00    +0.000 A 
ENDBRANCH  10  13
ENDBRANCH   4   7
BRANCH   1  22
ATOM     20  C   UNK A   0       4.642   4.704  16.502  0.00  0.00    +0.000 A 
ATOM     21  N   UNK A   0       4.458   5.945  16.908  0.00  0.00    +0.000 NA
ATOM     22  C   UNK A   0       3.317   5.833  17.691  0.00  0.00    +0.000 A 
ATOM     23  N   UNK A   0       2.837   4.580  17.773  0.00  0.00    +0.000 NA
ATOM     24  O   UNK A   0       3.707   3.836  16.984  0.00  0.00    +0.000 OA
BRANCH  20  26
ATOM     25  N   VAL A   1       5.505   4.318  14.286  0.00  0.00    +0.000 N 
ATOM     26  C   UNK A   0       5.686   4.170  15.651  0.00  0.00    +0.000 C 
ATOM     27  O   UNK A   0       6.699   3.619  16.083  0.00  0.00    +0.000 OA
ATOM     28  H   VAL A   1       4.678   4.801  13.942  0.00  0.00    +0.000 HD
BRANCH  25  29
ATOM     29  CA  VAL A   1       6.532   3.893  13.331  0.00  0.00    +0.000 C 
BRANCH  29  31
ATOM     30  CG1 VAL A   1       4.394   3.466  12.002  0.00  0.00    +0.000 C 
ATOM     31  CB  VAL A   1       5.926   3.373  12.009  0.00  0.00    +0.000 C 
ATOM     32  CG2 VAL A   1       6.356   1.948  11.651  0.00  0.00    +0.000 C 
ENDBRANCH  29  31
BRANCH  29  33
ATOM     33  C   VAL A   1       7.539   5.039  13.138  0.00  0.00    +0.000 C 
ATOM     34  O   VAL A   1       7.864   5.478  12.042  0.00  0.00    +0.000 OA
BRANCH  33  35
ATOM     35  OXT VAL A   1       8.032   5.539  14.291  0.00  0.00    +0.000 OA
ATOM     36  HXT VAL A   1       8.892   6.001  14.210  0.00  0.00    +0.000 HD
ENDBRANCH  33  35
ENDBRANCH  29  33
ENDBRANCH  25  29
ENDBRANCH  20  26
ENDBRANCH   1  22
TORSDOF 8
ENDMDL
MODEL 2
REMARK VINA RESULT:      -7.7      3.372      5.363
REMARK  Name = 
REMARK  10 active torsions:
REMARK  status: ('A' for Active; 'I' for Inactive)
REMARK    1  A    between atoms: CG1_1  and  CB_2
REMARK    2  A    between atoms: CB_2  and  CG2_3
REMARK    3  A    between atoms: CB_2  and  CA_4
REMARK    4  A    between atoms: CA_4  and  N_5
REMARK    5  A    between atoms: CA_4  and  C_30
REMARK    6  A    between atoms: C_6  and  C_8
REMARK    7  A    between atoms: C_10  and  C_11
REMARK    8  A    between atoms: C_14  and  N_15
REMARK    9  A    between atoms: N_18  and  C_19
REMARK   10  A    between atoms: C_30  and  OXT_32
REMARK                            x       y       z     vdW  Elec       q    Type
REMARK                         _______ _______ _______ _____ _____    ______ ____
ROOT
ATOM      1  C   UNK A   0       0.407   9.942  20.663  0.00  0.00    +0.000 A 
ATOM      2  C   UNK A   0       0.005  11.255  20.411  0.00  0.00    +0.000 A 
ATOM      3  C   UNK A   0      -0.778  11.954  21.335  0.00  0.00    +0.000 A 
ATOM      4  C   UNK A   0      -1.188  11.359  22.530  0.00  0.00    +0.000 A 
ATOM      5  C   UNK A   0      -0.736  10.070  22.826  0.00  0.00    +0.000 A 
ATOM      6  C   UNK A   0       0.042   9.366  21.893  0.00  0.00    +0.000 A 
ENDROOT
BRANCH   4   7
ATOM      7  N   UNK A   0      -2.042  12.015  23.451  0.00  0.00    +0.000 N 
ATOM      8  C   UNK A   0      -3.335  12.413  23.155  0.00  0.00    +0.000 C 
ATOM      9  O   UNK A   0      -3.926  12.148  22.112  0.00  0.00    +0.000 OA
ATOM     10  N   UNK A   0      -3.888  13.176  24.176  0.00  0.00    +0.000 N 
ATOM     11  H   UNK A   0      -1.833  11.906  24.434  0.00  0.00    +0.000 HD
ATOM     12  H   UNK A   0      -3.221  13.770  24.648  0.00  0.00    +0.000 HD
BRANCH  10  13
ATOM     13  C   UNK A   0      -5.209  13.673  24.063  0.00  0.00    +0.000 A 
ATOM     14  C   UNK A   0      -6.320  12.836  24.228  0.00  0.00    +0.000 A 
ATOM     15  C   UNK A   0      -7.614  13.332  24.051  0.00  0.00    +0.000 A 
ATOM     16  C   UNK A   0      -7.802  14.665  23.695  0.00  0.00    +0.000 A 
ATOM     17  C   UNK A   0      -6.695  15.499  23.543  0.00  0.00    +0.000 A 
ATOM     18 CL   UNK A   0      -6.927  17.134  23.054  0.00  0.00    +0.000 Cl
ATOM     19  C   UNK A   0      -5.400  15.020  23.752  0.00  0.00    +0.000 A 
ENDBRANCH  10  13
ENDBRANCH   4   7
BRANCH   1  22
ATOM     20  C   UNK A   0       2.391   7.730  18.772  0.00  0.00    +0.000 A 
ATOM     21  N   UNK A   0       1.830   8.010  19.933  0.00  0.00    +0.000 NA
ATOM     22  C   UNK A   0       1.156   9.191  19.657  0.00  0.00    +0.000 A 
ATOM     23  N   UNK A   0       1.285   9.605  18.384  0.00  0.00    +0.000 NA
ATOM     24  O   UNK A   0       2.105   8.645  17.802  0.00  0.00    +0.000 OA
BRANCH  20  26
ATOM     25  N   VAL A   1       2.942   5.399  19.032  0.00  0.00    +0.000 N 
ATOM     26  C   UNK A   0       3.230   6.605  18.414  0.00  0.00    +0.000 C 
ATOM     27  O   UNK A   0       4.150   6.675  17.599  0.00  0.00    +0.000 OA
ATOM     28  H   VAL A   1       2.160   5.346  19.682  0.00  0.00    +0.000 HD
BRANCH  25  29
ATOM     29  CA  VAL A   1       3.668   4.174  18.687  0.00  0.00    +0.000 C 
BRANCH  29  31
ATOM     30  CG1 VAL A   1       3.780   1.671  19.179  0.00  0.00    +0.000 C 
ATOM     31  CB  VAL A   1       3.490   3.066  19.749  0.00  0.00    +0.000 C 
ATOM     32  CG2 VAL A   1       2.114   3.071  20.421  0.00  0.00    +0.000 C 
ENDBRANCH  29  31
BRANCH  29  33
ATOM     33  C   VAL A   1       3.263   3.737  17.269  0.00  0.00    +0.000 C 
ATOM     34  O   VAL A   1       2.137   3.359  16.972  0.00  0.00    +0.000 OA
BRANCH  33  35
ATOM     35  OXT VAL A   1       4.259   3.818  16.362  0.00  0.00    +0.000 OA
ATOM     36  HXT VAL A   1       4.653   4.709  16.255  0.00  0.00    +0.000 HD
ENDBRANCH  33  35
ENDBRANCH  29  33
ENDBRANCH  25  29
ENDBRANCH  20  26
ENDBRANCH   1  22
TORSDOF 8
ENDMDL
MODEL 3
REMARK VINA RESULT:      -7.7      0.882      1.602
REMARK  Name = 
REMARK  10 active torsions:
REMARK  status: ('A' for Active; 'I' for Inactive)
REMARK    1  A    between atoms: CG1_1  and  CB_2
REMARK    2  A    between atoms: CB_2  and  CG2_3
REMARK    3  A    between atoms: CB_2  and  CA_4
REMARK    4  A    between atoms: CA_4  and  N_5
REMARK    5  A    between atoms: CA_4  and  C_30
REMARK    6  A    between atoms: C_6  and  C_8
REMARK    7  A    between atoms: C_10  and  C_11
REMARK    8  A    between atoms: C_14  and  N_15
REMARK    9  A    between atoms: N_18  and  C_19
REMARK   10  A    between atoms: C_30  and  OXT_32
REMARK                            x       y       z     vdW  Elec       q    Type
REMARK                         _______ _______ _______ _____ _____    ______ ____
ROOT
ATOM      1  C   UNK A   0       2.631   7.132  18.426  0.00  0.00    +0.000 A 
ATOM      2  C   UNK A   0       2.480   8.337  17.735  0.00  0.00    +0.000 A 
ATOM      3  C   UNK A   0       1.924   9.456  18.363  0.00  0.00    +0.000 A 
ATOM      4  C   UNK A   0       1.496   9.401  19.692  0.00  0.00    +0.000 A 
ATOM      5  C   UNK A   0       1.705   8.223  20.414  0.00  0.00    +0.000 A 
ATOM      6  C   UNK A   0       2.255   7.097  19.780  0.00  0.00    +0.000 A 
ENDROOT
BRANCH   4   7
ATOM      7  N   UNK A   0       0.862  10.495  20.331  0.00  0.00    +0.000 N 
ATOM      8  C   UNK A   0      -0.512  10.643  20.425  0.00  0.00    +0.000 C 
ATOM      9  O   UNK A   0      -1.331   9.800  20.070  0.00  0.00    +0.000 OA
ATOM     10  N   UNK A   0      -0.864  11.879  20.952  0.00  0.00    +0.000 N 
ATOM     11  H   UNK A   0       1.405  11.011  21.011  0.00  0.00    +0.000 HD
ATOM     12  H   UNK A   0      -0.244  12.629  20.681  0.00  0.00    +0.000 HD
BRANCH  10  13
ATOM     13  C   UNK A   0      -2.227  12.218  21.133  0.00  0.00    +0.000 A 
ATOM     14  C   UNK A   0      -3.042  12.563  20.047  0.00  0.00    +0.000 A 
ATOM     15  C   UNK A   0      -4.368  12.955  20.252  0.00  0.00    +0.000 A 
ATOM     16  C   UNK A   0      -4.879  13.016  21.546  0.00  0.00    +0.000 A 
ATOM     17  C   UNK A   0      -4.070  12.660  22.623  0.00  0.00    +0.000 A 
ATOM     18 CL   UNK A   0      -4.689  12.783  24.225  0.00  0.00    +0.000 Cl
ATOM     19  C   UNK A   0      -2.755  12.234  22.424  0.00  0.00    +0.000 A 
ENDBRANCH  10  13
ENDBRANCH   4   7
BRANCH   1  22
ATOM     20  C   UNK A   0       4.347   4.699  16.545  0.00  0.00    +0.000 A 
ATOM     21  N   UNK A   0       4.325   5.928  17.021  0.00  0.00    +0.000 NA
ATOM     22  C   UNK A   0       3.137   5.945  17.739  0.00  0.00    +0.000 A 
ATOM     23  N   UNK A   0       2.473   4.776  17.715  0.00  0.00    +0.000 NA
ATOM     24  O   UNK A   0       3.267   3.956  16.922  0.00  0.00    +0.000 OA
BRANCH  20  26
ATOM     25  N   VAL A   1       5.319   4.378  14.363  0.00  0.00    +0.000 N 
ATOM     26  C   UNK A   0       5.347   4.063  15.712  0.00  0.00    +0.000 C 
ATOM     27  O   UNK A   0       6.201   3.289  16.146  0.00  0.00    +0.000 OA
ATOM     28  H   VAL A   1       4.628   5.043  14.021  0.00  0.00    +0.000 HD
BRANCH  25  29
ATOM     29  CA  VAL A   1       6.333   3.863  13.439  0.00  0.00    +0.000 C 
BRANCH  29  31
ATOM     30  CG1 VAL A   1       4.190   3.476  12.106  0.00  0.00    +0.000 C 
ATOM     31  CB  VAL A   1       5.722   3.390  12.101  0.00  0.00    +0.000 C 
ATOM     32  CG2 VAL A   1       6.156   1.981  11.689  0.00  0.00    +0.000 C 
ENDBRANCH  29  31
BRANCH  29  33
ATOM     33  C   VAL A   1       7.438   4.918  13.271  0.00  0.00    +0.000 C 
ATOM     34  O   VAL A   1       7.926   5.543  14.204  0.00  0.00    +0.000 OA
BRANCH  33  35
ATOM     35  OXT VAL A   1       7.844   5.092  11.994  0.00  0.00    +0.000 OA
ATOM     36  HXT VAL A   1       7.165   4.904  11.313  0.00  0.00    +0.000 HD
ENDBRANCH  33  35
ENDBRANCH  29  33
ENDBRANCH  25  29
ENDBRANCH  20  26
ENDBRANCH   1  22
TORSDOF 8
ENDMDL
MODEL 4
REMARK VINA RESULT:      -7.7      4.149      6.178
REMARK  Name = 
REMARK  10 active torsions:
REMARK  status: ('A' for Active; 'I' for Inactive)
REMARK    1  A    between atoms: CG1_1  and  CB_2
REMARK    2  A    between atoms: CB_2  and  CG2_3
REMARK    3  A    between atoms: CB_2  and  CA_4
REMARK    4  A    between atoms: CA_4  and  N_5
REMARK    5  A    between atoms: CA_4  and  C_30
REMARK    6  A    between atoms: C_6  and  C_8
REMARK    7  A    between atoms: C_10  and  C_11
REMARK    8  A    between atoms: C_14  and  N_15
REMARK    9  A    between atoms: N_18  and  C_19
REMARK   10  A    between atoms: C_30  and  OXT_32
REMARK                            x       y       z     vdW  Elec       q    Type
REMARK                         _______ _______ _______ _____ _____    ______ ____
ROOT
ATOM      1  C   UNK A   0       0.166   9.802  20.956  0.00  0.00    +0.000 A 
ATOM      2  C   UNK A   0      -0.037   9.608  22.324  0.00  0.00    +0.000 A 
ATOM      3  C   UNK A   0      -0.801  10.513  23.069  0.00  0.00    +0.000 A 
ATOM      4  C   UNK A   0      -1.373  11.638  22.471  0.00  0.00    +0.000 A 
ATOM      5  C   UNK A   0      -1.235  11.806  21.091  0.00  0.00    +0.000 A 
ATOM      6  C   UNK A   0      -0.461  10.903  20.346  0.00  0.00    +0.000 A 
ENDROOT
BRANCH   4   7
ATOM      7  N   UNK A   0      -2.089  12.610  23.213  0.00  0.00    +0.000 N 
ATOM      8  C   UNK A   0      -1.544  13.810  23.640  0.00  0.00    +0.000 C 
ATOM      9  O   UNK A   0      -0.427  14.218  23.333  0.00  0.00    +0.000 OA
ATOM     10  N   UNK A   0      -2.407  14.499  24.483  0.00  0.00    +0.000 N 
ATOM     11  H   UNK A   0      -3.098  12.584  23.157  0.00  0.00    +0.000 HD
ATOM     12  H   UNK A   0      -2.958  13.899  25.080  0.00  0.00    +0.000 HD
BRANCH  10  13
ATOM     13  C   UNK A   0      -2.031  15.754  25.021  0.00  0.00    +0.000 A 
ATOM     14  C   UNK A   0      -2.365  16.952  24.377  0.00  0.00    +0.000 A 
ATOM     15  C   UNK A   0      -1.932  18.178  24.890  0.00  0.00    +0.000 A 
ATOM     16  C   UNK A   0      -1.151  18.208  26.042  0.00  0.00    +0.000 A 
ATOM     17  C   UNK A   0      -0.830  17.015  26.688  0.00  0.00    +0.000 A 
ATOM     18 CL   UNK A   0       0.177  17.051  28.084  0.00  0.00    +0.000 Cl
ATOM     19  C   UNK A   0      -1.288  15.789  26.201  0.00  0.00    +0.000 A 
ENDBRANCH  10  13
ENDBRANCH   4   7
BRANCH   1  22
ATOM     20  C   UNK A   0       2.213   7.224  19.704  0.00  0.00    +0.000 A 
ATOM     21  N   UNK A   0       1.410   7.644  20.662  0.00  0.00    +0.000 NA
ATOM     22  C   UNK A   0       1.032   8.897  20.201  0.00  0.00    +0.000 A 
ATOM     23  N   UNK A   0       1.565   9.221  19.010  0.00  0.00    +0.000 NA
ATOM     24  O   UNK A   0       2.349   8.120  18.685  0.00  0.00    +0.000 OA
BRANCH  20  26
ATOM     25  N   VAL A   1       2.155   4.827  19.471  0.00  0.00    +0.000 N 
ATOM     26  C   UNK A   0       2.928   5.968  19.600  0.00  0.00    +0.000 C 
ATOM     27  O   UNK A   0       4.157   5.883  19.610  0.00  0.00    +0.000 OA
ATOM     28  H   VAL A   1       1.141   4.912  19.434  0.00  0.00    +0.000 HD
BRANCH  25  29
ATOM     29  CA  VAL A   1       2.768   3.510  19.273  0.00  0.00    +0.000 C 
BRANCH  29  31
ATOM     30  CG1 VAL A   1       0.609   2.161  19.078  0.00  0.00    +0.000 C 
ATOM     31  CB  VAL A   1       1.911   2.368  19.863  0.00  0.00    +0.000 C 
ATOM     32  CG2 VAL A   1       1.591   2.542  21.350  0.00  0.00    +0.000 C 
ENDBRANCH  29  31
BRANCH  29  33
ATOM     33  C   VAL A   1       3.090   3.328  17.781  0.00  0.00    +0.000 C 
ATOM     34  O   VAL A   1       2.317   3.625  16.879  0.00  0.00    +0.000 OA
BRANCH  33  35
ATOM     35  OXT VAL A   1       4.318   2.821  17.541  0.00  0.00    +0.000 OA
ATOM     36  HXT VAL A   1       4.946   2.877  18.291  0.00  0.00    +0.000 HD
ENDBRANCH  33  35
ENDBRANCH  29  33
ENDBRANCH  25  29
ENDBRANCH  20  26
ENDBRANCH   1  22
TORSDOF 8
ENDMDL
MODEL 5
REMARK VINA RESULT:      -7.7      3.818      5.400
REMARK  Name = 
REMARK  10 active torsions:
REMARK  status: ('A' for Active; 'I' for Inactive)
REMARK    1  A    between atoms: CG1_1  and  CB_2
REMARK    2  A    between atoms: CB_2  and  CG2_3
REMARK    3  A    between atoms: CB_2  and  CA_4
REMARK    4  A    between atoms: CA_4  and  N_5
REMARK    5  A    between atoms: CA_4  and  C_30
REMARK    6  A    between atoms: C_6  and  C_8
REMARK    7  A    between atoms: C_10  and  C_11
REMARK    8  A    between atoms: C_14  and  N_15
REMARK    9  A    between atoms: N_18  and  C_19
REMARK   10  A    between atoms: C_30  and  OXT_32
REMARK                            x       y       z     vdW  Elec       q    Type
REMARK                         _______ _______ _______ _____ _____    ______ ____
ROOT
ATOM      1  C   UNK A   0       0.673  10.216  18.840  0.00  0.00    +0.000 A 
ATOM      2  C   UNK A   0       1.175  11.428  19.318  0.00  0.00    +0.000 A 
ATOM      3  C   UNK A   0       0.316  12.491  19.617  0.00  0.00    +0.000 A 
ATOM      4  C   UNK A   0      -1.065  12.376  19.437  0.00  0.00    +0.000 A 
ATOM      5  C   UNK A   0      -1.586  11.146  19.026  0.00  0.00    +0.000 A 
ATOM      6  C   UNK A   0      -0.722  10.083  18.717  0.00  0.00    +0.000 A 
ENDROOT
BRANCH   4   7
ATOM      7  N   UNK A   0      -1.952  13.458  19.660  0.00  0.00    +0.000 N 
ATOM      8  C   UNK A   0      -2.799  13.548  20.752  0.00  0.00    +0.000 C 
ATOM      9  O   UNK A   0      -2.801  12.770  21.701  0.00  0.00    +0.000 OA
ATOM     10  N   UNK A   0      -3.674  14.621  20.639  0.00  0.00    +0.000 N 
ATOM     11  H   UNK A   0      -1.742  14.331  19.196  0.00  0.00    +0.000 HD
ATOM     12  H   UNK A   0      -3.972  14.807  19.692  0.00  0.00    +0.000 HD
BRANCH  10  13
ATOM     13  C   UNK A   0      -4.618  14.885  21.663  0.00  0.00    +0.000 A 
ATOM     14  C   UNK A   0      -5.949  14.461  21.554  0.00  0.00    +0.000 A 
ATOM     15  C   UNK A   0      -6.879  14.785  22.545  0.00  0.00    +0.000 A 
ATOM     16  C   UNK A   0      -6.485  15.546  23.642  0.00  0.00    +0.000 A 
ATOM     17  C   UNK A   0      -5.157  15.957  23.754  0.00  0.00    +0.000 A 
ATOM     18 CL   UNK A   0      -4.683  16.940  25.086  0.00  0.00    +0.000 Cl
ATOM     19  C   UNK A   0      -4.214  15.608  22.785  0.00  0.00    +0.000 A 
ENDBRANCH  10  13
ENDBRANCH   4   7
BRANCH   1  22
ATOM     20  C   UNK A   0       2.690   7.347  18.522  0.00  0.00    +0.000 A 
ATOM     21  N   UNK A   0       1.763   7.988  19.207  0.00  0.00    +0.000 NA
ATOM     22  C   UNK A   0       1.583   9.139  18.454  0.00  0.00    +0.000 A 
ATOM     23  N   UNK A   0       2.352   9.193  17.353  0.00  0.00    +0.000 NA
ATOM     24  O   UNK A   0       3.087   8.014  17.400  0.00  0.00    +0.000 OA
BRANCH  20  26
ATOM     25  N   VAL A   1       2.442   5.010  19.054  0.00  0.00    +0.000 N 
ATOM     26  C   UNK A   0       3.304   6.064  18.799  0.00  0.00    +0.000 C 
ATOM     27  O   UNK A   0       4.521   5.880  18.803  0.00  0.00    +0.000 OA
ATOM     28  H   VAL A   1       1.437   5.168  19.018  0.00  0.00    +0.000 HD
BRANCH  25  29
ATOM     29  CA  VAL A   1       2.945   3.649  19.263  0.00  0.00    +0.000 C 
BRANCH  29  31
ATOM     30  CG1 VAL A   1       0.541   3.258  20.029  0.00  0.00    +0.000 C 
ATOM     31  CB  VAL A   1       2.002   2.805  20.149  0.00  0.00    +0.000 C 
ATOM     32  CG2 VAL A   1       2.410   2.769  21.624  0.00  0.00    +0.000 C 
ENDBRANCH  29  31
BRANCH  29  33
ATOM     33  C   VAL A   1       3.240   3.011  17.896  0.00  0.00    +0.000 C 
ATOM     34  O   VAL A   1       2.371   2.616  17.130  0.00  0.00    +0.000 OA
BRANCH  33  35
ATOM     35  OXT VAL A   1       4.555   2.932  17.598  0.00  0.00    +0.000 OA
ATOM     36  HXT VAL A   1       4.828   2.113  17.134  0.00  0.00    +0.000 HD
ENDBRANCH  33  35
ENDBRANCH  29  33
ENDBRANCH  25  29
ENDBRANCH  20  26
ENDBRANCH   1  22
TORSDOF 8
ENDMDL
MODEL 6
REMARK VINA RESULT:      -7.7      3.860      5.159
REMARK  Name = 
REMARK  10 active torsions:
REMARK  status: ('A' for Active; 'I' for Inactive)
REMARK    1  A    between atoms: CG1_1  and  CB_2
REMARK    2  A    between atoms: CB_2  and  CG2_3
REMARK    3  A    between atoms: CB_2  and  CA_4
REMARK    4  A    between atoms: CA_4  and  N_5
REMARK    5  A    between atoms: CA_4  and  C_30
REMARK    6  A    between atoms: C_6  and  C_8
REMARK    7  A    between atoms: C_10  and  C_11
REMARK    8  A    between atoms: C_14  and  N_15
REMARK    9  A    between atoms: N_18  and  C_19
REMARK   10  A    between atoms: C_30  and  OXT_32
REMARK                            x       y       z     vdW  Elec       q    Type
REMARK                         _______ _______ _______ _____ _____    ______ ____
ROOT
ATOM      1  C   UNK A   0       0.901   9.845  18.293  0.00  0.00    +0.000 A 
ATOM      2  C   UNK A   0      -0.430   9.633  17.926  0.00  0.00    +0.000 A 
ATOM      3  C   UNK A   0      -1.399  10.619  18.145  0.00  0.00    +0.000 A 
ATOM      4  C   UNK A   0      -1.067  11.837  18.743  0.00  0.00    +0.000 A 
ATOM      5  C   UNK A   0       0.272  12.088  19.050  0.00  0.00    +0.000 A 
ATOM      6  C   UNK A   0       1.242  11.095  18.840  0.00  0.00    +0.000 A 
ENDROOT
BRANCH   4   7
ATOM      7  N   UNK A   0      -2.038  12.824  19.044  0.00  0.00    +0.000 N 
ATOM      8  C   UNK A   0      -2.684  12.923  20.265  0.00  0.00    +0.000 C 
ATOM      9  O   UNK A   0      -2.415  12.248  21.255  0.00  0.00    +0.000 OA
ATOM     10  N   UNK A   0      -3.700  13.869  20.237  0.00  0.00    +0.000 N 
ATOM     11  H   UNK A   0      -2.031  13.665  18.484  0.00  0.00    +0.000 HD
ATOM     12  H   UNK A   0      -4.182  13.924  19.350  0.00  0.00    +0.000 HD
BRANCH  10  13
ATOM     13  C   UNK A   0      -4.476  14.121  21.395  0.00  0.00    +0.000 A 
ATOM     14  C   UNK A   0      -4.116  15.118  22.311  0.00  0.00    +0.000 A 
ATOM     15  C   UNK A   0      -4.858  15.309  23.479  0.00  0.00    +0.000 A 
ATOM     16  C   UNK A   0      -5.957  14.495  23.742  0.00  0.00    +0.000 A 
ATOM     17  C   UNK A   0      -6.320  13.511  22.823  0.00  0.00    +0.000 A 
ATOM     18 CL   UNK A   0      -7.648  12.473  23.174  0.00  0.00    +0.000 Cl
ATOM     19  C   UNK A   0      -5.604  13.337  21.637  0.00  0.00    +0.000 A 
ENDBRANCH  10  13
ENDBRANCH   4   7
BRANCH   1  22
ATOM     20  C   UNK A   0       2.935   6.974  18.429  0.00  0.00    +0.000 A 
ATOM     21  N   UNK A   0       1.843   7.587  18.842  0.00  0.00    +0.000 NA
ATOM     22  C   UNK A   0       1.890   8.780  18.136  0.00  0.00    +0.000 A 
ATOM     23  N   UNK A   0       2.951   8.885  17.318  0.00  0.00    +0.000 NA
ATOM     24  O   UNK A   0       3.645   7.697  17.515  0.00  0.00    +0.000 OA
BRANCH  20  26
ATOM     25  N   VAL A   1       2.503   4.678  19.016  0.00  0.00    +0.000 N 
ATOM     26  C   UNK A   0       3.445   5.670  18.803  0.00  0.00    +0.000 C 
ATOM     27  O   UNK A   0       4.644   5.419  18.923  0.00  0.00    +0.000 OA
ATOM     28  H   VAL A   1       1.516   4.890  18.885  0.00  0.00    +0.000 HD
BRANCH  25  29
ATOM     29  CA  VAL A   1       2.904   3.300  19.316  0.00  0.00    +0.000 C 
BRANCH  29  31
ATOM     30  CG1 VAL A   1       0.498   3.008  20.119  0.00  0.00    +0.000 C 
ATOM     31  CB  VAL A   1       1.967   2.626  20.343  0.00  0.00    +0.000 C 
ATOM     32  CG2 VAL A   1       2.353   2.898  21.800  0.00  0.00    +0.000 C 
ENDBRANCH  29  31
BRANCH  29  33
ATOM     33  C   VAL A   1       3.032   2.519  17.997  0.00  0.00    +0.000 C 
ATOM     34  O   VAL A   1       3.774   1.556  17.849  0.00  0.00    +0.000 OA
BRANCH  33  35
ATOM     35  OXT VAL A   1       2.239   2.979  17.005  0.00  0.00    +0.000 OA
ATOM     36  HXT VAL A   1       1.282   2.810  17.126  0.00  0.00    +0.000 HD
ENDBRANCH  33  35
ENDBRANCH  29  33
ENDBRANCH  25  29
ENDBRANCH  20  26
ENDBRANCH   1  22
TORSDOF 8
ENDMDL
MODEL 7
REMARK VINA RESULT:      -7.7      3.355      5.106
REMARK  Name = 
REMARK  10 active torsions:
REMARK  status: ('A' for Active; 'I' for Inactive)
REMARK    1  A    between atoms: CG1_1  and  CB_2
REMARK    2  A    between atoms: CB_2  and  CG2_3
REMARK    3  A    between atoms: CB_2  and  CA_4
REMARK    4  A    between atoms: CA_4  and  N_5
REMARK    5  A    between atoms: CA_4  and  C_30
REMARK    6  A    between atoms: C_6  and  C_8
REMARK    7  A    between atoms: C_10  and  C_11
REMARK    8  A    between atoms: C_14  and  N_15
REMARK    9  A    between atoms: N_18  and  C_19
REMARK   10  A    between atoms: C_30  and  OXT_32
REMARK                            x       y       z     vdW  Elec       q    Type
REMARK                         _______ _______ _______ _____ _____    ______ ____
ROOT
ATOM      1  C   UNK A   0       0.748   9.705  20.595  0.00  0.00    +0.000 A 
ATOM      2  C   UNK A   0       0.579  11.077  20.391  0.00  0.00    +0.000 A 
ATOM      3  C   UNK A   0      -0.138  11.853  21.308  0.00  0.00    +0.000 A 
ATOM      4  C   UNK A   0      -0.713  11.281  22.445  0.00  0.00    +0.000 A 
ATOM      5  C   UNK A   0      -0.492   9.924  22.696  0.00  0.00    +0.000 A 
ATOM      6  C   UNK A   0       0.220   9.144  21.771  0.00  0.00    +0.000 A 
ENDROOT
BRANCH   4   7
ATOM      7  N   UNK A   0      -1.506  12.026  23.352  0.00  0.00    +0.000 N 
ATOM      8  C   UNK A   0      -2.826  12.373  23.117  0.00  0.00    +0.000 C 
ATOM      9  O   UNK A   0      -3.491  11.984  22.160  0.00  0.00    +0.000 OA
ATOM     10  N   UNK A   0      -3.314  13.239  24.087  0.00  0.00    +0.000 N 
ATOM     11  H   UNK A   0      -1.219  12.032  24.321  0.00  0.00    +0.000 HD
ATOM     12  H   UNK A   0      -2.625  13.891  24.434  0.00  0.00    +0.000 HD
BRANCH  10  13
ATOM     13  C   UNK A   0      -4.650  13.704  24.024  0.00  0.00    +0.000 A 
ATOM     14  C   UNK A   0      -5.734  12.834  24.198  0.00  0.00    +0.000 A 
ATOM     15  C   UNK A   0      -7.045  13.300  24.070  0.00  0.00    +0.000 A 
ATOM     16  C   UNK A   0      -7.277  14.636  23.755  0.00  0.00    +0.000 A 
ATOM     17  C   UNK A   0      -6.197  15.503  23.594  0.00  0.00    +0.000 A 
ATOM     18 CL   UNK A   0      -6.485  17.143  23.155  0.00  0.00    +0.000 Cl
ATOM     19  C   UNK A   0      -4.885  15.053  23.754  0.00  0.00    +0.000 A 
ENDBRANCH  10  13
ENDBRANCH   4   7
BRANCH   1  22
ATOM     20  C   UNK A   0       2.379   7.248  18.672  0.00  0.00    +0.000 A 
ATOM     21  N   UNK A   0       1.740   7.549  19.784  0.00  0.00    +0.000 NA
ATOM     22  C   UNK A   0       1.429   8.888  19.593  0.00  0.00    +0.000 A 
ATOM     23  N   UNK A   0       1.846   9.377  18.412  0.00  0.00    +0.000 NA
ATOM     24  O   UNK A   0       2.478   8.298  17.806  0.00  0.00    +0.000 OA
BRANCH  20  26
ATOM     25  N   VAL A   1       4.214   5.689  18.766  0.00  0.00    +0.000 N 
ATOM     26  C   UNK A   0       2.956   5.981  18.267  0.00  0.00    +0.000 C 
ATOM     27  O   UNK A   0       2.382   5.178  17.530  0.00  0.00    +0.000 OA
ATOM     28  H   VAL A   1       4.665   6.347  19.398  0.00  0.00    +0.000 HD
BRANCH  25  29
ATOM     29  CA  VAL A   1       4.861   4.402  18.494  0.00  0.00    +0.000 C 
BRANCH  29  31
ATOM     30  CG1 VAL A   1       6.953   5.682  19.202  0.00  0.00    +0.000 C 
ATOM     31  CB  VAL A   1       6.394   4.532  18.353  0.00  0.00    +0.000 C 
ATOM     32  CG2 VAL A   1       6.869   4.684  16.906  0.00  0.00    +0.000 C 
ENDBRANCH  29  31
BRANCH  29  33
ATOM     33  C   VAL A   1       4.426   3.388  19.565  0.00  0.00    +0.000 C 
ATOM     34  O   VAL A   1       3.397   3.493  20.220  0.00  0.00    +0.000 OA
BRANCH  33  35
ATOM     35  OXT VAL A   1       5.276   2.349  19.718  0.00  0.00    +0.000 OA
ATOM     36  HXT VAL A   1       5.073   1.752  20.468  0.00  0.00    +0.000 HD
ENDBRANCH  33  35
ENDBRANCH  29  33
ENDBRANCH  25  29
ENDBRANCH  20  26
ENDBRANCH   1  22
TORSDOF 8
ENDMDL
MODEL 8
REMARK VINA RESULT:      -7.7      2.614      4.311
REMARK  Name = 
REMARK  10 active torsions:
REMARK  status: ('A' for Active; 'I' for Inactive)
REMARK    1  A    between atoms: CG1_1  and  CB_2
REMARK    2  A    between atoms: CB_2  and  CG2_3
REMARK    3  A    between atoms: CB_2  and  CA_4
REMARK    4  A    between atoms: CA_4  and  N_5
REMARK    5  A    between atoms: CA_4  and  C_30
REMARK    6  A    between atoms: C_6  and  C_8
REMARK    7  A    between atoms: C_10  and  C_11
REMARK    8  A    between atoms: C_14  and  N_15
REMARK    9  A    between atoms: N_18  and  C_19
REMARK   10  A    between atoms: C_30  and  OXT_32
REMARK                            x       y       z     vdW  Elec       q    Type
REMARK                         _______ _______ _______ _____ _____    ______ ____
ROOT
ATOM      1  C   UNK A   0       0.840   9.508  20.540  0.00  0.00    +0.000 A 
ATOM      2  C   UNK A   0       0.683  10.894  20.481  0.00  0.00    +0.000 A 
ATOM      3  C   UNK A   0      -0.084  11.569  21.436  0.00  0.00    +0.000 A 
ATOM      4  C   UNK A   0      -0.721  10.878  22.470  0.00  0.00    +0.000 A 
ATOM      5  C   UNK A   0      -0.515   9.501  22.580  0.00  0.00    +0.000 A 
ATOM      6  C   UNK A   0       0.247   8.823  21.615  0.00  0.00    +0.000 A 
ENDROOT
BRANCH   4   7
ATOM      7  N   UNK A   0      -1.564  11.524  23.408  0.00  0.00    +0.000 N 
ATOM      8  C   UNK A   0      -2.751  12.155  23.072  0.00  0.00    +0.000 C 
ATOM      9  O   UNK A   0      -3.263  12.132  21.957  0.00  0.00    +0.000 OA
ATOM     10  N   UNK A   0      -3.292  12.844  24.150  0.00  0.00    +0.000 N 
ATOM     11  H   UNK A   0      -1.474  11.249  24.376  0.00  0.00    +0.000 HD
ATOM     12  H   UNK A   0      -2.600  13.257  24.759  0.00  0.00    +0.000 HD
BRANCH  10  13
ATOM     13  C   UNK A   0      -4.511  13.551  24.007  0.00  0.00    +0.000 A 
ATOM     14  C   UNK A   0      -5.746  12.891  24.049  0.00  0.00    +0.000 A 
ATOM     15  C   UNK A   0      -6.935  13.596  23.844  0.00  0.00    +0.000 A 
ATOM     16  C   UNK A   0      -6.892  14.963  23.583  0.00  0.00    +0.000 A 
ATOM     17  C   UNK A   0      -5.663  15.620  23.554  0.00  0.00    +0.000 A 
ATOM     18 CL   UNK A   0      -5.609  17.301  23.182  0.00  0.00    +0.000 Cl
ATOM     19  C   UNK A   0      -4.473  14.929  23.792  0.00  0.00    +0.000 A 
ENDBRANCH  10  13
ENDBRANCH   4   7
BRANCH   1  22
ATOM     20  C   UNK A   0       2.727   7.335  18.511  0.00  0.00    +0.000 A 
ATOM     21  N   UNK A   0       2.131   7.542  19.668  0.00  0.00    +0.000 NA
ATOM     22  C   UNK A   0       1.576   8.802  19.493  0.00  0.00    +0.000 A 
ATOM     23  N   UNK A   0       1.808   9.333  18.279  0.00  0.00    +0.000 NA
ATOM     24  O   UNK A   0       2.573   8.368  17.633  0.00  0.00    +0.000 OA
BRANCH  20  26
ATOM     25  N   VAL A   1       4.794   6.414  17.683  0.00  0.00    +0.000 N 
ATOM     26  C   UNK A   0       3.485   6.181  18.070  0.00  0.00    +0.000 C 
ATOM     27  O   UNK A   0       3.027   5.038  18.040  0.00  0.00    +0.000 OA
ATOM     28  H   VAL A   1       5.171   7.358  17.741  0.00  0.00    +0.000 HD
BRANCH  25  29
ATOM     29  CA  VAL A   1       5.683   5.313  17.300  0.00  0.00    +0.000 C 
BRANCH  29  31
ATOM     30  CG1 VAL A   1       5.240   6.417  15.040  0.00  0.00    +0.000 C 
ATOM     31  CB  VAL A   1       6.010   5.320  15.790  0.00  0.00    +0.000 C 
ATOM     32  CG2 VAL A   1       5.781   3.971  15.103  0.00  0.00    +0.000 C 
ENDBRANCH  29  31
BRANCH  29  33
ATOM     33  C   VAL A   1       6.930   5.341  18.199  0.00  0.00    +0.000 C 
ATOM     34  O   VAL A   1       7.255   6.307  18.877  0.00  0.00    +0.000 OA
BRANCH  33  35
ATOM     35  OXT VAL A   1       7.640   4.193  18.191  0.00  0.00    +0.000 OA
ATOM     36  HXT VAL A   1       8.353   4.148  17.520  0.00  0.00    +0.000 HD
ENDBRANCH  33  35
ENDBRANCH  29  33
ENDBRANCH  25  29
ENDBRANCH  20  26
ENDBRANCH   1  22
TORSDOF 8
ENDMDL
MODEL 9
REMARK VINA RESULT:      -7.7      0.935      1.403
REMARK  Name = 
REMARK  10 active torsions:
REMARK  status: ('A' for Active; 'I' for Inactive)
REMARK    1  A    between atoms: CG1_1  and  CB_2
REMARK    2  A    between atoms: CB_2  and  CG2_3
REMARK    3  A    between atoms: CB_2  and  CA_4
REMARK    4  A    between atoms: CA_4  and  N_5
REMARK    5  A    between atoms: CA_4  and  C_30
REMARK    6  A    between atoms: C_6  and  C_8
REMARK    7  A    between atoms: C_10  and  C_11
REMARK    8  A    between atoms: C_14  and  N_15
REMARK    9  A    between atoms: N_18  and  C_19
REMARK   10  A    between atoms: C_30  and  OXT_32
REMARK                            x       y       z     vdW  Elec       q    Type
REMARK                         _______ _______ _______ _____ _____    ______ ____
ROOT
ATOM      1  C   UNK A   0       2.627   6.820  18.462  0.00  0.00    +0.000 A 
ATOM      2  C   UNK A   0       2.321   6.713  19.821  0.00  0.00    +0.000 A 
ATOM      3  C   UNK A   0       1.775   7.795  20.519  0.00  0.00    +0.000 A 
ATOM      4  C   UNK A   0       1.528   9.014  19.883  0.00  0.00    +0.000 A 
ATOM      5  C   UNK A   0       1.765   9.112  18.509  0.00  0.00    +0.000 A 
ATOM      6  C   UNK A   0       2.322   8.028  17.812  0.00  0.00    +0.000 A 
ENDROOT
BRANCH   4   7
ATOM      7  N   UNK A   0       1.045  10.149  20.579  0.00  0.00    +0.000 N 
ATOM      8  C   UNK A   0      -0.299  10.446  20.733  0.00  0.00    +0.000 C 
ATOM      9  O   UNK A   0      -1.220   9.711  20.388  0.00  0.00    +0.000 OA
ATOM     10  N   UNK A   0      -0.490  11.695  21.310  0.00  0.00    +0.000 N 
ATOM     11  H   UNK A   0       1.667  10.579  21.250  0.00  0.00    +0.000 HD
ATOM     12  H   UNK A   0       0.199  12.381  21.035  0.00  0.00    +0.000 HD
BRANCH  10  13
ATOM     13  C   UNK A   0      -1.799  12.177  21.555  0.00  0.00    +0.000 A 
ATOM     14  C   UNK A   0      -2.540  12.817  20.554  0.00  0.00    +0.000 A 
ATOM     15  C   UNK A   0      -3.805  13.341  20.833  0.00  0.00    +0.000 A 
ATOM     16  C   UNK A   0      -4.328  13.238  22.119  0.00  0.00    +0.000 A 
ATOM     17  C   UNK A   0      -3.594  12.590  23.111  0.00  0.00    +0.000 A 
ATOM     18 CL   UNK A   0      -4.221  12.508  24.713  0.00  0.00    +0.000 Cl
ATOM     19  C   UNK A   0      -2.344  12.034  22.832  0.00  0.00    +0.000 A 
ENDBRANCH  10  13
ENDBRANCH   4   7
BRANCH   1  22
ATOM     20  C   UNK A   0       4.638   4.632  16.572  0.00  0.00    +0.000 A 
ATOM     21  N   UNK A   0       4.476   5.837  17.082  0.00  0.00    +0.000 NA
ATOM     22  C   UNK A   0       3.272   5.712  17.760  0.00  0.00    +0.000 A 
ATOM     23  N   UNK A   0       2.732   4.483  17.683  0.00  0.00    +0.000 NA
ATOM     24  O   UNK A   0       3.629   3.772  16.894  0.00  0.00    +0.000 OA
BRANCH  20  26
ATOM     25  N   VAL A   1       5.488   4.059  14.392  0.00  0.00    +0.000 N 
ATOM     26  C   UNK A   0       5.722   4.126  15.755  0.00  0.00    +0.000 C 
ATOM     27  O   UNK A   0       6.812   3.778  16.212  0.00  0.00    +0.000 OA
ATOM     28  H   VAL A   1       4.595   4.378  14.023  0.00  0.00    +0.000 HD
BRANCH  25  29
ATOM     29  CA  VAL A   1       6.539   3.644  13.459  0.00  0.00    +0.000 C 
BRANCH  29  31
ATOM     30  CG1 VAL A   1       7.080   2.425  11.281  0.00  0.00    +0.000 C 
ATOM     31  CB  VAL A   1       5.991   2.778  12.303  0.00  0.00    +0.000 C 
ATOM     32  CG2 VAL A   1       4.793   3.401  11.581  0.00  0.00    +0.000 C 
ENDBRANCH  29  31
BRANCH  29  33
ATOM     33  C   VAL A   1       7.306   4.890  12.983  0.00  0.00    +0.000 C 
ATOM     34  O   VAL A   1       7.412   5.212  11.807  0.00  0.00    +0.000 OA
BRANCH  33  35
ATOM     35  OXT VAL A   1       7.847   5.618  13.984  0.00  0.00    +0.000 OA
ATOM     36  HXT VAL A   1       8.826   5.657  13.987  0.00  0.00    +0.000 HD
ENDBRANCH  33  35
ENDBRANCH  29  33
ENDBRANCH  25  29
ENDBRANCH  20  26
ENDBRANCH   1  22
TORSDOF 8
ENDMDL
