MODEL 1
REMARK VINA RESULT:      -7.1      0.000      0.000
REMARK  Name = 
REMARK  3 active torsions:
REMARK  status: ('A' for Active; 'I' for Inactive)
REMARK    1  A    between atoms: C_1  and  C_2
REMARK    2  A    between atoms: C_10  and  C_12
REMARK    3  A    between atoms: C_15  and  C_16
REMARK                            x       y       z     vdW  Elec       q    Type
REMARK                         _______ _______ _______ _____ _____    ______ ____
ROOT
ATOM      1  C   UNL     1       4.520   4.888  17.663  0.00  0.00    +0.000 C 
ATOM      2  C   UNL     1       3.769   6.112  18.031  0.00  0.00    +0.000 A 
ATOM      3  C   UNL     1       3.789   7.366  17.466  0.00  0.00    +0.000 A 
ATOM      4  N   UNL     1       2.922   8.285  18.025  0.00  0.00    +0.000 NA
ATOM      5  C   UNL     1       2.271   7.762  19.043  0.00  0.00    +0.000 A 
ATOM      6  N   UNL     1       1.341   8.436  19.770  0.00  0.00    +0.000 N 
ATOM      7  C   UNL     1       1.065   8.145  21.180  0.00  0.00    +0.000 C 
ATOM      8  C   UNL     1       1.316   9.393  22.046  0.00  0.00    +0.000 C 
ATOM      9  N   UNL     1       0.585  10.554  21.526  0.00  0.00    +0.000 N 
ATOM     10  C   UNL     1      -0.392  11.131  22.308  0.00  0.00    +0.000 C 
ATOM     11  O   UNL     1      -0.659  10.674  23.427  0.00  0.00    +0.000 OA
ATOM     12  C   UNL     1       0.940  10.862  20.127  0.00  0.00    +0.000 C 
ATOM     13  C   UNL     1       0.710   9.641  19.215  0.00  0.00    +0.000 C 
ATOM     14  S   UNL     1       2.666   6.098  19.334  0.00  0.00    +0.000 S 
ENDROOT
BRANCH  10  15
ATOM     15  C   UNL     1      -1.171  12.353  21.851  0.00  0.00    +0.000 C 
ATOM     16  C   UNL     1      -1.814  13.163  22.955  0.00  0.00    +0.000 C 
ATOM     17  N   UNL     1      -2.903  13.910  22.312  0.00  0.00    +0.000 NA
ATOM     18  C   UNL     1      -3.322  13.146  21.102  0.00  0.00    +0.000 C 
ATOM     19  C   UNL     1      -2.265  12.078  20.838  0.00  0.00    +0.000 C 
ATOM     20  H   UNL     1      -2.533  14.810  22.005  0.00  0.00    +0.000 HD
BRANCH  18  21
ATOM     21  C   UNL     1      -4.748  12.576  21.282  0.00  0.00    +0.000 C 
ATOM     22  O   UNL     1      -5.273  12.443  22.394  0.00  0.00    +0.000 OA
ATOM     23  N   UNL     1      -5.410  12.211  20.124  0.00  0.00    +0.000 N 
ATOM     24  C   UNL     1      -4.911  12.307  18.767  0.00  0.00    +0.000 C 
ATOM     25  C   UNL     1      -6.172  12.339  17.926  0.00  0.00    +0.000 C 
ATOM     26  C   UNL     1      -7.128  11.430  18.691  0.00  0.00    +0.000 C 
ATOM     27  C   UNL     1      -6.714  11.573  20.154  0.00  0.00    +0.000 C 
ENDBRANCH  18  21
ENDBRANCH  10  15
TORSDOF 2
ENDMDL
MODEL 2
REMARK VINA RESULT:      -6.8      4.087      9.810
REMARK  Name = 
REMARK  3 active torsions:
REMARK  status: ('A' for Active; 'I' for Inactive)
REMARK    1  A    between atoms: C_1  and  C_2
REMARK    2  A    between atoms: C_10  and  C_12
REMARK    3  A    between atoms: C_15  and  C_16
REMARK                            x       y       z     vdW  Elec       q    Type
REMARK                         _______ _______ _______ _____ _____    ______ ____
ROOT
ATOM      1  C   UNL     1      -2.621  15.459  22.919  0.00  0.00    +0.000 C 
ATOM      2  C   UNL     1      -1.978  14.166  22.583  0.00  0.00    +0.000 A 
ATOM      3  C   UNL     1      -1.515  13.166  23.407  0.00  0.00    +0.000 A 
ATOM      4  N   UNL     1      -1.004  12.055  22.767  0.00  0.00    +0.000 NA
ATOM      5  C   UNL     1      -1.026  12.210  21.459  0.00  0.00    +0.000 A 
ATOM      6  N   UNL     1      -0.598  11.266  20.580  0.00  0.00    +0.000 N 
ATOM      7  C   UNL     1      -0.056  11.594  19.258  0.00  0.00    +0.000 C 
ATOM      8  C   UNL     1       1.382  11.064  19.120  0.00  0.00    +0.000 C 
ATOM      9  N   UNL     1       1.456   9.637  19.455  0.00  0.00    +0.000 N 
ATOM     10  C   UNL     1       1.833   8.743  18.476  0.00  0.00    +0.000 C 
ATOM     11  O   UNL     1       2.097   9.131  17.331  0.00  0.00    +0.000 OA
ATOM     12  C   UNL     1       0.969   9.354  20.819  0.00  0.00    +0.000 C 
ATOM     13  C   UNL     1      -0.470   9.868  21.012  0.00  0.00    +0.000 C 
ATOM     14  S   UNL     1      -1.718  13.719  20.956  0.00  0.00    +0.000 S 
ENDROOT
BRANCH  10  15
ATOM     15  C   UNL     1       1.961   7.254  18.754  0.00  0.00    +0.000 C 
ATOM     16  C   UNL     1       2.366   6.890  20.166  0.00  0.00    +0.000 C 
ATOM     17  N   UNL     1       2.942   5.542  20.075  0.00  0.00    +0.000 NA
ATOM     18  C   UNL     1       3.457   5.364  18.688  0.00  0.00    +0.000 C 
ATOM     19  C   UNL     1       2.911   6.507  17.839  0.00  0.00    +0.000 C 
ATOM     20  H   UNL     1       2.193   4.866  20.223  0.00  0.00    +0.000 HD
BRANCH  18  21
ATOM     21  C   UNL     1       5.001   5.274  18.686  0.00  0.00    +0.000 C 
ATOM     22  O   UNL     1       5.679   5.488  19.698  0.00  0.00    +0.000 OA
ATOM     23  N   UNL     1       5.592   4.947  17.479  0.00  0.00    +0.000 N 
ATOM     24  C   UNL     1       4.920   4.680  16.224  0.00  0.00    +0.000 C 
ATOM     25  C   UNL     1       5.926   3.847  15.453  0.00  0.00    +0.000 C 
ATOM     26  C   UNL     1       7.268   4.425  15.887  0.00  0.00    +0.000 C 
ATOM     27  C   UNL     1       7.034   4.923  17.312  0.00  0.00    +0.000 C 
ENDBRANCH  18  21
ENDBRANCH  10  15
TORSDOF 2
ENDMDL
MODEL 3
REMARK VINA RESULT:      -6.7      2.265      2.758
REMARK  Name = 
REMARK  3 active torsions:
REMARK  status: ('A' for Active; 'I' for Inactive)
REMARK    1  A    between atoms: C_1  and  C_2
REMARK    2  A    between atoms: C_10  and  C_12
REMARK    3  A    between atoms: C_15  and  C_16
REMARK                            x       y       z     vdW  Elec       q    Type
REMARK                         _______ _______ _______ _____ _____    ______ ____
ROOT
ATOM      1  C   UNL     1       7.378   4.405  18.223  0.00  0.00    +0.000 C 
ATOM      2  C   UNL     1       6.314   5.421  18.038  0.00  0.00    +0.000 A 
ATOM      3  C   UNL     1       6.287   6.539  17.237  0.00  0.00    +0.000 A 
ATOM      4  N   UNL     1       5.110   7.261  17.260  0.00  0.00    +0.000 NA
ATOM      5  C   UNL     1       4.250   6.734  18.107  0.00  0.00    +0.000 A 
ATOM      6  N   UNL     1       3.002   7.231  18.321  0.00  0.00    +0.000 N 
ATOM      7  C   UNL     1       2.292   7.082  19.595  0.00  0.00    +0.000 C 
ATOM      8  C   UNL     1       1.951   8.463  20.184  0.00  0.00    +0.000 C 
ATOM      9  N   UNL     1       1.245   9.297  19.204  0.00  0.00    +0.000 N 
ATOM     10  C   UNL     1      -0.046   9.695  19.476  0.00  0.00    +0.000 C 
ATOM     11  O   UNL     1      -0.608   9.350  20.524  0.00  0.00    +0.000 OA
ATOM     12  C   UNL     1       2.020   9.484  17.962  0.00  0.00    +0.000 C 
ATOM     13  C   UNL     1       2.392   8.128  17.332  0.00  0.00    +0.000 C 
ATOM     14  S   UNL     1       4.837   5.299  18.884  0.00  0.00    +0.000 S 
ENDROOT
BRANCH  10  15
ATOM     15  C   UNL     1      -0.831  10.583  18.525  0.00  0.00    +0.000 C 
ATOM     16  C   UNL     1      -0.643  12.071  18.723  0.00  0.00    +0.000 C 
ATOM     17  N   UNL     1      -1.830  12.701  18.129  0.00  0.00    +0.000 NA
ATOM     18  C   UNL     1      -2.937  11.703  18.168  0.00  0.00    +0.000 C 
ATOM     19  C   UNL     1      -2.328  10.347  18.510  0.00  0.00    +0.000 C 
ATOM     20  H   UNL     1      -1.625  12.907  17.151  0.00  0.00    +0.000 HD
BRANCH  18  21
ATOM     21  C   UNL     1      -4.043  12.152  19.151  0.00  0.00    +0.000 C 
ATOM     22  O   UNL     1      -3.828  12.326  20.356  0.00  0.00    +0.000 OA
ATOM     23  N   UNL     1      -5.302  12.341  18.609  0.00  0.00    +0.000 N 
ATOM     24  C   UNL     1      -5.690  12.164  17.225  0.00  0.00    +0.000 C 
ATOM     25  C   UNL     1      -6.932  13.024  17.092  0.00  0.00    +0.000 C 
ATOM     26  C   UNL     1      -7.602  12.886  18.454  0.00  0.00    +0.000 C 
ATOM     27  C   UNL     1      -6.452  12.667  19.434  0.00  0.00    +0.000 C 
ENDBRANCH  18  21
ENDBRANCH  10  15
TORSDOF 2
ENDMDL
MODEL 4
REMARK VINA RESULT:      -6.7      1.374      1.512
REMARK  Name = 
REMARK  3 active torsions:
REMARK  status: ('A' for Active; 'I' for Inactive)
REMARK    1  A    between atoms: C_1  and  C_2
REMARK    2  A    between atoms: C_10  and  C_12
REMARK    3  A    between atoms: C_15  and  C_16
REMARK                            x       y       z     vdW  Elec       q    Type
REMARK                         _______ _______ _______ _____ _____    ______ ____
ROOT
ATOM      1  C   UNL     1       4.323   4.631  17.801  0.00  0.00    +0.000 C 
ATOM      2  C   UNL     1       3.641   5.907  18.125  0.00  0.00    +0.000 A 
ATOM      3  C   UNL     1       3.736   7.140  17.523  0.00  0.00    +0.000 A 
ATOM      4  N   UNL     1       2.919   8.124  18.046  0.00  0.00    +0.000 NA
ATOM      5  C   UNL     1       2.233   7.670  19.075  0.00  0.00    +0.000 A 
ATOM      6  N   UNL     1       1.338   8.418  19.774  0.00  0.00    +0.000 N 
ATOM      7  C   UNL     1       1.038   8.187  21.190  0.00  0.00    +0.000 C 
ATOM      8  C   UNL     1       1.354   9.445  22.019  0.00  0.00    +0.000 C 
ATOM      9  N   UNL     1       0.694  10.629  21.458  0.00  0.00    +0.000 N 
ATOM     10  C   UNL     1      -0.254  11.284  22.214  0.00  0.00    +0.000 C 
ATOM     11  O   UNL     1      -0.553  10.878  23.344  0.00  0.00    +0.000 OA
ATOM     12  C   UNL     1       1.075  10.873  20.053  0.00  0.00    +0.000 C 
ATOM     13  C   UNL     1       0.781   9.639  19.177  0.00  0.00    +0.000 C 
ATOM     14  S   UNL     1       2.531   5.996  19.419  0.00  0.00    +0.000 S 
ENDROOT
BRANCH  10  15
ATOM     15  C   UNL     1      -0.958  12.534  21.714  0.00  0.00    +0.000 C 
ATOM     16  C   UNL     1      -1.303  13.554  22.776  0.00  0.00    +0.000 C 
ATOM     17  N   UNL     1      -2.397  14.356  22.213  0.00  0.00    +0.000 NA
ATOM     18  C   UNL     1      -3.105  13.511  21.208  0.00  0.00    +0.000 C 
ATOM     19  C   UNL     1      -2.237  12.286  20.938  0.00  0.00    +0.000 C 
ATOM     20  H   UNL     1      -1.988  15.153  21.724  0.00  0.00    +0.000 HD
BRANCH  18  21
ATOM     21  C   UNL     1      -4.532  13.166  21.693  0.00  0.00    +0.000 C 
ATOM     22  O   UNL     1      -4.759  12.233  22.473  0.00  0.00    +0.000 OA
ATOM     23  N   UNL     1      -5.553  13.956  21.197  0.00  0.00    +0.000 N 
ATOM     24  C   UNL     1      -5.427  15.068  20.278  0.00  0.00    +0.000 C 
ATOM     25  C   UNL     1      -6.679  15.884  20.532  0.00  0.00    +0.000 C 
ATOM     26  C   UNL     1      -7.729  14.825  20.849  0.00  0.00    +0.000 C 
ATOM     27  C   UNL     1      -6.948  13.682  21.493  0.00  0.00    +0.000 C 
ENDBRANCH  18  21
ENDBRANCH  10  15
TORSDOF 2
ENDMDL
MODEL 5
REMARK VINA RESULT:      -6.6      1.847      2.112
REMARK  Name = 
REMARK  3 active torsions:
REMARK  status: ('A' for Active; 'I' for Inactive)
REMARK    1  A    between atoms: C_1  and  C_2
REMARK    2  A    between atoms: C_10  and  C_12
REMARK    3  A    between atoms: C_15  and  C_16
REMARK                            x       y       z     vdW  Elec       q    Type
REMARK                         _______ _______ _______ _____ _____    ______ ____
ROOT
ATOM      1  C   UNL     1       4.363   4.750  17.656  0.00  0.00    +0.000 C 
ATOM      2  C   UNL     1       3.648   5.995  18.025  0.00  0.00    +0.000 A 
ATOM      3  C   UNL     1       3.690   7.244  17.449  0.00  0.00    +0.000 A 
ATOM      4  N   UNL     1       2.856   8.189  18.012  0.00  0.00    +0.000 NA
ATOM      5  C   UNL     1       2.208   7.691  19.046  0.00  0.00    +0.000 A 
ATOM      6  N   UNL     1       1.307   8.395  19.782  0.00  0.00    +0.000 N 
ATOM      7  C   UNL     1       1.047   8.123  21.199  0.00  0.00    +0.000 C 
ATOM      8  C   UNL     1       1.343   9.371  22.049  0.00  0.00    +0.000 C 
ATOM      9  N   UNL     1       0.634  10.546  21.530  0.00  0.00    +0.000 N 
ATOM     10  C   UNL     1      -0.316  11.154  22.323  0.00  0.00    +0.000 C 
ATOM     11  O   UNL     1      -0.576  10.714  23.450  0.00  0.00    +0.000 OA
ATOM     12  C   UNL     1       0.974  10.833  20.123  0.00  0.00    +0.000 C 
ATOM     13  C   UNL     1       0.699   9.611  19.226  0.00  0.00    +0.000 C 
ATOM     14  S   UNL     1       2.567   6.021  19.345  0.00  0.00    +0.000 S 
ENDROOT
BRANCH  10  15
ATOM     15  C   UNL     1      -1.071  12.391  21.867  0.00  0.00    +0.000 C 
ATOM     16  C   UNL     1      -0.802  13.647  22.667  0.00  0.00    +0.000 C 
ATOM     17  N   UNL     1      -1.965  14.515  22.442  0.00  0.00    +0.000 NA
ATOM     18  C   UNL     1      -3.122  13.639  22.099  0.00  0.00    +0.000 C 
ATOM     19  C   UNL     1      -2.579  12.243  21.812  0.00  0.00    +0.000 C 
ATOM     20  H   UNL     1      -1.768  15.108  21.635  0.00  0.00    +0.000 HD
BRANCH  18  21
ATOM     21  C   UNL     1      -4.184  13.672  23.222  0.00  0.00    +0.000 C 
ATOM     22  O   UNL     1      -3.930  13.335  24.385  0.00  0.00    +0.000 OA
ATOM     23  N   UNL     1      -5.449  14.094  22.854  0.00  0.00    +0.000 N 
ATOM     24  C   UNL     1      -5.881  14.507  21.535  0.00  0.00    +0.000 C 
ATOM     25  C   UNL     1      -7.093  15.374  21.812  0.00  0.00    +0.000 C 
ATOM     26  C   UNL     1      -7.731  14.707  23.025  0.00  0.00    +0.000 C 
ATOM     27  C   UNL     1      -6.564  14.081  23.785  0.00  0.00    +0.000 C 
ENDBRANCH  18  21
ENDBRANCH  10  15
TORSDOF 2
ENDMDL
MODEL 6
REMARK VINA RESULT:      -6.4      3.192      4.300
REMARK  Name = 
REMARK  3 active torsions:
REMARK  status: ('A' for Active; 'I' for Inactive)
REMARK    1  A    between atoms: C_1  and  C_2
REMARK    2  A    between atoms: C_10  and  C_12
REMARK    3  A    between atoms: C_15  and  C_16
REMARK                            x       y       z     vdW  Elec       q    Type
REMARK                         _______ _______ _______ _____ _____    ______ ____
ROOT
ATOM      1  C   UNL     1       4.504   4.535  18.251  0.00  0.00    +0.000 C 
ATOM      2  C   UNL     1       3.762   5.801  18.464  0.00  0.00    +0.000 A 
ATOM      3  C   UNL     1       3.805   6.982  17.759  0.00  0.00    +0.000 A 
ATOM      4  N   UNL     1       2.941   7.968  18.195  0.00  0.00    +0.000 NA
ATOM      5  C   UNL     1       2.270   7.572  19.257  0.00  0.00    +0.000 A 
ATOM      6  N   UNL     1       1.338   8.335  19.888  0.00  0.00    +0.000 N 
ATOM      7  C   UNL     1       1.039   8.210  21.318  0.00  0.00    +0.000 C 
ATOM      8  C   UNL     1       1.293   9.547  22.038  0.00  0.00    +0.000 C 
ATOM      9  N   UNL     1       0.583  10.648  21.377  0.00  0.00    +0.000 N 
ATOM     10  C   UNL     1      -0.398  11.321  22.073  0.00  0.00    +0.000 C 
ATOM     11  O   UNL     1      -0.685  10.999  23.233  0.00  0.00    +0.000 OA
ATOM     12  C   UNL     1       0.962  10.789  19.957  0.00  0.00    +0.000 C 
ATOM     13  C   UNL     1       0.730   9.474  19.188  0.00  0.00    +0.000 C 
ATOM     14  S   UNL     1       2.642   5.949  19.743  0.00  0.00    +0.000 S 
ENDROOT
BRANCH  10  15
ATOM     15  C   UNL     1      -1.155  12.490  21.467  0.00  0.00    +0.000 C 
ATOM     16  C   UNL     1      -1.665  12.273  20.059  0.00  0.00    +0.000 C 
ATOM     17  N   UNL     1      -1.853  13.617  19.496  0.00  0.00    +0.000 NA
ATOM     18  C   UNL     1      -0.931  14.541  20.217  0.00  0.00    +0.000 C 
ATOM     19  C   UNL     1      -0.399  13.804  21.442  0.00  0.00    +0.000 C 
ATOM     20  H   UNL     1      -2.811  13.912  19.690  0.00  0.00    +0.000 HD
BRANCH  18  21
ATOM     21  C   UNL     1       0.179  15.052  19.270  0.00  0.00    +0.000 C 
ATOM     22  O   UNL     1       1.132  14.344  18.922  0.00  0.00    +0.000 OA
ATOM     23  N   UNL     1       0.057  16.359  18.835  0.00  0.00    +0.000 N 
ATOM     24  C   UNL     1      -0.997  17.295  19.171  0.00  0.00    +0.000 C 
ATOM     25  C   UNL     1      -0.962  18.293  18.031  0.00  0.00    +0.000 C 
ATOM     26  C   UNL     1       0.519  18.377  17.682  0.00  0.00    +0.000 C 
ATOM     27  C   UNL     1       1.078  16.997  18.023  0.00  0.00    +0.000 C 
ENDBRANCH  18  21
ENDBRANCH  10  15
TORSDOF 2
ENDMDL
MODEL 7
REMARK VINA RESULT:      -6.4      3.343      4.696
REMARK  Name = 
REMARK  3 active torsions:
REMARK  status: ('A' for Active; 'I' for Inactive)
REMARK    1  A    between atoms: C_1  and  C_2
REMARK    2  A    between atoms: C_10  and  C_12
REMARK    3  A    between atoms: C_15  and  C_16
REMARK                            x       y       z     vdW  Elec       q    Type
REMARK                         _______ _______ _______ _____ _____    ______ ____
ROOT
ATOM      1  C   UNL     1       6.190   4.009  16.330  0.00  0.00    +0.000 C 
ATOM      2  C   UNL     1       5.322   5.140  16.736  0.00  0.00    +0.000 A 
ATOM      3  C   UNL     1       5.411   6.479  16.433  0.00  0.00    +0.000 A 
ATOM      4  N   UNL     1       4.402   7.274  16.939  0.00  0.00    +0.000 NA
ATOM      5  C   UNL     1       3.563   6.566  17.668  0.00  0.00    +0.000 A 
ATOM      6  N   UNL     1       2.465   7.089  18.275  0.00  0.00    +0.000 N 
ATOM      7  C   UNL     1       1.894   6.534  19.507  0.00  0.00    +0.000 C 
ATOM      8  C   UNL     1       1.890   7.595  20.622  0.00  0.00    +0.000 C 
ATOM      9  N   UNL     1       1.243   8.834  20.173  0.00  0.00    +0.000 N 
ATOM     10  C   UNL     1       0.091   9.250  20.805  0.00  0.00    +0.000 C 
ATOM     11  O   UNL     1      -0.399   8.588  21.729  0.00  0.00    +0.000 OA
ATOM     12  C   UNL     1       1.888   9.402  18.974  0.00  0.00    +0.000 C 
ATOM     13  C   UNL     1       1.922   8.377  17.824  0.00  0.00    +0.000 C 
ATOM     14  S   UNL     1       3.957   4.878  17.728  0.00  0.00    +0.000 S 
ENDROOT
BRANCH  10  15
ATOM     15  C   UNL     1      -0.619  10.536  20.416  0.00  0.00    +0.000 C 
ATOM     16  C   UNL     1      -0.926  10.688  18.943  0.00  0.00    +0.000 C 
ATOM     17  N   UNL     1      -1.084  12.131  18.720  0.00  0.00    +0.000 NA
ATOM     18  C   UNL     1      -0.302  12.839  19.774  0.00  0.00    +0.000 C 
ATOM     19  C   UNL     1       0.086  11.812  20.833  0.00  0.00    +0.000 C 
ATOM     20  H   UNL     1      -2.069  12.367  18.847  0.00  0.00    +0.000 HD
BRANCH  18  21
ATOM     21  C   UNL     1       0.908  13.576  19.153  0.00  0.00    +0.000 C 
ATOM     22  O   UNL     1       1.963  12.996  18.869  0.00  0.00    +0.000 OA
ATOM     23  N   UNL     1       0.751  14.933  18.939  0.00  0.00    +0.000 N 
ATOM     24  C   UNL     1      -0.421  15.733  19.233  0.00  0.00    +0.000 C 
ATOM     25  C   UNL     1      -0.275  16.928  18.312  0.00  0.00    +0.000 C 
ATOM     26  C   UNL     1       1.232  17.153  18.263  0.00  0.00    +0.000 C 
ATOM     27  C   UNL     1       1.839  15.765  18.454  0.00  0.00    +0.000 C 
ENDBRANCH  18  21
ENDBRANCH  10  15
TORSDOF 2
ENDMDL
MODEL 8
REMARK VINA RESULT:      -6.3      2.626      3.355
REMARK  Name = 
REMARK  3 active torsions:
REMARK  status: ('A' for Active; 'I' for Inactive)
REMARK    1  A    between atoms: C_1  and  C_2
REMARK    2  A    between atoms: C_10  and  C_12
REMARK    3  A    between atoms: C_15  and  C_16
REMARK                            x       y       z     vdW  Elec       q    Type
REMARK                         _______ _______ _______ _____ _____    ______ ____
ROOT
ATOM      1  C   UNL     1       4.517   4.744  17.792  0.00  0.00    +0.000 C 
ATOM      2  C   UNL     1       3.769   5.983  18.113  0.00  0.00    +0.000 A 
ATOM      3  C   UNL     1       3.776   7.209  17.487  0.00  0.00    +0.000 A 
ATOM      4  N   UNL     1       2.918   8.153  18.016  0.00  0.00    +0.000 NA
ATOM      5  C   UNL     1       2.287   7.679  19.071  0.00  0.00    +0.000 A 
ATOM      6  N   UNL     1       1.369   8.387  19.781  0.00  0.00    +0.000 N 
ATOM      7  C   UNL     1       1.120   8.165  21.209  0.00  0.00    +0.000 C 
ATOM      8  C   UNL     1       1.384   9.454  22.007  0.00  0.00    +0.000 C 
ATOM      9  N   UNL     1       0.641  10.588  21.445  0.00  0.00    +0.000 N 
ATOM     10  C   UNL     1      -0.323  11.201  22.216  0.00  0.00    +0.000 C 
ATOM     11  O   UNL     1      -0.568  10.799  23.361  0.00  0.00    +0.000 OA
ATOM     12  C   UNL     1       0.970  10.827  20.026  0.00  0.00    +0.000 C 
ATOM     13  C   UNL     1       0.726   9.563  19.179  0.00  0.00    +0.000 C 
ATOM     14  S   UNL     1       2.691   6.032  19.435  0.00  0.00    +0.000 S 
ENDROOT
BRANCH  10  15
ATOM     15  C   UNL     1      -1.112  12.398  21.714  0.00  0.00    +0.000 C 
ATOM     16  C   UNL     1      -0.354  13.707  21.680  0.00  0.00    +0.000 C 
ATOM     17  N   UNL     1      -1.380  14.758  21.706  0.00  0.00    +0.000 NA
ATOM     18  C   UNL     1      -2.592  14.189  22.363  0.00  0.00    +0.000 C 
ATOM     19  C   UNL     1      -2.402  12.679  22.460  0.00  0.00    +0.000 C 
ATOM     20  H   UNL     1      -1.623  14.989  20.742  0.00  0.00    +0.000 HD
BRANCH  18  21
ATOM     21  C   UNL     1      -2.844  14.871  23.727  0.00  0.00    +0.000 C 
ATOM     22  O   UNL     1      -2.209  14.571  24.746  0.00  0.00    +0.000 OA
ATOM     23  N   UNL     1      -3.833  15.838  23.753  0.00  0.00    +0.000 N 
ATOM     24  C   UNL     1      -4.652  16.277  22.642  0.00  0.00    +0.000 C 
ATOM     25  C   UNL     1      -5.103  17.663  23.059  0.00  0.00    +0.000 C 
ATOM     26  C   UNL     1      -5.265  17.539  24.570  0.00  0.00    +0.000 C 
ATOM     27  C   UNL     1      -4.240  16.488  24.987  0.00  0.00    +0.000 C 
ENDBRANCH  18  21
ENDBRANCH  10  15
TORSDOF 2
ENDMDL
MODEL 9
REMARK VINA RESULT:      -6.2      3.959      9.010
REMARK  Name = 
REMARK  3 active torsions:
REMARK  status: ('A' for Active; 'I' for Inactive)
REMARK    1  A    between atoms: C_1  and  C_2
REMARK    2  A    between atoms: C_10  and  C_12
REMARK    3  A    between atoms: C_15  and  C_16
REMARK                            x       y       z     vdW  Elec       q    Type
REMARK                         _______ _______ _______ _____ _____    ______ ____
ROOT
ATOM      1  C   UNL     1      -3.082  17.535  22.240  0.00  0.00    +0.000 C 
ATOM      2  C   UNL     1      -2.154  16.441  21.862  0.00  0.00    +0.000 A 
ATOM      3  C   UNL     1      -0.782  16.376  21.944  0.00  0.00    +0.000 A 
ATOM      4  N   UNL     1      -0.218  15.179  21.547  0.00  0.00    +0.000 NA
ATOM      5  C   UNL     1      -1.140  14.342  21.116  0.00  0.00    +0.000 A 
ATOM      6  N   UNL     1      -0.870  13.084  20.678  0.00  0.00    +0.000 N 
ATOM      7  C   UNL     1      -1.695  12.391  19.684  0.00  0.00    +0.000 C 
ATOM      8  C   UNL     1      -0.850  12.017  18.452  0.00  0.00    +0.000 C 
ATOM      9  N   UNL     1       0.357  11.279  18.840  0.00  0.00    +0.000 N 
ATOM     10  C   UNL     1       0.512   9.980  18.406  0.00  0.00    +0.000 C 
ATOM     11  O   UNL     1      -0.355   9.439  17.707  0.00  0.00    +0.000 OA
ATOM     12  C   UNL     1       1.199  12.036  19.787  0.00  0.00    +0.000 C 
ATOM     13  C   UNL     1       0.399  12.439  21.041  0.00  0.00    +0.000 C 
ATOM     14  S   UNL     1      -2.751  14.977  21.221  0.00  0.00    +0.000 S 
ENDROOT
BRANCH  10  15
ATOM     15  C   UNL     1       1.747   9.162  18.742  0.00  0.00    +0.000 C 
ATOM     16  C   UNL     1       2.571   8.713  17.555  0.00  0.00    +0.000 C 
ATOM     17  N   UNL     1       3.337   7.551  18.024  0.00  0.00    +0.000 NA
ATOM     18  C   UNL     1       2.579   6.935  19.150  0.00  0.00    +0.000 C 
ATOM     19  C   UNL     1       1.491   7.918  19.570  0.00  0.00    +0.000 C 
ATOM     20  H   UNL     1       4.229   7.884  18.389  0.00  0.00    +0.000 HD
BRANCH  18  21
ATOM     21  C   UNL     1       2.035   5.545  18.748  0.00  0.00    +0.000 C 
ATOM     22  O   UNL     1       1.780   5.247  17.575  0.00  0.00    +0.000 OA
ATOM     23  N   UNL     1       1.839   4.644  19.779  0.00  0.00    +0.000 N 
ATOM     24  C   UNL     1       2.088   4.865  21.189  0.00  0.00    +0.000 C 
ATOM     25  C   UNL     1       2.264   3.465  21.742  0.00  0.00    +0.000 C 
ATOM     26  C   UNL     1       1.297   2.633  20.908  0.00  0.00    +0.000 C 
ATOM     27  C   UNL     1       1.243   3.339  19.556  0.00  0.00    +0.000 C 
ENDBRANCH  18  21
ENDBRANCH  10  15
TORSDOF 2
ENDMDL
