MODEL 1
REMARK VINA RESULT:      -6.7      0.000      0.000
REMARK  Name = 
REMARK  3 active torsions:
REMARK  status: ('A' for Active; 'I' for Inactive)
REMARK    1  A    between atoms: C_2  and  C_3
REMARK    2  A    between atoms: C_3  and  C_4
REMARK    3  A    between atoms: C_6  and  C_7
REMARK                            x       y       z     vdW  Elec       q    Type
REMARK                         _______ _______ _______ _____ _____    ______ ____
ROOT
ATOM      1  C   UNL     1       3.975   3.846  17.522  0.00  0.00    +0.000 A 
ATOM      2  C   UNL     1       3.846   2.489  17.819  0.00  0.00    +0.000 A 
ATOM      3  C   UNL     1       3.061   2.131  18.896  0.00  0.00    +0.000 A 
ATOM      4  N   UNL     1       2.429   3.017  19.691  0.00  0.00    +0.000 NA
ATOM      5  C   UNL     1       2.553   4.326  19.413  0.00  0.00    +0.000 A 
ATOM      6  C   UNL     1       1.925   5.238  20.251  0.00  0.00    +0.000 A 
ATOM      7  C   UNL     1       1.995   6.615  20.028  0.00  0.00    +0.000 A 
ATOM      8  C   UNL     1       2.682   7.098  18.924  0.00  0.00    +0.000 A 
ATOM      9  C   UNL     1       3.324   6.203  18.069  0.00  0.00    +0.000 A 
ATOM     10  C   UNL     1       3.296   4.808  18.312  0.00  0.00    +0.000 A 
ENDROOT
BRANCH   1  12
ATOM     11  C   UNL     1       6.137   4.597  16.496  0.00  0.00    +0.000 C 
ATOM     12  C   UNL     1       4.844   4.227  16.395  0.00  0.00    +0.000 C 
BRANCH  11  14
ATOM     13  N   UNL     1       7.419   4.663  18.742  0.00  0.00    +0.000 NA
ATOM     14  C   UNL     1       6.835   4.640  17.738  0.00  0.00    +0.000 C 
ENDBRANCH  11  14
BRANCH  11  15
ATOM     15  C   UNL     1       6.843   4.971  15.317  0.00  0.00    +0.000 C 
ATOM     16  N   UNL     1       7.407   5.247  14.342  0.00  0.00    +0.000 NA
ENDBRANCH  11  15
ENDBRANCH   1  12
TORSDOF 3
ENDMDL
MODEL 2
REMARK VINA RESULT:      -6.7      1.103      2.689
REMARK  Name = 
REMARK  3 active torsions:
REMARK  status: ('A' for Active; 'I' for Inactive)
REMARK    1  A    between atoms: C_2  and  C_3
REMARK    2  A    between atoms: C_3  and  C_4
REMARK    3  A    between atoms: C_6  and  C_7
REMARK                            x       y       z     vdW  Elec       q    Type
REMARK                         _______ _______ _______ _____ _____    ______ ____
ROOT
ATOM      1  C   UNL     1       3.834   5.531  17.481  0.00  0.00    +0.000 A 
ATOM      2  C   UNL     1       3.656   6.767  18.101  0.00  0.00    +0.000 A 
ATOM      3  C   UNL     1       2.739   6.852  19.130  0.00  0.00    +0.000 A 
ATOM      4  N   UNL     1       1.991   5.815  19.554  0.00  0.00    +0.000 NA
ATOM      5  C   UNL     1       2.154   4.623  18.958  0.00  0.00    +0.000 A 
ATOM      6  C   UNL     1       1.360   3.564  19.377  0.00  0.00    +0.000 A 
ATOM      7  C   UNL     1       1.473   2.289  18.817  0.00  0.00    +0.000 A 
ATOM      8  C   UNL     1       2.422   2.053  17.834  0.00  0.00    +0.000 A 
ATOM      9  C   UNL     1       3.230   3.100  17.392  0.00  0.00    +0.000 A 
ATOM     10  C   UNL     1       3.092   4.406  17.923  0.00  0.00    +0.000 A 
ENDROOT
BRANCH   1  12
ATOM     11  C   UNL     1       6.100   5.166  16.468  0.00  0.00    +0.000 C 
ATOM     12  C   UNL     1       4.786   5.451  16.358  0.00  0.00    +0.000 C 
BRANCH  11  14
ATOM     13  N   UNL     1       7.234   4.625  18.728  0.00  0.00    +0.000 NA
ATOM     14  C   UNL     1       6.728   4.879  17.714  0.00  0.00    +0.000 C 
ENDBRANCH  11  14
BRANCH  11  15
ATOM     15  C   UNL     1       6.905   5.158  15.293  0.00  0.00    +0.000 C 
ATOM     16  N   UNL     1       7.547   5.180  14.327  0.00  0.00    +0.000 NA
ENDBRANCH  11  15
ENDBRANCH   1  12
TORSDOF 3
ENDMDL
MODEL 3
REMARK VINA RESULT:      -6.5      1.519      2.849
REMARK  Name = 
REMARK  3 active torsions:
REMARK  status: ('A' for Active; 'I' for Inactive)
REMARK    1  A    between atoms: C_2  and  C_3
REMARK    2  A    between atoms: C_3  and  C_4
REMARK    3  A    between atoms: C_6  and  C_7
REMARK                            x       y       z     vdW  Elec       q    Type
REMARK                         _______ _______ _______ _____ _____    ______ ____
ROOT
ATOM      1  C   UNL     1       3.752   5.612  18.494  0.00  0.00    +0.000 A 
ATOM      2  C   UNL     1       3.190   6.887  18.554  0.00  0.00    +0.000 A 
ATOM      3  C   UNL     1       2.267   7.145  19.547  0.00  0.00    +0.000 A 
ATOM      4  N   UNL     1       1.861   6.229  20.449  0.00  0.00    +0.000 NA
ATOM      5  C   UNL     1       2.394   4.998  20.394  0.00  0.00    +0.000 A 
ATOM      6  C   UNL     1       1.952   4.048  21.305  0.00  0.00    +0.000 A 
ATOM      7  C   UNL     1       2.463   2.748  21.323  0.00  0.00    +0.000 A 
ATOM      8  C   UNL     1       3.462   2.390  20.430  0.00  0.00    +0.000 A 
ATOM      9  C   UNL     1       3.921   3.324  19.502  0.00  0.00    +0.000 A 
ATOM     10  C   UNL     1       3.378   4.631  19.447  0.00  0.00    +0.000 A 
ENDROOT
BRANCH   1  12
ATOM     11  C   UNL     1       6.048   5.248  17.551  0.00  0.00    +0.000 C 
ATOM     12  C   UNL     1       4.709   5.329  17.410  0.00  0.00    +0.000 C 
BRANCH  11  14
ATOM     13  N   UNL     1       7.255   5.526  19.822  0.00  0.00    +0.000 NA
ATOM     14  C   UNL     1       6.704   5.408  18.806  0.00  0.00    +0.000 C 
ENDBRANCH  11  14
BRANCH  11  15
ATOM     15  C   UNL     1       6.850   4.999  16.401  0.00  0.00    +0.000 C 
ATOM     16  N   UNL     1       7.529   4.811  15.480  0.00  0.00    +0.000 NA
ENDBRANCH  11  15
ENDBRANCH   1  12
TORSDOF 3
ENDMDL
MODEL 4
REMARK VINA RESULT:      -6.3      2.369      3.422
REMARK  Name = 
REMARK  3 active torsions:
REMARK  status: ('A' for Active; 'I' for Inactive)
REMARK    1  A    between atoms: C_2  and  C_3
REMARK    2  A    between atoms: C_3  and  C_4
REMARK    3  A    between atoms: C_6  and  C_7
REMARK                            x       y       z     vdW  Elec       q    Type
REMARK                         _______ _______ _______ _____ _____    ______ ____
ROOT
ATOM      1  C   UNL     1       5.987   5.863  16.619  0.00  0.00    +0.000 A 
ATOM      2  C   UNL     1       6.643   4.886  15.869  0.00  0.00    +0.000 A 
ATOM      3  C   UNL     1       5.984   3.695  15.636  0.00  0.00    +0.000 A 
ATOM      4  N   UNL     1       4.754   3.414  16.109  0.00  0.00    +0.000 NA
ATOM      5  C   UNL     1       4.119   4.348  16.835  0.00  0.00    +0.000 A 
ATOM      6  C   UNL     1       2.865   4.045  17.347  0.00  0.00    +0.000 A 
ATOM      7  C   UNL     1       2.133   4.963  18.102  0.00  0.00    +0.000 A 
ATOM      8  C   UNL     1       2.649   6.230  18.332  0.00  0.00    +0.000 A 
ATOM      9  C   UNL     1       3.909   6.559  17.833  0.00  0.00    +0.000 A 
ATOM     10  C   UNL     1       4.677   5.619  17.104  0.00  0.00    +0.000 A 
ENDROOT
BRANCH   1  12
ATOM     11  C   UNL     1       7.562   7.317  17.923  0.00  0.00    +0.000 C 
ATOM     12  C   UNL     1       6.708   7.118  16.898  0.00  0.00    +0.000 C 
BRANCH  11  14
ATOM     13  N   UNL     1       8.139   5.465  19.634  0.00  0.00    +0.000 NA
ATOM     14  C   UNL     1       7.891   6.299  18.864  0.00  0.00    +0.000 C 
ENDBRANCH  11  14
BRANCH  11  15
ATOM     15  C   UNL     1       8.160   8.599  18.084  0.00  0.00    +0.000 C 
ATOM     16  N   UNL     1       8.675   9.629  18.223  0.00  0.00    +0.000 NA
ENDBRANCH  11  15
ENDBRANCH   1  12
TORSDOF 3
ENDMDL
MODEL 5
REMARK VINA RESULT:      -6.2      1.413      2.701
REMARK  Name = 
REMARK  3 active torsions:
REMARK  status: ('A' for Active; 'I' for Inactive)
REMARK    1  A    between atoms: C_2  and  C_3
REMARK    2  A    between atoms: C_3  and  C_4
REMARK    3  A    between atoms: C_6  and  C_7
REMARK                            x       y       z     vdW  Elec       q    Type
REMARK                         _______ _______ _______ _____ _____    ______ ____
ROOT
ATOM      1  C   UNL     1       4.025   4.875  17.210  0.00  0.00    +0.000 A 
ATOM      2  C   UNL     1       4.322   6.152  17.686  0.00  0.00    +0.000 A 
ATOM      3  C   UNL     1       3.805   6.527  18.909  0.00  0.00    +0.000 A 
ATOM      4  N   UNL     1       3.012   5.738  19.662  0.00  0.00    +0.000 NA
ATOM      5  C   UNL     1       2.719   4.509  19.208  0.00  0.00    +0.000 A 
ATOM      6  C   UNL     1       1.878   3.710  19.970  0.00  0.00    +0.000 A 
ATOM      7  C   UNL     1       1.531   2.416  19.577  0.00  0.00    +0.000 A 
ATOM      8  C   UNL     1       2.058   1.889  18.407  0.00  0.00    +0.000 A 
ATOM      9  C   UNL     1       2.902   2.672  17.620  0.00  0.00    +0.000 A 
ATOM     10  C   UNL     1       3.224   4.001  17.989  0.00  0.00    +0.000 A 
ENDROOT
BRANCH   1  12
ATOM     11  C   UNL     1       5.848   4.307  15.584  0.00  0.00    +0.000 C 
ATOM     12  C   UNL     1       4.547   4.491  15.887  0.00  0.00    +0.000 C 
BRANCH  11  14
ATOM     13  N   UNL     1       7.741   4.536  17.333  0.00  0.00    +0.000 NA
ATOM     14  C   UNL     1       6.893   4.444  16.544  0.00  0.00    +0.000 C 
ENDBRANCH  11  14
BRANCH  11  15
ATOM     15  C   UNL     1       6.206   3.968  14.248  0.00  0.00    +0.000 C 
ATOM     16  N   UNL     1       6.465   3.683  13.154  0.00  0.00    +0.000 NA
ENDBRANCH  11  15
ENDBRANCH   1  12
TORSDOF 3
ENDMDL
MODEL 6
REMARK VINA RESULT:      -6.2      1.817      5.335
REMARK  Name = 
REMARK  3 active torsions:
REMARK  status: ('A' for Active; 'I' for Inactive)
REMARK    1  A    between atoms: C_2  and  C_3
REMARK    2  A    between atoms: C_3  and  C_4
REMARK    3  A    between atoms: C_6  and  C_7
REMARK                            x       y       z     vdW  Elec       q    Type
REMARK                         _______ _______ _______ _____ _____    ______ ____
ROOT
ATOM      1  C   UNL     1       5.050   4.871  18.250  0.00  0.00    +0.000 A 
ATOM      2  C   UNL     1       5.874   5.326  19.280  0.00  0.00    +0.000 A 
ATOM      3  C   UNL     1       7.181   5.649  18.971  0.00  0.00    +0.000 A 
ATOM      4  N   UNL     1       7.711   5.530  17.738  0.00  0.00    +0.000 NA
ATOM      5  C   UNL     1       6.924   5.088  16.744  0.00  0.00    +0.000 A 
ATOM      6  C   UNL     1       7.481   4.938  15.481  0.00  0.00    +0.000 A 
ATOM      7  C   UNL     1       6.730   4.495  14.390  0.00  0.00    +0.000 A 
ATOM      8  C   UNL     1       5.380   4.221  14.552  0.00  0.00    +0.000 A 
ATOM      9  C   UNL     1       4.796   4.361  15.810  0.00  0.00    +0.000 A 
ATOM     10  C   UNL     1       5.560   4.767  16.931  0.00  0.00    +0.000 A 
ENDROOT
BRANCH   1  12
ATOM     11  C   UNL     1       3.310   3.423  19.332  0.00  0.00    +0.000 C 
ATOM     12  C   UNL     1       3.667   4.492  18.590  0.00  0.00    +0.000 C 
BRANCH  11  14
ATOM     13  N   UNL     1       5.030   1.809  20.394  0.00  0.00    +0.000 NA
ATOM     14  C   UNL     1       4.259   2.529  19.906  0.00  0.00    +0.000 C 
ENDBRANCH  11  14
BRANCH  11  15
ATOM     15  C   UNL     1       1.926   3.165  19.549  0.00  0.00    +0.000 C 
ATOM     16  N   UNL     1       0.797   2.984  19.740  0.00  0.00    +0.000 NA
ENDBRANCH  11  15
ENDBRANCH   1  12
TORSDOF 3
ENDMDL
MODEL 7
REMARK VINA RESULT:      -6.2      1.073      1.302
REMARK  Name = 
REMARK  3 active torsions:
REMARK  status: ('A' for Active; 'I' for Inactive)
REMARK    1  A    between atoms: C_2  and  C_3
REMARK    2  A    between atoms: C_3  and  C_4
REMARK    3  A    between atoms: C_6  and  C_7
REMARK                            x       y       z     vdW  Elec       q    Type
REMARK                         _______ _______ _______ _____ _____    ______ ____
ROOT
ATOM      1  C   UNL     1       3.113   4.026  18.357  0.00  0.00    +0.000 A 
ATOM      2  C   UNL     1       2.872   2.867  19.094  0.00  0.00    +0.000 A 
ATOM      3  C   UNL     1       2.215   2.991  20.302  0.00  0.00    +0.000 A 
ATOM      4  N   UNL     1       1.812   4.169  20.819  0.00  0.00    +0.000 NA
ATOM      5  C   UNL     1       2.045   5.289  20.116  0.00  0.00    +0.000 A 
ATOM      6  C   UNL     1       1.656   6.503  20.664  0.00  0.00    +0.000 A 
ATOM      7  C   UNL     1       1.852   7.713  19.994  0.00  0.00    +0.000 A 
ATOM      8  C   UNL     1       2.424   7.714  18.731  0.00  0.00    +0.000 A 
ATOM      9  C   UNL     1       2.827   6.508  18.158  0.00  0.00    +0.000 A 
ATOM     10  C   UNL     1       2.673   5.281  18.849  0.00  0.00    +0.000 A 
ENDROOT
BRANCH   1  12
ATOM     11  C   UNL     1       5.172   4.100  16.925  0.00  0.00    +0.000 C 
ATOM     12  C   UNL     1       3.848   3.895  17.086  0.00  0.00    +0.000 C 
BRANCH  11  14
ATOM     13  N   UNL     1       6.756   4.750  18.863  0.00  0.00    +0.000 NA
ATOM     14  C   UNL     1       6.037   4.453  18.000  0.00  0.00    +0.000 C 
ENDBRANCH  11  14
BRANCH  11  15
ATOM     15  C   UNL     1       5.738   3.967  15.624  0.00  0.00    +0.000 C 
ATOM     16  N   UNL     1       6.179   3.833  14.561  0.00  0.00    +0.000 NA
ENDBRANCH  11  15
ENDBRANCH   1  12
TORSDOF 3
ENDMDL
MODEL 8
REMARK VINA RESULT:      -6.1      1.625      1.912
REMARK  Name = 
REMARK  3 active torsions:
REMARK  status: ('A' for Active; 'I' for Inactive)
REMARK    1  A    between atoms: C_2  and  C_3
REMARK    2  A    between atoms: C_3  and  C_4
REMARK    3  A    between atoms: C_6  and  C_7
REMARK                            x       y       z     vdW  Elec       q    Type
REMARK                         _______ _______ _______ _____ _____    ______ ____
ROOT
ATOM      1  C   UNL     1       4.341   4.845  17.659  0.00  0.00    +0.000 A 
ATOM      2  C   UNL     1       4.518   3.599  17.057  0.00  0.00    +0.000 A 
ATOM      3  C   UNL     1       3.695   2.564  17.450  0.00  0.00    +0.000 A 
ATOM      4  N   UNL     1       2.743   2.682  18.398  0.00  0.00    +0.000 NA
ATOM      5  C   UNL     1       2.570   3.877  18.985  0.00  0.00    +0.000 A 
ATOM      6  C   UNL     1       1.610   3.988  19.981  0.00  0.00    +0.000 A 
ATOM      7  C   UNL     1       1.360   5.196  20.634  0.00  0.00    +0.000 A 
ATOM      8  C   UNL     1       2.062   6.334  20.267  0.00  0.00    +0.000 A 
ATOM      9  C   UNL     1       3.034   6.250  19.271  0.00  0.00    +0.000 A 
ATOM     10  C   UNL     1       3.327   5.019  18.635  0.00  0.00    +0.000 A 
ENDROOT
BRANCH   1  12
ATOM     11  C   UNL     1       6.364   6.304  17.927  0.00  0.00    +0.000 C 
ATOM     12  C   UNL     1       5.247   5.938  17.265  0.00  0.00    +0.000 C 
BRANCH  11  14
ATOM     13  N   UNL     1       7.172   5.109  20.073  0.00  0.00    +0.000 NA
ATOM     14  C   UNL     1       6.819   5.642  19.103  0.00  0.00    +0.000 C 
ENDBRANCH  11  14
BRANCH  11  15
ATOM     15  C   UNL     1       7.124   7.407  17.441  0.00  0.00    +0.000 C 
ATOM     16  N   UNL     1       7.764   8.300  17.071  0.00  0.00    +0.000 NA
ENDBRANCH  11  15
ENDBRANCH   1  12
TORSDOF 3
ENDMDL
MODEL 9
REMARK VINA RESULT:      -6.1      2.352      5.579
REMARK  Name = 
REMARK  3 active torsions:
REMARK  status: ('A' for Active; 'I' for Inactive)
REMARK    1  A    between atoms: C_2  and  C_3
REMARK    2  A    between atoms: C_3  and  C_4
REMARK    3  A    between atoms: C_6  and  C_7
REMARK                            x       y       z     vdW  Elec       q    Type
REMARK                         _______ _______ _______ _____ _____    ______ ____
ROOT
ATOM      1  C   UNL     1       3.172   5.875  19.276  0.00  0.00    +0.000 A 
ATOM      2  C   UNL     1       2.327   6.954  19.020  0.00  0.00    +0.000 A 
ATOM      3  C   UNL     1       2.690   7.842  18.027  0.00  0.00    +0.000 A 
ATOM      4  N   UNL     1       3.823   7.737  17.306  0.00  0.00    +0.000 NA
ATOM      5  C   UNL     1       4.643   6.702  17.551  0.00  0.00    +0.000 A 
ATOM      6  C   UNL     1       5.825   6.613  16.827  0.00  0.00    +0.000 A 
ATOM      7  C   UNL     1       6.727   5.564  17.012  0.00  0.00    +0.000 A 
ATOM      8  C   UNL     1       6.434   4.558  17.921  0.00  0.00    +0.000 A 
ATOM      9  C   UNL     1       5.256   4.625  18.663  0.00  0.00    +0.000 A 
ATOM     10  C   UNL     1       4.356   5.709  18.514  0.00  0.00    +0.000 A 
ENDROOT
BRANCH   1  12
ATOM     11  C   UNL     1       2.055   3.835  20.218  0.00  0.00    +0.000 C 
ATOM     12  C   UNL     1       2.801   4.950  20.362  0.00  0.00    +0.000 C 
BRANCH  11  14
ATOM     13  N   UNL     1       1.145   3.030  17.934  0.00  0.00    +0.000 NA
ATOM     14  C   UNL     1       1.547   3.401  18.959  0.00  0.00    +0.000 C 
ENDBRANCH  11  14
BRANCH  11  15
ATOM     15  C   UNL     1       1.750   3.054  21.369  0.00  0.00    +0.000 C 
ATOM     16  N   UNL     1       1.469   2.426  22.302  0.00  0.00    +0.000 NA
ENDBRANCH  11  15
ENDBRANCH   1  12
TORSDOF 3
ENDMDL
