MODEL 1
REMARK VINA RESULT:      -8.4      0.000      0.000
REMARK  Name = 
REMARK  6 active torsions:
REMARK  status: ('A' for Active; 'I' for Inactive)
REMARK    1  A    between atoms: C_1  and  C_2
REMARK    2  A    between atoms: C_4  and  N_5
REMARK    3  A    between atoms: C_8  and  N_9
REMARK    4  A    between atoms: N_9  and  C_10
REMARK    5  A    between atoms: C_10  and  N_12
REMARK    6  A    between atoms: N_12  and  C_13
REMARK                            x       y       z     vdW  Elec       q    Type
REMARK                         _______ _______ _______ _____ _____    ______ ____
ROOT
ATOM      1  N   UNL     1       2.416   7.273  18.582  0.00  0.00    +0.000 N 
ATOM      2  C   UNL     1       1.698   8.146  17.655  0.00  0.00    +0.000 C 
ATOM      3  C   UNL     1       1.727   9.552  18.233  0.00  0.00    +0.000 C 
ATOM      4  C   UNL     1       1.192   9.612  19.670  0.00  0.00    +0.000 C 
ATOM      5  C   UNL     1       1.742   8.493  20.568  0.00  0.00    +0.000 C 
ATOM      6  C   UNL     1       1.781   7.121  19.888  0.00  0.00    +0.000 C 
ENDROOT
BRANCH   1  10
ATOM      7  C   UNL     1       7.040   6.301  17.223  0.00  0.00    +0.000 C 
ATOM      8  C   UNL     1       5.625   5.863  17.454  0.00  0.00    +0.000 A 
ATOM      9  C   UNL     1       4.644   6.785  17.785  0.00  0.00    +0.000 A 
ATOM     10  C   UNL     1       3.343   6.358  18.085  0.00  0.00    +0.000 A 
ATOM     11  C   UNL     1       3.071   4.963  17.990  0.00  0.00    +0.000 A 
ATOM     12  C   UNL     1       1.822   4.360  18.289  0.00  0.00    +0.000 A 
ATOM     13  C   UNL     1       1.643   2.986  18.221  0.00  0.00    +0.000 A 
ATOM     14  F   UNL     1       0.443   2.462  18.501  0.00  0.00    +0.000 F 
ATOM     15  C   UNL     1       2.692   2.158  17.877  0.00  0.00    +0.000 A 
ATOM     16  C   UNL     1       3.931   2.730  17.586  0.00  0.00    +0.000 A 
ATOM     17  C   UNL     1       4.138   4.105  17.626  0.00  0.00    +0.000 A 
ATOM     18  N   UNL     1       5.378   4.542  17.367  0.00  0.00    +0.000 NA
ENDBRANCH   1  10
BRANCH   4  19
ATOM     19  N   UNL     1      -0.274   9.668  19.744  0.00  0.00    +0.000 N 
ATOM     20  H   UNL     1      -0.762   8.834  20.046  0.00  0.00    +0.000 HD
BRANCH  19  21
ATOM     21  C   UNL     1      -1.079  10.620  19.136  0.00  0.00    +0.000 C 
ATOM     22  S   UNL     1      -1.866  10.413  17.668  0.00  0.00    +0.000 S 
BRANCH  21  23
ATOM     23  N   UNL     1      -1.023  11.811  19.860  0.00  0.00    +0.000 N 
ATOM     24  H   UNL     1      -0.868  12.608  19.252  0.00  0.00    +0.000 HD
BRANCH  23  25
ATOM     25  C   UNL     1      -1.770  12.068  21.030  0.00  0.00    +0.000 A 
ATOM     26  C   UNL     1      -1.256  11.726  22.284  0.00  0.00    +0.000 A 
ATOM     27  C   UNL     1      -2.037  11.873  23.427  0.00  0.00    +0.000 A 
ATOM     28  C   UNL     1      -3.325  12.387  23.316  0.00  0.00    +0.000 A 
ATOM     29 CL   UNL     1      -4.322  12.490  24.714  0.00  0.00    +0.000 Cl
ATOM     30  C   UNL     1      -3.814  12.808  22.078  0.00  0.00    +0.000 A 
ATOM     31  C   UNL     1      -3.028  12.664  20.930  0.00  0.00    +0.000 A 
ENDBRANCH  23  25
ENDBRANCH  21  23
ENDBRANCH  19  21
ENDBRANCH   4  19
TORSDOF 5
ENDMDL
MODEL 2
REMARK VINA RESULT:      -8.4      2.111      3.092
REMARK  Name = 
REMARK  6 active torsions:
REMARK  status: ('A' for Active; 'I' for Inactive)
REMARK    1  A    between atoms: C_1  and  C_2
REMARK    2  A    between atoms: C_4  and  N_5
REMARK    3  A    between atoms: C_8  and  N_9
REMARK    4  A    between atoms: N_9  and  C_10
REMARK    5  A    between atoms: C_10  and  N_12
REMARK    6  A    between atoms: N_12  and  C_13
REMARK                            x       y       z     vdW  Elec       q    Type
REMARK                         _______ _______ _______ _____ _____    ______ ____
ROOT
ATOM      1  N   UNL     1       2.030   7.575  19.458  0.00  0.00    +0.000 N 
ATOM      2  C   UNL     1       1.697   8.265  20.703  0.00  0.00    +0.000 C 
ATOM      3  C   UNL     1       0.402   9.025  20.474  0.00  0.00    +0.000 C 
ATOM      4  C   UNL     1       0.469   9.958  19.257  0.00  0.00    +0.000 C 
ATOM      5  C   UNL     1       1.101   9.296  18.022  0.00  0.00    +0.000 C 
ATOM      6  C   UNL     1       2.344   8.460  18.339  0.00  0.00    +0.000 C 
ENDROOT
BRANCH   1  10
ATOM      7  C   UNL     1       1.426   3.062  21.313  0.00  0.00    +0.000 C 
ATOM      8  C   UNL     1       2.114   4.011  20.377  0.00  0.00    +0.000 A 
ATOM      9  C   UNL     1       1.855   5.371  20.432  0.00  0.00    +0.000 A 
ATOM     10  C   UNL     1       2.434   6.241  19.498  0.00  0.00    +0.000 A 
ATOM     11  C   UNL     1       3.321   5.677  18.537  0.00  0.00    +0.000 A 
ATOM     12  C   UNL     1       3.965   6.407  17.504  0.00  0.00    +0.000 A 
ATOM     13  C   UNL     1       4.781   5.781  16.572  0.00  0.00    +0.000 A 
ATOM     14  F   UNL     1       5.377   6.511  15.621  0.00  0.00    +0.000 F 
ATOM     15  C   UNL     1       4.972   4.415  16.612  0.00  0.00    +0.000 A 
ATOM     16  C   UNL     1       4.342   3.678  17.615  0.00  0.00    +0.000 A 
ATOM     17  C   UNL     1       3.534   4.277  18.576  0.00  0.00    +0.000 A 
ATOM     18  N   UNL     1       2.948   3.468  19.469  0.00  0.00    +0.000 NA
ENDBRANCH   1  10
BRANCH   4  19
ATOM     19  N   UNL     1       1.114  11.246  19.546  0.00  0.00    +0.000 N 
ATOM     20  H   UNL     1       2.091  11.234  19.813  0.00  0.00    +0.000 HD
BRANCH  19  21
ATOM     21  C   UNL     1       0.456  12.438  19.813  0.00  0.00    +0.000 C 
ATOM     22  S   UNL     1       1.215  13.890  20.179  0.00  0.00    +0.000 S 
BRANCH  21  23
ATOM     23  N   UNL     1      -0.919  12.211  19.864  0.00  0.00    +0.000 N 
ATOM     24  H   UNL     1      -1.198  11.478  19.220  0.00  0.00    +0.000 HD
BRANCH  23  25
ATOM     25  C   UNL     1      -1.704  12.334  21.031  0.00  0.00    +0.000 A 
ATOM     26  C   UNL     1      -1.251  11.808  22.244  0.00  0.00    +0.000 A 
ATOM     27  C   UNL     1      -2.072  11.827  23.368  0.00  0.00    +0.000 A 
ATOM     28  C   UNL     1      -3.338  12.397  23.283  0.00  0.00    +0.000 A 
ATOM     29 CL   UNL     1      -4.385  12.345  24.646  0.00  0.00    +0.000 Cl
ATOM     30  C   UNL     1      -3.765  12.998  22.097  0.00  0.00    +0.000 A 
ATOM     31  C   UNL     1      -2.938  12.983  20.970  0.00  0.00    +0.000 A 
ENDBRANCH  23  25
ENDBRANCH  21  23
ENDBRANCH  19  21
ENDBRANCH   4  19
TORSDOF 5
ENDMDL
MODEL 3
REMARK VINA RESULT:      -8.3      2.797      3.739
REMARK  Name = 
REMARK  6 active torsions:
REMARK  status: ('A' for Active; 'I' for Inactive)
REMARK    1  A    between atoms: C_1  and  C_2
REMARK    2  A    between atoms: C_4  and  N_5
REMARK    3  A    between atoms: C_8  and  N_9
REMARK    4  A    between atoms: N_9  and  C_10
REMARK    5  A    between atoms: C_10  and  N_12
REMARK    6  A    between atoms: N_12  and  C_13
REMARK                            x       y       z     vdW  Elec       q    Type
REMARK                         _______ _______ _______ _____ _____    ______ ____
ROOT
ATOM      1  N   UNL     1       2.376   7.285  18.699  0.00  0.00    +0.000 N 
ATOM      2  C   UNL     1       1.653   8.176  17.792  0.00  0.00    +0.000 C 
ATOM      3  C   UNL     1       1.764   9.585  18.348  0.00  0.00    +0.000 C 
ATOM      4  C   UNL     1       1.297   9.685  19.807  0.00  0.00    +0.000 C 
ATOM      5  C   UNL     1       1.841   8.556  20.695  0.00  0.00    +0.000 C 
ATOM      6  C   UNL     1       1.794   7.175  20.034  0.00  0.00    +0.000 C 
ENDROOT
BRANCH   1  10
ATOM      7  C   UNL     1       6.881   6.121  17.110  0.00  0.00    +0.000 C 
ATOM      8  C   UNL     1       5.467   5.738  17.430  0.00  0.00    +0.000 A 
ATOM      9  C   UNL     1       4.537   6.701  17.791  0.00  0.00    +0.000 A 
ATOM     10  C   UNL     1       3.242   6.327  18.175  0.00  0.00    +0.000 A 
ATOM     11  C   UNL     1       2.920   4.940  18.131  0.00  0.00    +0.000 A 
ATOM     12  C   UNL     1       1.669   4.388  18.515  0.00  0.00    +0.000 A 
ATOM     13  C   UNL     1       1.442   3.020  18.491  0.00  0.00    +0.000 A 
ATOM     14  F   UNL     1       0.243   2.545  18.851  0.00  0.00    +0.000 F 
ATOM     15  C   UNL     1       2.442   2.148  18.111  0.00  0.00    +0.000 A 
ATOM     16  C   UNL     1       3.680   2.669  17.737  0.00  0.00    +0.000 A 
ATOM     17  C   UNL     1       3.935   4.038  17.730  0.00  0.00    +0.000 A 
ATOM     18  N   UNL     1       5.172   4.424  17.391  0.00  0.00    +0.000 NA
ENDBRANCH   1  10
BRANCH   4  19
ATOM     19  N   UNL     1      -0.161   9.802  19.944  0.00  0.00    +0.000 N 
ATOM     20  H   UNL     1      -0.686   8.956  20.129  0.00  0.00    +0.000 HD
BRANCH  19  21
ATOM     21  C   UNL     1      -0.930  10.878  19.524  0.00  0.00    +0.000 C 
ATOM     22  S   UNL     1      -0.491  12.490  19.683  0.00  0.00    +0.000 S 
BRANCH  21  23
ATOM     23  N   UNL     1      -2.171  10.419  19.079  0.00  0.00    +0.000 N 
ATOM     24  H   UNL     1      -2.896  10.586  19.768  0.00  0.00    +0.000 HD
BRANCH  23  25
ATOM     25  C   UNL     1      -2.589  10.437  17.730  0.00  0.00    +0.000 A 
ATOM     26  C   UNL     1      -3.704  11.188  17.348  0.00  0.00    +0.000 A 
ATOM     27  C   UNL     1      -4.185  11.115  16.044  0.00  0.00    +0.000 A 
ATOM     28  C   UNL     1      -3.534  10.310  15.116  0.00  0.00    +0.000 A 
ATOM     29 CL   UNL     1      -4.176  10.153  13.528  0.00  0.00    +0.000 Cl
ATOM     30  C   UNL     1      -2.371   9.622  15.470  0.00  0.00    +0.000 A 
ATOM     31  C   UNL     1      -1.885   9.698  16.778  0.00  0.00    +0.000 A 
ENDBRANCH  23  25
ENDBRANCH  21  23
ENDBRANCH  19  21
ENDBRANCH   4  19
TORSDOF 5
ENDMDL
MODEL 4
REMARK VINA RESULT:      -8.2      2.086      3.184
REMARK  Name = 
REMARK  6 active torsions:
REMARK  status: ('A' for Active; 'I' for Inactive)
REMARK    1  A    between atoms: C_1  and  C_2
REMARK    2  A    between atoms: C_4  and  N_5
REMARK    3  A    between atoms: C_8  and  N_9
REMARK    4  A    between atoms: N_9  and  C_10
REMARK    5  A    between atoms: C_10  and  N_12
REMARK    6  A    between atoms: N_12  and  C_13
REMARK                            x       y       z     vdW  Elec       q    Type
REMARK                         _______ _______ _______ _____ _____    ______ ____
ROOT
ATOM      1  N   UNL     1       1.990   7.591  19.579  0.00  0.00    +0.000 N 
ATOM      2  C   UNL     1       1.678   8.259  20.840  0.00  0.00    +0.000 C 
ATOM      3  C   UNL     1       0.371   9.010  20.651  0.00  0.00    +0.000 C 
ATOM      4  C   UNL     1       0.403   9.960  19.445  0.00  0.00    +0.000 C 
ATOM      5  C   UNL     1       1.013   9.322  18.188  0.00  0.00    +0.000 C 
ATOM      6  C   UNL     1       2.271   8.494  18.466  0.00  0.00    +0.000 C 
ENDROOT
BRANCH   1  10
ATOM      7  C   UNL     1       1.448   3.039  21.358  0.00  0.00    +0.000 C 
ATOM      8  C   UNL     1       2.118   4.011  20.434  0.00  0.00    +0.000 A 
ATOM      9  C   UNL     1       1.846   5.368  20.515  0.00  0.00    +0.000 A 
ATOM     10  C   UNL     1       2.407   6.260  19.591  0.00  0.00    +0.000 A 
ATOM     11  C   UNL     1       3.291   5.721  18.612  0.00  0.00    +0.000 A 
ATOM     12  C   UNL     1       3.918   6.476  17.587  0.00  0.00    +0.000 A 
ATOM     13  C   UNL     1       4.731   5.875  16.636  0.00  0.00    +0.000 A 
ATOM     14  F   UNL     1       5.311   6.629  15.693  0.00  0.00    +0.000 F 
ATOM     15  C   UNL     1       4.936   4.511  16.650  0.00  0.00    +0.000 A 
ATOM     16  C   UNL     1       4.323   3.750  17.645  0.00  0.00    +0.000 A 
ATOM     17  C   UNL     1       3.518   4.324  18.625  0.00  0.00    +0.000 A 
ATOM     18  N   UNL     1       2.948   3.493  19.507  0.00  0.00    +0.000 NA
ENDBRANCH   1  10
BRANCH   4  19
ATOM     19  N   UNL     1       1.041  11.251  19.738  0.00  0.00    +0.000 N 
ATOM     20  H   UNL     1       1.945  11.236  20.195  0.00  0.00    +0.000 HD
BRANCH  19  21
ATOM     21  C   UNL     1       0.404  12.483  19.760  0.00  0.00    +0.000 C 
ATOM     22  S   UNL     1       0.007  13.380  18.398  0.00  0.00    +0.000 S 
BRANCH  21  23
ATOM     23  N   UNL     1       0.270  12.916  21.079  0.00  0.00    +0.000 N 
ATOM     24  H   UNL     1       0.795  13.768  21.244  0.00  0.00    +0.000 HD
BRANCH  23  25
ATOM     25  C   UNL     1      -0.898  12.754  21.856  0.00  0.00    +0.000 A 
ATOM     26  C   UNL     1      -1.864  13.764  21.893  0.00  0.00    +0.000 A 
ATOM     27  C   UNL     1      -2.959  13.655  22.746  0.00  0.00    +0.000 A 
ATOM     28  C   UNL     1      -3.100  12.523  23.542  0.00  0.00    +0.000 A 
ATOM     29 CL   UNL     1      -4.405  12.426  24.658  0.00  0.00    +0.000 Cl
ATOM     30  C   UNL     1      -2.182  11.475  23.449  0.00  0.00    +0.000 A 
ATOM     31  C   UNL     1      -1.084  11.582  22.589  0.00  0.00    +0.000 A 
ENDBRANCH  23  25
ENDBRANCH  21  23
ENDBRANCH  19  21
ENDBRANCH   4  19
TORSDOF 5
ENDMDL
MODEL 5
REMARK VINA RESULT:      -8.1      2.739      3.851
REMARK  Name = 
REMARK  6 active torsions:
REMARK  status: ('A' for Active; 'I' for Inactive)
REMARK    1  A    between atoms: C_1  and  C_2
REMARK    2  A    between atoms: C_4  and  N_5
REMARK    3  A    between atoms: C_8  and  N_9
REMARK    4  A    between atoms: N_9  and  C_10
REMARK    5  A    between atoms: C_10  and  N_12
REMARK    6  A    between atoms: N_12  and  C_13
REMARK                            x       y       z     vdW  Elec       q    Type
REMARK                         _______ _______ _______ _____ _____    ______ ____
ROOT
ATOM      1  N   UNL     1       1.946   7.525  19.761  0.00  0.00    +0.000 N 
ATOM      2  C   UNL     1       1.681   8.154  21.053  0.00  0.00    +0.000 C 
ATOM      3  C   UNL     1       0.359   8.894  20.942  0.00  0.00    +0.000 C 
ATOM      4  C   UNL     1       0.328   9.878  19.764  0.00  0.00    +0.000 C 
ATOM      5  C   UNL     1       0.891   9.282  18.464  0.00  0.00    +0.000 C 
ATOM      6  C   UNL     1       2.169   8.462  18.663  0.00  0.00    +0.000 C 
ENDROOT
BRANCH   1  10
ATOM      7  C   UNL     1       1.484   2.904  21.378  0.00  0.00    +0.000 C 
ATOM      8  C   UNL     1       2.127   3.918  20.480  0.00  0.00    +0.000 A 
ATOM      9  C   UNL     1       1.842   5.268  20.616  0.00  0.00    +0.000 A 
ATOM     10  C   UNL     1       2.378   6.200  19.717  0.00  0.00    +0.000 A 
ATOM     11  C   UNL     1       3.251   5.708  18.705  0.00  0.00    +0.000 A 
ATOM     12  C   UNL     1       3.853   6.508  17.698  0.00  0.00    +0.000 A 
ATOM     13  C   UNL     1       4.657   5.952  16.713  0.00  0.00    +0.000 A 
ATOM     14  F   UNL     1       5.213   6.746  15.790  0.00  0.00    +0.000 F 
ATOM     15  C   UNL     1       4.877   4.590  16.673  0.00  0.00    +0.000 A 
ATOM     16  C   UNL     1       4.289   3.786  17.649  0.00  0.00    +0.000 A 
ATOM     17  C   UNL     1       3.494   4.314  18.662  0.00  0.00    +0.000 A 
ATOM     18  N   UNL     1       2.948   3.444  19.522  0.00  0.00    +0.000 NA
ENDBRANCH   1  10
BRANCH   4  19
ATOM     19  N   UNL     1       0.964  11.167  20.066  0.00  0.00    +0.000 N 
ATOM     20  H   UNL     1       1.278  11.326  21.016  0.00  0.00    +0.000 HD
BRANCH  19  21
ATOM     21  C   UNL     1       0.887  12.311  19.285  0.00  0.00    +0.000 C 
ATOM     22  S   UNL     1       2.135  12.907  18.334  0.00  0.00    +0.000 S 
BRANCH  21  23
ATOM     23  N   UNL     1      -0.329  12.953  19.517  0.00  0.00    +0.000 N 
ATOM     24  H   UNL     1      -0.226  13.962  19.492  0.00  0.00    +0.000 HD
BRANCH  23  25
ATOM     25  C   UNL     1      -1.585  12.454  19.107  0.00  0.00    +0.000 A 
ATOM     26  C   UNL     1      -1.734  11.874  17.844  0.00  0.00    +0.000 A 
ATOM     27  C   UNL     1      -2.993  11.486  17.395  0.00  0.00    +0.000 A 
ATOM     28  C   UNL     1      -4.099  11.656  18.221  0.00  0.00    +0.000 A 
ATOM     29 CL   UNL     1      -5.666  11.257  17.635  0.00  0.00    +0.000 Cl
ATOM     30  C   UNL     1      -3.945  12.160  19.514  0.00  0.00    +0.000 A 
ATOM     31  C   UNL     1      -2.679  12.545  19.968  0.00  0.00    +0.000 A 
ENDBRANCH  23  25
ENDBRANCH  21  23
ENDBRANCH  19  21
ENDBRANCH   4  19
TORSDOF 5
ENDMDL
MODEL 6
REMARK VINA RESULT:      -8.1      1.333      1.633
REMARK  Name = 
REMARK  6 active torsions:
REMARK  status: ('A' for Active; 'I' for Inactive)
REMARK    1  A    between atoms: C_1  and  C_2
REMARK    2  A    between atoms: C_4  and  N_5
REMARK    3  A    between atoms: C_8  and  N_9
REMARK    4  A    between atoms: N_9  and  C_10
REMARK    5  A    between atoms: C_10  and  N_12
REMARK    6  A    between atoms: N_12  and  C_13
REMARK                            x       y       z     vdW  Elec       q    Type
REMARK                         _______ _______ _______ _____ _____    ______ ____
ROOT
ATOM      1  N   UNL     1       2.693   7.276  18.375  0.00  0.00    +0.000 N 
ATOM      2  C   UNL     1       2.653   7.364  19.834  0.00  0.00    +0.000 C 
ATOM      3  C   UNL     1       1.262   7.829  20.228  0.00  0.00    +0.000 C 
ATOM      4  C   UNL     1       0.850   9.130  19.525  0.00  0.00    +0.000 C 
ATOM      5  C   UNL     1       1.172   9.132  18.022  0.00  0.00    +0.000 C 
ATOM      6  C   UNL     1       2.550   8.555  17.685  0.00  0.00    +0.000 C 
ENDROOT
BRANCH   1  10
ATOM      7  C   UNL     1       6.395   5.313  15.804  0.00  0.00    +0.000 C 
ATOM      8  C   UNL     1       5.096   5.175  16.540  0.00  0.00    +0.000 A 
ATOM      9  C   UNL     1       4.425   6.295  17.007  0.00  0.00    +0.000 A 
ATOM     10  C   UNL     1       3.258   6.154  17.770  0.00  0.00    +0.000 A 
ATOM     11  C   UNL     1       2.778   4.832  17.998  0.00  0.00    +0.000 A 
ATOM     12  C   UNL     1       1.633   4.511  18.773  0.00  0.00    +0.000 A 
ATOM     13  C   UNL     1       1.252   3.195  18.993  0.00  0.00    +0.000 A 
ATOM     14  F   UNL     1       0.157   2.939  19.721  0.00  0.00    +0.000 F 
ATOM     15  C   UNL     1       1.995   2.153  18.477  0.00  0.00    +0.000 A 
ATOM     16  C   UNL     1       3.127   2.448  17.719  0.00  0.00    +0.000 A 
ATOM     17  C   UNL     1       3.526   3.756  17.463  0.00  0.00    +0.000 A 
ATOM     18  N   UNL     1       4.652   3.922  16.756  0.00  0.00    +0.000 NA
ENDBRANCH   1  10
BRANCH   4  19
ATOM     19  N   UNL     1       1.381  10.336  20.174  0.00  0.00    +0.000 N 
ATOM     20  H   UNL     1       2.031  10.211  20.940  0.00  0.00    +0.000 HD
BRANCH  19  21
ATOM     21  C   UNL     1       0.843  11.611  20.076  0.00  0.00    +0.000 C 
ATOM     22  S   UNL     1       1.728  13.034  20.171  0.00  0.00    +0.000 S 
BRANCH  21  23
ATOM     23  N   UNL     1      -0.549  11.528  20.025  0.00  0.00    +0.000 N 
ATOM     24  H   UNL     1      -0.853  10.759  19.437  0.00  0.00    +0.000 HD
BRANCH  23  25
ATOM     25  C   UNL     1      -1.407  11.858  21.097  0.00  0.00    +0.000 A 
ATOM     26  C   UNL     1      -1.125  11.406  22.389  0.00  0.00    +0.000 A 
ATOM     27  C   UNL     1      -2.028  11.633  23.424  0.00  0.00    +0.000 A 
ATOM     28  C   UNL     1      -3.201  12.335  23.169  0.00  0.00    +0.000 A 
ATOM     29 CL   UNL     1      -4.357  12.542  24.426  0.00  0.00    +0.000 Cl
ATOM     30  C   UNL     1      -3.450  12.859  21.899  0.00  0.00    +0.000 A 
ATOM     31  C   UNL     1      -2.541  12.636  20.861  0.00  0.00    +0.000 A 
ENDBRANCH  23  25
ENDBRANCH  21  23
ENDBRANCH  19  21
ENDBRANCH   4  19
TORSDOF 5
ENDMDL
MODEL 7
REMARK VINA RESULT:      -8.0      4.528      9.296
REMARK  Name = 
REMARK  6 active torsions:
REMARK  status: ('A' for Active; 'I' for Inactive)
REMARK    1  A    between atoms: C_1  and  C_2
REMARK    2  A    between atoms: C_4  and  N_5
REMARK    3  A    between atoms: C_8  and  N_9
REMARK    4  A    between atoms: N_9  and  C_10
REMARK    5  A    between atoms: C_10  and  N_12
REMARK    6  A    between atoms: N_12  and  C_13
REMARK                            x       y       z     vdW  Elec       q    Type
REMARK                         _______ _______ _______ _____ _____    ______ ____
ROOT
ATOM      1  N   UNL     1       1.377   8.966  19.718  0.00  0.00    +0.000 N 
ATOM      2  C   UNL     1       2.344   8.711  18.652  0.00  0.00    +0.000 C 
ATOM      3  C   UNL     1       2.105   7.299  18.144  0.00  0.00    +0.000 C 
ATOM      4  C   UNL     1       2.139   6.252  19.267  0.00  0.00    +0.000 C 
ATOM      5  C   UNL     1       1.344   6.675  20.512  0.00  0.00    +0.000 C 
ATOM      6  C   UNL     1       1.552   8.139  20.909  0.00  0.00    +0.000 C 
ENDROOT
BRANCH   1  10
ATOM      7  C   UNL     1       1.031  13.589  21.358  0.00  0.00    +0.000 C 
ATOM      8  C   UNL     1       0.526  12.461  20.510  0.00  0.00    +0.000 A 
ATOM      9  C   UNL     1       1.096  11.200  20.596  0.00  0.00    +0.000 A 
ATOM     10  C   UNL     1       0.678  10.173  19.737  0.00  0.00    +0.000 A 
ATOM     11  C   UNL     1      -0.371  10.470  18.821  0.00  0.00    +0.000 A 
ATOM     12  C   UNL     1      -0.890   9.559  17.864  0.00  0.00    +0.000 A 
ATOM     13  C   UNL     1      -1.883   9.933  16.970  0.00  0.00    +0.000 A 
ATOM     14  F   UNL     1      -2.351   9.037  16.091  0.00  0.00    +0.000 F 
ATOM     15  C   UNL     1      -2.382  11.219  16.973  0.00  0.00    +0.000 A 
ATOM     16  C   UNL     1      -1.881  12.132  17.901  0.00  0.00    +0.000 A 
ATOM     17  C   UNL     1      -0.900  11.784  18.824  0.00  0.00    +0.000 A 
ATOM     18  N   UNL     1      -0.464  12.751  19.643  0.00  0.00    +0.000 NA
ENDBRANCH   1  10
BRANCH   4  19
ATOM     19  N   UNL     1       3.499   5.834  19.632  0.00  0.00    +0.000 N 
ATOM     20  H   UNL     1       4.228   6.537  19.615  0.00  0.00    +0.000 HD
BRANCH  19  21
ATOM     21  C   UNL     1       3.959   4.526  19.678  0.00  0.00    +0.000 C 
ATOM     22  S   UNL     1       3.082   3.222  20.266  0.00  0.00    +0.000 S 
BRANCH  21  23
ATOM     23  N   UNL     1       5.299   4.489  19.289  0.00  0.00    +0.000 N 
ATOM     24  H   UNL     1       5.863   3.968  19.952  0.00  0.00    +0.000 HD
BRANCH  23  25
ATOM     25  C   UNL     1       5.738   4.452  17.947  0.00  0.00    +0.000 A 
ATOM     26  C   UNL     1       7.072   4.729  17.635  0.00  0.00    +0.000 A 
ATOM     27  C   UNL     1       7.480   4.805  16.307  0.00  0.00    +0.000 A 
ATOM     28  C   UNL     1       6.558   4.580  15.291  0.00  0.00    +0.000 A 
ATOM     29 CL   UNL     1       7.040   4.758  13.650  0.00  0.00    +0.000 Cl
ATOM     30  C   UNL     1       5.243   4.222  15.597  0.00  0.00    +0.000 A 
ATOM     31  C   UNL     1       4.834   4.141  16.932  0.00  0.00    +0.000 A 
ENDBRANCH  23  25
ENDBRANCH  21  23
ENDBRANCH  19  21
ENDBRANCH   4  19
TORSDOF 5
ENDMDL
MODEL 8
REMARK VINA RESULT:      -8.0      2.674      3.748
REMARK  Name = 
REMARK  6 active torsions:
REMARK  status: ('A' for Active; 'I' for Inactive)
REMARK    1  A    between atoms: C_1  and  C_2
REMARK    2  A    between atoms: C_4  and  N_5
REMARK    3  A    between atoms: C_8  and  N_9
REMARK    4  A    between atoms: N_9  and  C_10
REMARK    5  A    between atoms: C_10  and  N_12
REMARK    6  A    between atoms: N_12  and  C_13
REMARK                            x       y       z     vdW  Elec       q    Type
REMARK                         _______ _______ _______ _____ _____    ______ ____
ROOT
ATOM      1  N   UNL     1       2.008   7.616  19.537  0.00  0.00    +0.000 N 
ATOM      2  C   UNL     1       1.627   8.293  20.775  0.00  0.00    +0.000 C 
ATOM      3  C   UNL     1       0.304   8.997  20.525  0.00  0.00    +0.000 C 
ATOM      4  C   UNL     1       0.350   9.930  19.307  0.00  0.00    +0.000 C 
ATOM      5  C   UNL     1       1.028   9.294  18.084  0.00  0.00    +0.000 C 
ATOM      6  C   UNL     1       2.301   8.512  18.421  0.00  0.00    +0.000 C 
ENDROOT
BRANCH   1  10
ATOM      7  C   UNL     1       1.642   3.112  21.475  0.00  0.00    +0.000 C 
ATOM      8  C   UNL     1       2.264   4.073  20.507  0.00  0.00    +0.000 A 
ATOM      9  C   UNL     1       1.951   5.423  20.548  0.00  0.00    +0.000 A 
ATOM     10  C   UNL     1       2.468   6.301  19.586  0.00  0.00    +0.000 A 
ATOM     11  C   UNL     1       3.352   5.758  18.610  0.00  0.00    +0.000 A 
ATOM     12  C   UNL     1       3.937   6.497  17.549  0.00  0.00    +0.000 A 
ATOM     13  C   UNL     1       4.753   5.890  16.605  0.00  0.00    +0.000 A 
ATOM     14  F   UNL     1       5.293   6.630  15.627  0.00  0.00    +0.000 F 
ATOM     15  C   UNL     1       5.002   4.535  16.660  0.00  0.00    +0.000 A 
ATOM     16  C   UNL     1       4.430   3.788  17.690  0.00  0.00    +0.000 A 
ATOM     17  C   UNL     1       3.623   4.369  18.664  0.00  0.00    +0.000 A 
ATOM     18  N   UNL     1       3.095   3.551  19.584  0.00  0.00    +0.000 NA
ENDBRANCH   1  10
BRANCH   4  19
ATOM     19  N   UNL     1       0.935  11.245  19.604  0.00  0.00    +0.000 N 
ATOM     20  H   UNL     1       1.767  11.271  20.181  0.00  0.00    +0.000 HD
BRANCH  19  21
ATOM     21  C   UNL     1       0.294  12.467  19.459  0.00  0.00    +0.000 C 
ATOM     22  S   UNL     1       0.946  13.805  18.684  0.00  0.00    +0.000 S 
BRANCH  21  23
ATOM     23  N   UNL     1      -0.907  12.450  20.168  0.00  0.00    +0.000 N 
ATOM     24  H   UNL     1      -0.865  13.054  20.983  0.00  0.00    +0.000 HD
BRANCH  23  25
ATOM     25  C   UNL     1      -2.181  12.309  19.575  0.00  0.00    +0.000 A 
ATOM     26  C   UNL     1      -3.331  12.675  20.279  0.00  0.00    +0.000 A 
ATOM     27  C   UNL     1      -4.591  12.430  19.741  0.00  0.00    +0.000 A 
ATOM     28  C   UNL     1      -4.699  11.841  18.486  0.00  0.00    +0.000 A 
ATOM     29 CL   UNL     1      -6.253  11.459  17.857  0.00  0.00    +0.000 Cl
ATOM     30  C   UNL     1      -3.554  11.548  17.742  0.00  0.00    +0.000 A 
ATOM     31  C   UNL     1      -2.288  11.798  18.281  0.00  0.00    +0.000 A 
ENDBRANCH  23  25
ENDBRANCH  21  23
ENDBRANCH  19  21
ENDBRANCH   4  19
TORSDOF 5
ENDMDL
MODEL 9
REMARK VINA RESULT:      -8.0      2.070      2.538
REMARK  Name = 
REMARK  6 active torsions:
REMARK  status: ('A' for Active; 'I' for Inactive)
REMARK    1  A    between atoms: C_1  and  C_2
REMARK    2  A    between atoms: C_4  and  N_5
REMARK    3  A    between atoms: C_8  and  N_9
REMARK    4  A    between atoms: N_9  and  C_10
REMARK    5  A    between atoms: C_10  and  N_12
REMARK    6  A    between atoms: N_12  and  C_13
REMARK                            x       y       z     vdW  Elec       q    Type
REMARK                         _______ _______ _______ _____ _____    ______ ____
ROOT
ATOM      1  N   UNL     1       2.397   7.357  18.545  0.00  0.00    +0.000 N 
ATOM      2  C   UNL     1       1.718   8.286  17.643  0.00  0.00    +0.000 C 
ATOM      3  C   UNL     1       1.860   9.681  18.228  0.00  0.00    +0.000 C 
ATOM      4  C   UNL     1       1.368   9.766  19.680  0.00  0.00    +0.000 C 
ATOM      5  C   UNL     1       1.862   8.604  20.555  0.00  0.00    +0.000 C 
ATOM      6  C   UNL     1       1.788   7.238  19.866  0.00  0.00    +0.000 C 
ENDROOT
BRANCH   1  10
ATOM      7  C   UNL     1       6.860   6.131  16.883  0.00  0.00    +0.000 C 
ATOM      8  C   UNL     1       5.449   5.765  17.237  0.00  0.00    +0.000 A 
ATOM      9  C   UNL     1       4.535   6.741  17.603  0.00  0.00    +0.000 A 
ATOM     10  C   UNL     1       3.245   6.383  18.017  0.00  0.00    +0.000 A 
ATOM     11  C   UNL     1       2.909   4.999  18.000  0.00  0.00    +0.000 A 
ATOM     12  C   UNL     1       1.662   4.464  18.416  0.00  0.00    +0.000 A 
ATOM     13  C   UNL     1       1.422   3.097  18.417  0.00  0.00    +0.000 A 
ATOM     14  F   UNL     1       0.227   2.638  18.807  0.00  0.00    +0.000 F 
ATOM     15  C   UNL     1       2.407   2.212  18.029  0.00  0.00    +0.000 A 
ATOM     16  C   UNL     1       3.642   2.717  17.623  0.00  0.00    +0.000 A 
ATOM     17  C   UNL     1       3.909   4.082  17.592  0.00  0.00    +0.000 A 
ATOM     18  N   UNL     1       5.142   4.453  17.223  0.00  0.00    +0.000 NA
ENDBRANCH   1  10
BRANCH   4  19
ATOM     19  N   UNL     1      -0.088   9.923  19.793  0.00  0.00    +0.000 N 
ATOM     20  H   UNL     1      -0.670   9.383  19.165  0.00  0.00    +0.000 HD
BRANCH  19  21
ATOM     21  C   UNL     1      -0.742  10.966  20.433  0.00  0.00    +0.000 C 
ATOM     22  S   UNL     1      -0.916  11.111  22.096  0.00  0.00    +0.000 S 
BRANCH  21  23
ATOM     23  N   UNL     1      -1.342  11.793  19.484  0.00  0.00    +0.000 N 
ATOM     24  H   UNL     1      -0.701  12.020  18.731  0.00  0.00    +0.000 HD
BRANCH  23  25
ATOM     25  C   UNL     1      -2.709  11.740  19.131  0.00  0.00    +0.000 A 
ATOM     26  C   UNL     1      -3.126  10.969  18.042  0.00  0.00    +0.000 A 
ATOM     27  C   UNL     1      -4.453  11.006  17.624  0.00  0.00    +0.000 A 
ATOM     28  C   UNL     1      -5.368  11.795  18.312  0.00  0.00    +0.000 A 
ATOM     29 CL   UNL     1      -6.988  11.908  17.746  0.00  0.00    +0.000 Cl
ATOM     30  C   UNL     1      -4.976  12.503  19.450  0.00  0.00    +0.000 A 
ATOM     31  C   UNL     1      -3.644  12.462  19.873  0.00  0.00    +0.000 A 
ENDBRANCH  23  25
ENDBRANCH  21  23
ENDBRANCH  19  21
ENDBRANCH   4  19
TORSDOF 5
ENDMDL
