MODEL 1
REMARK VINA RESULT:      -7.9      0.000      0.000
REMARK  Name = 
REMARK  4 active torsions:
REMARK  status: ('A' for Active; 'I' for Inactive)
REMARK    1  A    between atoms: C_2  and  C_3
REMARK    2  A    between atoms: C_3  and  O_4
REMARK    3  A    between atoms: O_4  and  C_5
REMARK    4  A    between atoms: C_8  and  C_9
REMARK                            x       y       z     vdW  Elec       q    Type
REMARK                         _______ _______ _______ _____ _____    ______ ____
ROOT
ATOM      1  C   UNL     1       2.808   7.342  18.367  0.00  0.00    +0.000 A 
ATOM      2  C   UNL     1       2.551   6.979  19.677  0.00  0.00    +0.000 A 
ATOM      3  C   UNL     1       1.733   7.736  20.487  0.00  0.00    +0.000 A 
ATOM      4  C   UNL     1       1.149   8.930  20.025  0.00  0.00    +0.000 A 
ATOM      5  C   UNL     1       1.413   9.305  18.700  0.00  0.00    +0.000 A 
ATOM      6  C   UNL     1       2.238   8.527  17.867  0.00  0.00    +0.000 A 
ENDROOT
BRANCH   4   7
ATOM      7  C   UNL     1       0.288   9.721  20.923  0.00  0.00    +0.000 A 
ATOM      8  C   UNL     1      -0.255  10.947  20.496  0.00  0.00    +0.000 A 
ATOM      9  C   UNL     1      -1.019  11.742  21.349  0.00  0.00    +0.000 A 
ATOM     10  C   UNL     1      -1.267  11.319  22.650  0.00  0.00    +0.000 A 
ATOM     11  C   UNL     1      -0.760  10.098  23.091  0.00  0.00    +0.000 A 
ATOM     12  C   UNL     1       0.009   9.309  22.234  0.00  0.00    +0.000 A 
ENDBRANCH   4   7
BRANCH   1  13
ATOM     13  O   UNL     1       3.578   6.525  17.561  0.00  0.00    +0.000 OA
BRANCH  13  14
ATOM     14  C   UNL     1       3.038   5.192  17.452  0.00  0.00    +0.000 C 
BRANCH  14  16
ATOM     15  O   UNL     1       4.960   4.155  18.486  0.00  0.00    +0.000 OA
ATOM     16  C   UNL     1       3.713   4.197  18.390  0.00  0.00    +0.000 C 
ATOM     17  N   UNL     1       2.890   3.400  19.157  0.00  0.00    +0.000 N 
ATOM     18  C   UNL     1       1.435   3.392  19.071  0.00  0.00    +0.000 C 
ATOM     19  C   UNL     1       0.826   3.695  20.430  0.00  0.00    +0.000 C 
ATOM     20  C   UNL     1       1.347   2.709  21.476  0.00  0.00    +0.000 C 
ATOM     21  C   UNL     1       2.877   2.639  21.483  0.00  0.00    +0.000 C 
ATOM     22  C   UNL     1       3.452   2.430  20.082  0.00  0.00    +0.000 C 
ENDBRANCH  14  16
ENDBRANCH  13  14
ENDBRANCH   1  13
TORSDOF 4
ENDMDL
MODEL 2
REMARK VINA RESULT:      -7.6      4.683      6.424
REMARK  Name = 
REMARK  4 active torsions:
REMARK  status: ('A' for Active; 'I' for Inactive)
REMARK    1  A    between atoms: C_2  and  C_3
REMARK    2  A    between atoms: C_3  and  O_4
REMARK    3  A    between atoms: O_4  and  C_5
REMARK    4  A    between atoms: C_8  and  C_9
REMARK                            x       y       z     vdW  Elec       q    Type
REMARK                         _______ _______ _______ _____ _____    ______ ____
ROOT
ATOM      1  C   UNL     1       7.004   5.820  17.848  0.00  0.00    +0.000 A 
ATOM      2  C   UNL     1       7.981   6.073  18.796  0.00  0.00    +0.000 A 
ATOM      3  C   UNL     1       8.490   7.340  18.985  0.00  0.00    +0.000 A 
ATOM      4  C   UNL     1       8.061   8.425  18.198  0.00  0.00    +0.000 A 
ATOM      5  C   UNL     1       7.077   8.170  17.232  0.00  0.00    +0.000 A 
ATOM      6  C   UNL     1       6.546   6.880  17.046  0.00  0.00    +0.000 A 
ENDROOT
BRANCH   4   7
ATOM      7  C   UNL     1       8.635   9.763  18.420  0.00  0.00    +0.000 A 
ATOM      8  C   UNL     1       9.449  10.017  19.540  0.00  0.00    +0.000 A 
ATOM      9  C   UNL     1       9.950  11.290  19.803  0.00  0.00    +0.000 A 
ATOM     10  C   UNL     1       9.657  12.340  18.940  0.00  0.00    +0.000 A 
ATOM     11  C   UNL     1       8.872  12.112  17.811  0.00  0.00    +0.000 A 
ATOM     12  C   UNL     1       8.368  10.836  17.556  0.00  0.00    +0.000 A 
ENDBRANCH   4   7
BRANCH   1  13
ATOM     13  O   UNL     1       6.467   4.552  17.731  0.00  0.00    +0.000 OA
BRANCH  13  14
ATOM     14  C   UNL     1       5.402   4.315  18.675  0.00  0.00    +0.000 C 
BRANCH  14  16
ATOM     15  O   UNL     1       4.048   3.535  16.833  0.00  0.00    +0.000 OA
ATOM     16  C   UNL     1       4.076   3.972  18.006  0.00  0.00    +0.000 C 
ATOM     17  N   UNL     1       2.935   4.110  18.767  0.00  0.00    +0.000 N 
ATOM     18  C   UNL     1       2.908   4.632  20.127  0.00  0.00    +0.000 C 
ATOM     19  C   UNL     1       2.271   3.622  21.066  0.00  0.00    +0.000 C 
ATOM     20  C   UNL     1       0.877   3.239  20.569  0.00  0.00    +0.000 C 
ATOM     21  C   UNL     1       0.896   2.798  19.102  0.00  0.00    +0.000 C 
ATOM     22  C   UNL     1       1.630   3.797  18.207  0.00  0.00    +0.000 C 
ENDBRANCH  14  16
ENDBRANCH  13  14
ENDBRANCH   1  13
TORSDOF 4
ENDMDL
MODEL 3
REMARK VINA RESULT:      -7.6      0.840      1.503
REMARK  Name = 
REMARK  4 active torsions:
REMARK  status: ('A' for Active; 'I' for Inactive)
REMARK    1  A    between atoms: C_2  and  C_3
REMARK    2  A    between atoms: C_3  and  O_4
REMARK    3  A    between atoms: O_4  and  C_5
REMARK    4  A    between atoms: C_8  and  C_9
REMARK                            x       y       z     vdW  Elec       q    Type
REMARK                         _______ _______ _______ _____ _____    ______ ____
ROOT
ATOM      1  C   UNL     1       3.371   7.121  18.212  0.00  0.00    +0.000 A 
ATOM      2  C   UNL     1       2.951   8.200  17.453  0.00  0.00    +0.000 A 
ATOM      3  C   UNL     1       2.011   9.090  17.924  0.00  0.00    +0.000 A 
ATOM      4  C   UNL     1       1.412   8.921  19.187  0.00  0.00    +0.000 A 
ATOM      5  C   UNL     1       1.830   7.824  19.955  0.00  0.00    +0.000 A 
ATOM      6  C   UNL     1       2.800   6.921  19.481  0.00  0.00    +0.000 A 
ENDROOT
BRANCH   4   7
ATOM      7  C   UNL     1       0.402   9.885  19.654  0.00  0.00    +0.000 A 
ATOM      8  C   UNL     1      -0.357  10.631  18.732  0.00  0.00    +0.000 A 
ATOM      9  C   UNL     1      -1.273  11.594  19.152  0.00  0.00    +0.000 A 
ATOM     10  C   UNL     1      -1.460  11.824  20.510  0.00  0.00    +0.000 A 
ATOM     11  C   UNL     1      -0.739  11.083  21.445  0.00  0.00    +0.000 A 
ATOM     12  C   UNL     1       0.181  10.124  21.019  0.00  0.00    +0.000 A 
ENDBRANCH   4   7
BRANCH   1  13
ATOM     13  O   UNL     1       4.365   6.286  17.738  0.00  0.00    +0.000 OA
BRANCH  13  14
ATOM     14  C   UNL     1       3.900   4.937  17.532  0.00  0.00    +0.000 C 
BRANCH  14  16
ATOM     15  O   UNL     1       5.461   3.909  19.063  0.00  0.00    +0.000 OA
ATOM     16  C   UNL     1       4.275   3.996  18.672  0.00  0.00    +0.000 C 
ATOM     17  N   UNL     1       3.249   3.303  19.277  0.00  0.00    +0.000 N 
ATOM     18  C   UNL     1       1.856   3.351  18.850  0.00  0.00    +0.000 C 
ATOM     19  C   UNL     1       0.967   3.792  20.000  0.00  0.00    +0.000 C 
ATOM     20  C   UNL     1       1.168   2.876  21.208  0.00  0.00    +0.000 C 
ATOM     21  C   UNL     1       2.647   2.741  21.582  0.00  0.00    +0.000 C 
ATOM     22  C   UNL     1       3.519   2.390  20.376  0.00  0.00    +0.000 C 
ENDBRANCH  14  16
ENDBRANCH  13  14
ENDBRANCH   1  13
TORSDOF 4
ENDMDL
MODEL 4
REMARK VINA RESULT:      -7.6      3.937      8.087
REMARK  Name = 
REMARK  4 active torsions:
REMARK  status: ('A' for Active; 'I' for Inactive)
REMARK    1  A    between atoms: C_2  and  C_3
REMARK    2  A    between atoms: C_3  and  O_4
REMARK    3  A    between atoms: O_4  and  C_5
REMARK    4  A    between atoms: C_8  and  C_9
REMARK                            x       y       z     vdW  Elec       q    Type
REMARK                         _______ _______ _______ _____ _____    ______ ____
ROOT
ATOM      1  C   UNL     1       1.063   9.346  19.604  0.00  0.00    +0.000 A 
ATOM      2  C   UNL     1       1.527   9.443  18.304  0.00  0.00    +0.000 A 
ATOM      3  C   UNL     1       2.285   8.444  17.733  0.00  0.00    +0.000 A 
ATOM      4  C   UNL     1       2.648   7.296  18.461  0.00  0.00    +0.000 A 
ATOM      5  C   UNL     1       2.186   7.198  19.782  0.00  0.00    +0.000 A 
ATOM      6  C   UNL     1       1.401   8.211  20.363  0.00  0.00    +0.000 A 
ENDROOT
BRANCH   4   7
ATOM      7  C   UNL     1       3.469   6.252  17.823  0.00  0.00    +0.000 A 
ATOM      8  C   UNL     1       3.196   4.890  18.046  0.00  0.00    +0.000 A 
ATOM      9  C   UNL     1       3.998   3.887  17.504  0.00  0.00    +0.000 A 
ATOM     10  C   UNL     1       5.090   4.228  16.714  0.00  0.00    +0.000 A 
ATOM     11  C   UNL     1       5.370   5.568  16.458  0.00  0.00    +0.000 A 
ATOM     12  C   UNL     1       4.566   6.569  17.008  0.00  0.00    +0.000 A 
ENDBRANCH   4   7
BRANCH   1  13
ATOM     13  O   UNL     1       0.249  10.335  20.124  0.00  0.00    +0.000 OA
BRANCH  13  14
ATOM     14  C   UNL     1      -0.224  11.248  19.112  0.00  0.00    +0.000 C 
BRANCH  14  16
ATOM     15  O   UNL     1      -2.156  12.339  20.069  0.00  0.00    +0.000 OA
ATOM     16  C   UNL     1      -1.718  11.533  19.217  0.00  0.00    +0.000 C 
ATOM     17  N   UNL     1      -2.541  10.913  18.301  0.00  0.00    +0.000 N 
ATOM     18  C   UNL     1      -2.089   9.952  17.303  0.00  0.00    +0.000 C 
ATOM     19  C   UNL     1      -2.473  10.420  15.909  0.00  0.00    +0.000 C 
ATOM     20  C   UNL     1      -3.980  10.667  15.829  0.00  0.00    +0.000 C 
ATOM     21  C   UNL     1      -4.467  11.589  16.951  0.00  0.00    +0.000 C 
ATOM     22  C   UNL     1      -3.978  11.136  18.326  0.00  0.00    +0.000 C 
ENDBRANCH  14  16
ENDBRANCH  13  14
ENDBRANCH   1  13
TORSDOF 4
ENDMDL
MODEL 5
REMARK VINA RESULT:      -7.6      4.681      6.492
REMARK  Name = 
REMARK  4 active torsions:
REMARK  status: ('A' for Active; 'I' for Inactive)
REMARK    1  A    between atoms: C_2  and  C_3
REMARK    2  A    between atoms: C_3  and  O_4
REMARK    3  A    between atoms: O_4  and  C_5
REMARK    4  A    between atoms: C_8  and  C_9
REMARK                            x       y       z     vdW  Elec       q    Type
REMARK                         _______ _______ _______ _____ _____    ______ ____
ROOT
ATOM      1  C   UNL     1       6.871   5.878  17.815  0.00  0.00    +0.000 A 
ATOM      2  C   UNL     1       6.494   6.981  17.068  0.00  0.00    +0.000 A 
ATOM      3  C   UNL     1       7.077   8.215  17.261  0.00  0.00    +0.000 A 
ATOM      4  C   UNL     1       8.059   8.413  18.250  0.00  0.00    +0.000 A 
ATOM      5  C   UNL     1       8.437   7.299  19.013  0.00  0.00    +0.000 A 
ATOM      6  C   UNL     1       7.852   6.035  18.809  0.00  0.00    +0.000 A 
ENDROOT
BRANCH   4   7
ATOM      7  C   UNL     1       8.652   9.748  18.437  0.00  0.00    +0.000 A 
ATOM      8  C   UNL     1       9.504  10.007  19.528  0.00  0.00    +0.000 A 
ATOM      9  C   UNL     1      10.025  11.278  19.759  0.00  0.00    +0.000 A 
ATOM     10  C   UNL     1       9.715  12.320  18.894  0.00  0.00    +0.000 A 
ATOM     11  C   UNL     1       8.893  12.087  17.793  0.00  0.00    +0.000 A 
ATOM     12  C   UNL     1       8.369  10.813  17.569  0.00  0.00    +0.000 A 
ENDBRANCH   4   7
BRANCH   1  13
ATOM     13  O   UNL     1       6.314   4.641  17.550  0.00  0.00    +0.000 OA
BRANCH  13  14
ATOM     14  C   UNL     1       5.346   4.248  18.544  0.00  0.00    +0.000 C 
BRANCH  14  16
ATOM     15  O   UNL     1       3.825   3.664  16.759  0.00  0.00    +0.000 OA
ATOM     16  C   UNL     1       3.961   3.994  17.959  0.00  0.00    +0.000 C 
ATOM     17  N   UNL     1       2.889   4.087  18.821  0.00  0.00    +0.000 N 
ATOM     18  C   UNL     1       2.987   4.487  20.219  0.00  0.00    +0.000 C 
ATOM     19  C   UNL     1       2.400   3.411  21.117  0.00  0.00    +0.000 C 
ATOM     20  C   UNL     1       0.960   3.104  20.705  0.00  0.00    +0.000 C 
ATOM     21  C   UNL     1       0.847   2.795  19.209  0.00  0.00    +0.000 C 
ATOM     22  C   UNL     1       1.535   3.853  18.347  0.00  0.00    +0.000 C 
ENDBRANCH  14  16
ENDBRANCH  13  14
ENDBRANCH   1  13
TORSDOF 4
ENDMDL
MODEL 6
REMARK VINA RESULT:      -7.5      4.961      6.413
REMARK  Name = 
REMARK  4 active torsions:
REMARK  status: ('A' for Active; 'I' for Inactive)
REMARK    1  A    between atoms: C_2  and  C_3
REMARK    2  A    between atoms: C_3  and  O_4
REMARK    3  A    between atoms: O_4  and  C_5
REMARK    4  A    between atoms: C_8  and  C_9
REMARK                            x       y       z     vdW  Elec       q    Type
REMARK                         _______ _______ _______ _____ _____    ______ ____
ROOT
ATOM      1  C   UNL     1       7.105   5.768  17.687  0.00  0.00    +0.000 A 
ATOM      2  C   UNL     1       6.774   6.851  16.892  0.00  0.00    +0.000 A 
ATOM      3  C   UNL     1       7.275   8.109  17.143  0.00  0.00    +0.000 A 
ATOM      4  C   UNL     1       8.121   8.354  18.241  0.00  0.00    +0.000 A 
ATOM      5  C   UNL     1       8.452   7.260  19.054  0.00  0.00    +0.000 A 
ATOM      6  C   UNL     1       7.952   5.971  18.791  0.00  0.00    +0.000 A 
ENDROOT
BRANCH   4   7
ATOM      7  C   UNL     1       8.629   9.714  18.486  0.00  0.00    +0.000 A 
ATOM      8  C   UNL     1       8.295  10.771  17.619  0.00  0.00    +0.000 A 
ATOM      9  C   UNL     1       8.815  12.052  17.796  0.00  0.00    +0.000 A 
ATOM     10  C   UNL     1       9.676  12.307  18.857  0.00  0.00    +0.000 A 
ATOM     11  C   UNL     1      10.006  11.285  19.745  0.00  0.00    +0.000 A 
ATOM     12  C   UNL     1       9.486  10.003  19.559  0.00  0.00    +0.000 A 
ENDBRANCH   4   7
BRANCH   1  13
ATOM     13  O   UNL     1       6.640   4.506  17.368  0.00  0.00    +0.000 OA
BRANCH  13  14
ATOM     14  C   UNL     1       5.206   4.402  17.485  0.00  0.00    +0.000 C 
BRANCH  14  16
ATOM     15  O   UNL     1       5.510   3.580  19.736  0.00  0.00    +0.000 OA
ATOM     16  C   UNL     1       4.762   3.651  18.735  0.00  0.00    +0.000 C 
ATOM     17  N   UNL     1       3.492   3.114  18.727  0.00  0.00    +0.000 N 
ATOM     18  C   UNL     1       2.588   3.150  17.584  0.00  0.00    +0.000 C 
ATOM     19  C   UNL     1       1.278   3.817  17.970  0.00  0.00    +0.000 C 
ATOM     20  C   UNL     1       0.657   3.109  19.174  0.00  0.00    +0.000 C 
ATOM     21  C   UNL     1       1.650   2.974  20.332  0.00  0.00    +0.000 C 
ATOM     22  C   UNL     1       2.988   2.388  19.881  0.00  0.00    +0.000 C 
ENDBRANCH  14  16
ENDBRANCH  13  14
ENDBRANCH   1  13
TORSDOF 4
ENDMDL
MODEL 7
REMARK VINA RESULT:      -7.5      0.695      1.271
REMARK  Name = 
REMARK  4 active torsions:
REMARK  status: ('A' for Active; 'I' for Inactive)
REMARK    1  A    between atoms: C_2  and  C_3
REMARK    2  A    between atoms: C_3  and  O_4
REMARK    3  A    between atoms: O_4  and  C_5
REMARK    4  A    between atoms: C_8  and  C_9
REMARK                            x       y       z     vdW  Elec       q    Type
REMARK                         _______ _______ _______ _____ _____    ______ ____
ROOT
ATOM      1  C   UNL     1       2.437   7.936  18.721  0.00  0.00    +0.000 A 
ATOM      2  C   UNL     1       1.832   9.059  18.183  0.00  0.00    +0.000 A 
ATOM      3  C   UNL     1       0.972   9.838  18.925  0.00  0.00    +0.000 A 
ATOM      4  C   UNL     1       0.645   9.506  20.253  0.00  0.00    +0.000 A 
ATOM      5  C   UNL     1       1.250   8.364  20.798  0.00  0.00    +0.000 A 
ATOM      6  C   UNL     1       2.140   7.574  20.047  0.00  0.00    +0.000 A 
ENDROOT
BRANCH   4   7
ATOM      7  C   UNL     1      -0.288  10.355  21.013  0.00  0.00    +0.000 A 
ATOM      8  C   UNL     1      -1.012  11.377  20.371  0.00  0.00    +0.000 A 
ATOM      9  C   UNL     1      -1.851  12.233  21.081  0.00  0.00    +0.000 A 
ATOM     10  C   UNL     1      -1.996  12.077  22.454  0.00  0.00    +0.000 A 
ATOM     11  C   UNL     1      -1.309  11.059  23.113  0.00  0.00    +0.000 A 
ATOM     12  C   UNL     1      -0.464  10.208  22.397  0.00  0.00    +0.000 A 
ENDBRANCH   4   7
BRANCH   1  13
ATOM     13  O   UNL     1       3.348   7.215  17.971  0.00  0.00    +0.000 OA
BRANCH  13  14
ATOM     14  C   UNL     1       2.906   5.865  17.717  0.00  0.00    +0.000 C 
BRANCH  14  16
ATOM     15  O   UNL     1       4.893   4.902  18.698  0.00  0.00    +0.000 OA
ATOM     16  C   UNL     1       3.652   4.827  18.547  0.00  0.00    +0.000 C 
ATOM     17  N   UNL     1       2.895   3.852  19.161  0.00  0.00    +0.000 N 
ATOM     18  C   UNL     1       1.454   3.706  19.004  0.00  0.00    +0.000 C 
ATOM     19  C   UNL     1       0.769   3.755  20.358  0.00  0.00    +0.000 C 
ATOM     20  C   UNL     1       1.357   2.695  21.290  0.00  0.00    +0.000 C 
ATOM     21  C   UNL     1       2.884   2.783  21.362  0.00  0.00    +0.000 C 
ATOM     22  C   UNL     1       3.527   2.827  19.977  0.00  0.00    +0.000 C 
ENDBRANCH  14  16
ENDBRANCH  13  14
ENDBRANCH   1  13
TORSDOF 4
ENDMDL
MODEL 8
REMARK VINA RESULT:      -7.5      0.656      1.599
REMARK  Name = 
REMARK  4 active torsions:
REMARK  status: ('A' for Active; 'I' for Inactive)
REMARK    1  A    between atoms: C_2  and  C_3
REMARK    2  A    between atoms: C_3  and  O_4
REMARK    3  A    between atoms: O_4  and  C_5
REMARK    4  A    between atoms: C_8  and  C_9
REMARK                            x       y       z     vdW  Elec       q    Type
REMARK                         _______ _______ _______ _____ _____    ______ ____
ROOT
ATOM      1  C   UNL     1       2.474   7.907  18.675  0.00  0.00    +0.000 A 
ATOM      2  C   UNL     1       1.949   9.082  18.166  0.00  0.00    +0.000 A 
ATOM      3  C   UNL     1       1.119   9.885  18.917  0.00  0.00    +0.000 A 
ATOM      4  C   UNL     1       0.743   9.527  20.225  0.00  0.00    +0.000 A 
ATOM      5  C   UNL     1       1.266   8.333  20.740  0.00  0.00    +0.000 A 
ATOM      6  C   UNL     1       2.125   7.517  19.980  0.00  0.00    +0.000 A 
ENDROOT
BRANCH   4   7
ATOM      7  C   UNL     1      -0.156  10.403  20.995  0.00  0.00    +0.000 A 
ATOM      8  C   UNL     1      -0.366  10.184  22.370  0.00  0.00    +0.000 A 
ATOM      9  C   UNL     1      -1.260  10.960  23.104  0.00  0.00    +0.000 A 
ATOM     10  C   UNL     1      -1.958  11.987  22.479  0.00  0.00    +0.000 A 
ATOM     11  C   UNL     1      -1.753  12.241  21.124  0.00  0.00    +0.000 A 
ATOM     12  C   UNL     1      -0.860  11.456  20.393  0.00  0.00    +0.000 A 
ENDBRANCH   4   7
BRANCH   1  13
ATOM     13  O   UNL     1       3.358   7.160  17.919  0.00  0.00    +0.000 OA
BRANCH  13  14
ATOM     14  C   UNL     1       2.881   5.819  17.679  0.00  0.00    +0.000 C 
BRANCH  14  16
ATOM     15  O   UNL     1       4.872   4.809  18.603  0.00  0.00    +0.000 OA
ATOM     16  C   UNL     1       3.625   4.767  18.493  0.00  0.00    +0.000 C 
ATOM     17  N   UNL     1       2.863   3.817  19.139  0.00  0.00    +0.000 N 
ATOM     18  C   UNL     1       1.413   3.710  19.030  0.00  0.00    +0.000 C 
ATOM     19  C   UNL     1       0.774   3.787  20.406  0.00  0.00    +0.000 C 
ATOM     20  C   UNL     1       1.364   2.718  21.326  0.00  0.00    +0.000 C 
ATOM     21  C   UNL     1       2.895   2.765  21.348  0.00  0.00    +0.000 C 
ATOM     22  C   UNL     1       3.493   2.782  19.942  0.00  0.00    +0.000 C 
ENDBRANCH  14  16
ENDBRANCH  13  14
ENDBRANCH   1  13
TORSDOF 4
ENDMDL
MODEL 9
REMARK VINA RESULT:      -7.5      4.001      8.019
REMARK  Name = 
REMARK  4 active torsions:
REMARK  status: ('A' for Active; 'I' for Inactive)
REMARK    1  A    between atoms: C_2  and  C_3
REMARK    2  A    between atoms: C_3  and  O_4
REMARK    3  A    between atoms: O_4  and  C_5
REMARK    4  A    between atoms: C_8  and  C_9
REMARK                            x       y       z     vdW  Elec       q    Type
REMARK                         _______ _______ _______ _____ _____    ______ ____
ROOT
ATOM      1  C   UNL     1       0.921   9.441  19.520  0.00  0.00    +0.000 A 
ATOM      2  C   UNL     1       1.355   8.356  20.262  0.00  0.00    +0.000 A 
ATOM      3  C   UNL     1       2.184   7.398  19.720  0.00  0.00    +0.000 A 
ATOM      4  C   UNL     1       2.599   7.466  18.377  0.00  0.00    +0.000 A 
ATOM      5  C   UNL     1       2.155   8.560  17.621  0.00  0.00    +0.000 A 
ATOM      6  C   UNL     1       1.319   9.546  18.176  0.00  0.00    +0.000 A 
ENDROOT
BRANCH   4   7
ATOM      7  C   UNL     1       3.477   6.418  17.827  0.00  0.00    +0.000 A 
ATOM      8  C   UNL     1       4.676   6.758  17.174  0.00  0.00    +0.000 A 
ATOM      9  C   UNL     1       5.489   5.788  16.590  0.00  0.00    +0.000 A 
ATOM     10  C   UNL     1       5.124   4.449  16.659  0.00  0.00    +0.000 A 
ATOM     11  C   UNL     1       3.954   4.081  17.320  0.00  0.00    +0.000 A 
ATOM     12  C   UNL     1       3.140   5.058  17.897  0.00  0.00    +0.000 A 
ENDBRANCH   4   7
BRANCH   1  13
ATOM     13  O   UNL     1       0.145  10.419  20.114  0.00  0.00    +0.000 OA
BRANCH  13  14
ATOM     14  C   UNL     1      -0.324  11.400  19.166  0.00  0.00    +0.000 C 
BRANCH  14  16
ATOM     15  O   UNL     1      -2.302  12.419  20.109  0.00  0.00    +0.000 OA
ATOM     16  C   UNL     1      -1.828  11.640  19.252  0.00  0.00    +0.000 C 
ATOM     17  N   UNL     1      -2.618  11.010  18.314  0.00  0.00    +0.000 N 
ATOM     18  C   UNL     1      -2.122  10.079  17.309  0.00  0.00    +0.000 C 
ATOM     19  C   UNL     1      -2.499  10.557  15.917  0.00  0.00    +0.000 C 
ATOM     20  C   UNL     1      -4.011  10.761  15.817  0.00  0.00    +0.000 C 
ATOM     21  C   UNL     1      -4.542  11.651  16.945  0.00  0.00    +0.000 C 
ATOM     22  C   UNL     1      -4.061  11.191  18.320  0.00  0.00    +0.000 C 
ENDBRANCH  14  16
ENDBRANCH  13  14
ENDBRANCH   1  13
TORSDOF 4
ENDMDL
