MODEL 1
REMARK VINA RESULT:      -8.8      0.000      0.000
REMARK  Name = 
REMARK  2 active torsions:
REMARK  status: ('A' for Active; 'I' for Inactive)
REMARK    1  A    between atoms: C_5  and  N_6
REMARK    2  A    between atoms: C_10  and  C_11
REMARK                            x       y       z     vdW  Elec       q    Type
REMARK                         _______ _______ _______ _____ _____    ______ ____
ROOT
ATOM      1  N   UNL     1       6.315   7.174  16.659  0.00  0.00    +0.000 N 
ATOM      2  C   UNL     1       7.293   7.606  17.482  0.00  0.00    +0.000 A 
ATOM      3  N   UNL     1       7.927   6.951  18.463  0.00  0.00    +0.000 NA
ATOM      4  O   UNL     1       8.738   7.913  19.040  0.00  0.00    +0.000 OA
ATOM      5  C   UNL     1       8.521   9.068  18.347  0.00  0.00    +0.000 A 
ATOM      6  N   UNL     1       7.667   8.919  17.358  0.00  0.00    +0.000 NA
ATOM      7  H   UNL     1       5.995   7.869  15.995  0.00  0.00    +0.000 HD
ENDROOT
BRANCH   5   8
ATOM      8  C   UNL     1       9.222  10.252  18.822  0.00  0.00    +0.000 A 
ATOM      9  C   UNL     1       9.311  10.501  20.211  0.00  0.00    +0.000 A 
ATOM     10  C   UNL     1       9.985  11.624  20.707  0.00  0.00    +0.000 A 
ATOM     11  C   UNL     1      10.559  12.478  19.793  0.00  0.00    +0.000 A 
ATOM     12  C   UNL     1      10.485  12.246  18.441  0.00  0.00    +0.000 A 
ATOM     13  C   UNL     1       9.832  11.147  17.924  0.00  0.00    +0.000 A 
ATOM     14  O   UNL     1      11.116  13.204  17.712  0.00  0.00    +0.000 OA
ATOM     15  C   UNL     1      11.564  14.090  18.759  0.00  0.00    +0.000 C 
ATOM     16  O   UNL     1      11.244  13.614  20.085  0.00  0.00    +0.000 OA
ENDBRANCH   5   8
BRANCH   1  21
ATOM     17 CL   UNL     1       2.814   2.430  17.538  0.00  0.00    +0.000 Cl
ATOM     18  C   UNL     1       3.767   3.842  17.255  0.00  0.00    +0.000 A 
ATOM     19  C   UNL     1       4.886   3.716  16.437  0.00  0.00    +0.000 A 
ATOM     20  C   UNL     1       5.711   4.819  16.203  0.00  0.00    +0.000 A 
ATOM     21  C   UNL     1       5.453   6.065  16.791  0.00  0.00    +0.000 A 
ATOM     22  C   UNL     1       4.298   6.186  17.578  0.00  0.00    +0.000 A 
ATOM     23  C   UNL     1       3.463   5.084  17.817  0.00  0.00    +0.000 A 
ATOM     24 CL   UNL     1       2.088   5.326  18.836  0.00  0.00    +0.000 Cl
ENDBRANCH   1  21
TORSDOF 2
ENDMDL
MODEL 2
REMARK VINA RESULT:      -8.3      4.530      9.205
REMARK  Name = 
REMARK  2 active torsions:
REMARK  status: ('A' for Active; 'I' for Inactive)
REMARK    1  A    between atoms: C_5  and  N_6
REMARK    2  A    between atoms: C_10  and  C_11
REMARK                            x       y       z     vdW  Elec       q    Type
REMARK                         _______ _______ _______ _____ _____    ______ ____
ROOT
ATOM      1  N   UNL     1       9.214   8.964  19.056  0.00  0.00    +0.000 N 
ATOM      2  C   UNL     1       8.269   8.356  18.310  0.00  0.00    +0.000 A 
ATOM      3  N   UNL     1       7.539   8.847  17.300  0.00  0.00    +0.000 NA
ATOM      4  O   UNL     1       6.658   7.824  16.994  0.00  0.00    +0.000 OA
ATOM      5  C   UNL     1       6.939   6.802  17.852  0.00  0.00    +0.000 A 
ATOM      6  N   UNL     1       7.946   7.069  18.656  0.00  0.00    +0.000 NA
ATOM      7  H   UNL     1       9.622   8.373  19.771  0.00  0.00    +0.000 HD
ENDROOT
BRANCH   5   8
ATOM      8  C   UNL     1       6.084   5.627  17.765  0.00  0.00    +0.000 A 
ATOM      9  C   UNL     1       5.599   5.208  16.504  0.00  0.00    +0.000 A 
ATOM     10  C   UNL     1       4.782   4.078  16.378  0.00  0.00    +0.000 A 
ATOM     11  C   UNL     1       4.467   3.387  17.527  0.00  0.00    +0.000 A 
ATOM     12  C   UNL     1       4.936   3.779  18.757  0.00  0.00    +0.000 A 
ATOM     13  C   UNL     1       5.745   4.885  18.911  0.00  0.00    +0.000 A 
ATOM     14  O   UNL     1       4.515   2.964  19.760  0.00  0.00    +0.000 OA
ATOM     15  C   UNL     1       3.692   2.035  19.025  0.00  0.00    +0.000 C 
ATOM     16  O   UNL     1       3.688   2.277  17.601  0.00  0.00    +0.000 OA
ENDBRANCH   5   8
BRANCH   1  21
ATOM     17 CL   UNL     1      10.665  14.696  19.815  0.00  0.00    +0.000 Cl
ATOM     18  C   UNL     1      10.197  13.057  19.540  0.00  0.00    +0.000 A 
ATOM     19  C   UNL     1       9.682  12.340  20.616  0.00  0.00    +0.000 A 
ATOM     20  C   UNL     1       9.319  11.000  20.456  0.00  0.00    +0.000 A 
ATOM     21  C   UNL     1       9.476  10.340  19.230  0.00  0.00    +0.000 A 
ATOM     22  C   UNL     1       9.956  11.088  18.144  0.00  0.00    +0.000 A 
ATOM     23  C   UNL     1      10.322  12.434  18.296  0.00  0.00    +0.000 A 
ATOM     24 CL   UNL     1      10.943  13.257  16.908  0.00  0.00    +0.000 Cl
ENDBRANCH   1  21
TORSDOF 2
ENDMDL
MODEL 3
REMARK VINA RESULT:      -8.2      4.428      9.123
REMARK  Name = 
REMARK  2 active torsions:
REMARK  status: ('A' for Active; 'I' for Inactive)
REMARK    1  A    between atoms: C_5  and  N_6
REMARK    2  A    between atoms: C_10  and  C_11
REMARK                            x       y       z     vdW  Elec       q    Type
REMARK                         _______ _______ _______ _____ _____    ______ ____
ROOT
ATOM      1  N   UNL     1       9.002   8.674  19.001  0.00  0.00    +0.000 N 
ATOM      2  C   UNL     1       8.091   8.035  18.239  0.00  0.00    +0.000 A 
ATOM      3  N   UNL     1       7.463   8.456  17.134  0.00  0.00    +0.000 NA
ATOM      4  O   UNL     1       6.563   7.443  16.850  0.00  0.00    +0.000 OA
ATOM      5  C   UNL     1       6.734   6.494  17.815  0.00  0.00    +0.000 A 
ATOM      6  N   UNL     1       7.686   6.798  18.671  0.00  0.00    +0.000 NA
ATOM      7  H   UNL     1       9.328   8.137  19.796  0.00  0.00    +0.000 HD
ENDROOT
BRANCH   5   8
ATOM      8  C   UNL     1       5.837   5.348  17.765  0.00  0.00    +0.000 A 
ATOM      9  C   UNL     1       5.287   4.946  16.526  0.00  0.00    +0.000 A 
ATOM     10  C   UNL     1       4.429   3.843  16.436  0.00  0.00    +0.000 A 
ATOM     11  C   UNL     1       4.138   3.164  17.597  0.00  0.00    +0.000 A 
ATOM     12  C   UNL     1       4.670   3.541  18.807  0.00  0.00    +0.000 A 
ATOM     13  C   UNL     1       5.521   4.619  18.926  0.00  0.00    +0.000 A 
ATOM     14  O   UNL     1       4.262   2.741  19.827  0.00  0.00    +0.000 OA
ATOM     15  C   UNL     1       3.380   1.839  19.128  0.00  0.00    +0.000 C 
ATOM     16  O   UNL     1       3.326   2.080  17.705  0.00  0.00    +0.000 OA
ENDBRANCH   5   8
BRANCH   1  21
ATOM     17 CL   UNL     1       9.953  14.549  19.336  0.00  0.00    +0.000 Cl
ATOM     18  C   UNL     1       9.738  12.837  19.286  0.00  0.00    +0.000 A 
ATOM     19  C   UNL     1       9.755  12.217  18.039  0.00  0.00    +0.000 A 
ATOM     20  C   UNL     1       9.552  10.839  17.939  0.00  0.00    +0.000 A 
ATOM     21  C   UNL     1       9.310  10.049  19.071  0.00  0.00    +0.000 A 
ATOM     22  C   UNL     1       9.338  10.681  20.323  0.00  0.00    +0.000 A 
ATOM     23  C   UNL     1       9.543  12.065  20.433  0.00  0.00    +0.000 A 
ATOM     24 CL   UNL     1       9.516  12.756  22.018  0.00  0.00    +0.000 Cl
ENDBRANCH   1  21
TORSDOF 2
ENDMDL
MODEL 4
REMARK VINA RESULT:      -8.1      0.706      1.453
REMARK  Name = 
REMARK  2 active torsions:
REMARK  status: ('A' for Active; 'I' for Inactive)
REMARK    1  A    between atoms: C_5  and  N_6
REMARK    2  A    between atoms: C_10  and  C_11
REMARK                            x       y       z     vdW  Elec       q    Type
REMARK                         _______ _______ _______ _____ _____    ______ ____
ROOT
ATOM      1  N   UNL     1       6.371   7.157  16.611  0.00  0.00    +0.000 N 
ATOM      2  C   UNL     1       7.332   7.645  17.422  0.00  0.00    +0.000 A 
ATOM      3  N   UNL     1       7.974   7.045  18.432  0.00  0.00    +0.000 NA
ATOM      4  O   UNL     1       8.758   8.048  18.976  0.00  0.00    +0.000 OA
ATOM      5  C   UNL     1       8.518   9.169  18.237  0.00  0.00    +0.000 A 
ATOM      6  N   UNL     1       7.674   8.961  17.249  0.00  0.00    +0.000 NA
ATOM      7  H   UNL     1       6.039   7.818  15.918  0.00  0.00    +0.000 HD
ENDROOT
BRANCH   5   8
ATOM      8  C   UNL     1       9.187  10.388  18.669  0.00  0.00    +0.000 A 
ATOM      9  C   UNL     1      10.067  11.053  17.784  0.00  0.00    +0.000 A 
ATOM     10  C   UNL     1      10.721  12.233  18.158  0.00  0.00    +0.000 A 
ATOM     11  C   UNL     1      10.478  12.723  19.421  0.00  0.00    +0.000 A 
ATOM     12  C   UNL     1       9.622  12.090  20.290  0.00  0.00    +0.000 A 
ATOM     13  C   UNL     1       8.961  10.930  19.947  0.00  0.00    +0.000 A 
ATOM     14  O   UNL     1       9.518  12.735  21.482  0.00  0.00    +0.000 OA
ATOM     15  C   UNL     1      10.439  13.827  21.279  0.00  0.00    +0.000 C 
ATOM     16  O   UNL     1      11.024  13.845  19.959  0.00  0.00    +0.000 OA
ENDBRANCH   5   8
BRANCH   1  21
ATOM     17 CL   UNL     1       2.977   2.369  17.655  0.00  0.00    +0.000 Cl
ATOM     18  C   UNL     1       3.899   3.791  17.322  0.00  0.00    +0.000 A 
ATOM     19  C   UNL     1       5.034   3.657  16.529  0.00  0.00    +0.000 A 
ATOM     20  C   UNL     1       5.835   4.769  16.256  0.00  0.00    +0.000 A 
ATOM     21  C   UNL     1       5.535   6.034  16.781  0.00  0.00    +0.000 A 
ATOM     22  C   UNL     1       4.364   6.161  17.543  0.00  0.00    +0.000 A 
ATOM     23  C   UNL     1       3.554   5.049  17.820  0.00  0.00    +0.000 A 
ATOM     24 CL   UNL     1       2.155   5.302  18.805  0.00  0.00    +0.000 Cl
ENDBRANCH   1  21
TORSDOF 2
ENDMDL
MODEL 5
REMARK VINA RESULT:      -8.1      1.057      1.459
REMARK  Name = 
REMARK  2 active torsions:
REMARK  status: ('A' for Active; 'I' for Inactive)
REMARK    1  A    between atoms: C_5  and  N_6
REMARK    2  A    between atoms: C_10  and  C_11
REMARK                            x       y       z     vdW  Elec       q    Type
REMARK                         _______ _______ _______ _____ _____    ______ ____
ROOT
ATOM      1  N   UNL     1       5.811   6.832  16.924  0.00  0.00    +0.000 N 
ATOM      2  C   UNL     1       6.891   7.390  17.510  0.00  0.00    +0.000 A 
ATOM      3  N   UNL     1       7.749   6.858  18.389  0.00  0.00    +0.000 NA
ATOM      4  O   UNL     1       8.579   7.912  18.731  0.00  0.00    +0.000 OA
ATOM      5  C   UNL     1       8.144   8.992  18.020  0.00  0.00    +0.000 A 
ATOM      6  N   UNL     1       7.131   8.711  17.229  0.00  0.00    +0.000 NA
ATOM      7  H   UNL     1       5.317   7.450  16.292  0.00  0.00    +0.000 HD
ENDROOT
BRANCH   5   8
ATOM      8  C   UNL     1       8.828  10.253  18.269  0.00  0.00    +0.000 A 
ATOM      9  C   UNL     1       8.437  11.411  17.558  0.00  0.00    +0.000 A 
ATOM     10  C   UNL     1       9.063  12.644  17.777  0.00  0.00    +0.000 A 
ATOM     11  C   UNL     1      10.076  12.689  18.708  0.00  0.00    +0.000 A 
ATOM     12  C   UNL     1      10.462  11.572  19.409  0.00  0.00    +0.000 A 
ATOM     13  C   UNL     1       9.861  10.346  19.219  0.00  0.00    +0.000 A 
ATOM     14  O   UNL     1      11.474  11.828  20.280  0.00  0.00    +0.000 OA
ATOM     15  C   UNL     1      11.709  13.228  20.019  0.00  0.00    +0.000 C 
ATOM     16  O   UNL     1      10.799  13.788  19.048  0.00  0.00    +0.000 OA
ENDBRANCH   5   8
BRANCH   1  21
ATOM     17 CL   UNL     1       2.973   1.911  18.729  0.00  0.00    +0.000 Cl
ATOM     18  C   UNL     1       3.727   3.373  18.207  0.00  0.00    +0.000 A 
ATOM     19  C   UNL     1       4.451   3.341  17.018  0.00  0.00    +0.000 A 
ATOM     20  C   UNL     1       5.110   4.488  16.567  0.00  0.00    +0.000 A 
ATOM     21  C   UNL     1       5.079   5.685  17.296  0.00  0.00    +0.000 A 
ATOM     22  C   UNL     1       4.311   5.713  18.469  0.00  0.00    +0.000 A 
ATOM     23  C   UNL     1       3.645   4.566  18.929  0.00  0.00    +0.000 A 
ATOM     24 CL   UNL     1       2.760   4.692  20.409  0.00  0.00    +0.000 Cl
ENDBRANCH   1  21
TORSDOF 2
ENDMDL
MODEL 6
REMARK VINA RESULT:      -7.8      6.512      8.037
REMARK  Name = 
REMARK  2 active torsions:
REMARK  status: ('A' for Active; 'I' for Inactive)
REMARK    1  A    between atoms: C_5  and  N_6
REMARK    2  A    between atoms: C_10  and  C_11
REMARK                            x       y       z     vdW  Elec       q    Type
REMARK                         _______ _______ _______ _____ _____    ______ ____
ROOT
ATOM      1  N   UNL     1       2.878   5.941  19.581  0.00  0.00    +0.000 N 
ATOM      2  C   UNL     1       2.223   7.120  19.543  0.00  0.00    +0.000 A 
ATOM      3  N   UNL     1       2.138   8.012  18.549  0.00  0.00    +0.000 NA
ATOM      4  O   UNL     1       1.444   9.072  19.106  0.00  0.00    +0.000 OA
ATOM      5  C   UNL     1       1.170   8.720  20.394  0.00  0.00    +0.000 A 
ATOM      6  N   UNL     1       1.598   7.514  20.699  0.00  0.00    +0.000 NA
ATOM      7  H   UNL     1       2.792   5.446  20.461  0.00  0.00    +0.000 HD
ENDROOT
BRANCH   5   8
ATOM      8  C   UNL     1       0.497   9.719  21.212  0.00  0.00    +0.000 A 
ATOM      9  C   UNL     1      -0.242   9.310  22.346  0.00  0.00    +0.000 A 
ATOM     10  C   UNL     1      -0.895  10.242  23.163  0.00  0.00    +0.000 A 
ATOM     11  C   UNL     1      -0.792  11.571  22.822  0.00  0.00    +0.000 A 
ATOM     12  C   UNL     1      -0.073  11.983  21.727  0.00  0.00    +0.000 A 
ATOM     13  C   UNL     1       0.584  11.089  20.907  0.00  0.00    +0.000 A 
ATOM     14  O   UNL     1      -0.093  13.333  21.567  0.00  0.00    +0.000 OA
ATOM     15  C   UNL     1      -0.942  13.723  22.666  0.00  0.00    +0.000 C 
ATOM     16  O   UNL     1      -1.359  12.611  23.489  0.00  0.00    +0.000 OA
ENDBRANCH   5   8
BRANCH   1  21
ATOM     17 CL   UNL     1       7.302   4.243  15.965  0.00  0.00    +0.000 Cl
ATOM     18  C   UNL     1       6.050   4.689  17.066  0.00  0.00    +0.000 A 
ATOM     19  C   UNL     1       4.732   4.486  16.667  0.00  0.00    +0.000 A 
ATOM     20  C   UNL     1       3.679   4.860  17.506  0.00  0.00    +0.000 A 
ATOM     21  C   UNL     1       3.913   5.460  18.751  0.00  0.00    +0.000 A 
ATOM     22  C   UNL     1       5.246   5.618  19.157  0.00  0.00    +0.000 A 
ATOM     23  C   UNL     1       6.309   5.244  18.322  0.00  0.00    +0.000 A 
ATOM     24 CL   UNL     1       7.916   5.520  18.896  0.00  0.00    +0.000 Cl
ENDBRANCH   1  21
TORSDOF 2
ENDMDL
MODEL 7
REMARK VINA RESULT:      -7.7      6.486      8.824
REMARK  Name = 
REMARK  2 active torsions:
REMARK  status: ('A' for Active; 'I' for Inactive)
REMARK    1  A    between atoms: C_5  and  N_6
REMARK    2  A    between atoms: C_10  and  C_11
REMARK                            x       y       z     vdW  Elec       q    Type
REMARK                         _______ _______ _______ _____ _____    ______ ____
ROOT
ATOM      1  N   UNL     1       1.050  10.055  18.825  0.00  0.00    +0.000 N 
ATOM      2  C   UNL     1       1.628   8.842  18.941  0.00  0.00    +0.000 A 
ATOM      3  N   UNL     1       1.786   8.077  20.029  0.00  0.00    +0.000 NA
ATOM      4  O   UNL     1       2.542   7.007  19.581  0.00  0.00    +0.000 OA
ATOM      5  C   UNL     1       2.770   7.224  18.254  0.00  0.00    +0.000 A 
ATOM      6  N   UNL     1       2.198   8.321  17.807  0.00  0.00    +0.000 NA
ATOM      7  H   UNL     1       1.059  10.431  17.885  0.00  0.00    +0.000 HD
ENDROOT
BRANCH   5   8
ATOM      8  C   UNL     1       3.614   6.252  17.573  0.00  0.00    +0.000 A 
ATOM      9  C   UNL     1       3.343   4.871  17.714  0.00  0.00    +0.000 A 
ATOM     10  C   UNL     1       4.125   3.907  17.067  0.00  0.00    +0.000 A 
ATOM     11  C   UNL     1       5.170   4.351  16.288  0.00  0.00    +0.000 A 
ATOM     12  C   UNL     1       5.441   5.689  16.138  0.00  0.00    +0.000 A 
ATOM     13  C   UNL     1       4.685   6.661  16.759  0.00  0.00    +0.000 A 
ATOM     14  O   UNL     1       6.508   5.917  15.328  0.00  0.00    +0.000 OA
ATOM     15  C   UNL     1       6.904   4.565  15.015  0.00  0.00    +0.000 C 
ATOM     16  O   UNL     1       6.035   3.567  15.593  0.00  0.00    +0.000 OA
ENDBRANCH   5   8
BRANCH   1  21
ATOM     17 CL   UNL     1      -0.519  14.128  22.885  0.00  0.00    +0.000 Cl
ATOM     18  C   UNL     1      -0.035  12.906  21.766  0.00  0.00    +0.000 A 
ATOM     19  C   UNL     1       0.807  13.278  20.722  0.00  0.00    +0.000 A 
ATOM     20  C   UNL     1       1.202  12.336  19.769  0.00  0.00    +0.000 A 
ATOM     21  C   UNL     1       0.754  11.009  19.822  0.00  0.00    +0.000 A 
ATOM     22  C   UNL     1      -0.059  10.639  20.904  0.00  0.00    +0.000 A 
ATOM     23  C   UNL     1      -0.459  11.579  21.866  0.00  0.00    +0.000 A 
ATOM     24 CL   UNL     1      -1.497  11.034  23.136  0.00  0.00    +0.000 Cl
ENDBRANCH   1  21
TORSDOF 2
ENDMDL
MODEL 8
REMARK VINA RESULT:      -7.6      6.682      8.927
REMARK  Name = 
REMARK  2 active torsions:
REMARK  status: ('A' for Active; 'I' for Inactive)
REMARK    1  A    between atoms: C_5  and  N_6
REMARK    2  A    between atoms: C_10  and  C_11
REMARK                            x       y       z     vdW  Elec       q    Type
REMARK                         _______ _______ _______ _____ _____    ______ ____
ROOT
ATOM      1  N   UNL     1       0.784   9.327  20.091  0.00  0.00    +0.000 N 
ATOM      2  C   UNL     1       1.633   8.989  19.099  0.00  0.00    +0.000 A 
ATOM      3  N   UNL     1       1.968   9.673  17.998  0.00  0.00    +0.000 NA
ATOM      4  O   UNL     1       2.777   8.800  17.291  0.00  0.00    +0.000 OA
ATOM      5  C   UNL     1       2.859   7.661  18.037  0.00  0.00    +0.000 A 
ATOM      6  N   UNL     1       2.201   7.742  19.173  0.00  0.00    +0.000 NA
ATOM      7  H   UNL     1       0.697   8.628  20.819  0.00  0.00    +0.000 HD
ENDROOT
BRANCH   5   8
ATOM      8  C   UNL     1       3.611   6.557  17.457  0.00  0.00    +0.000 A 
ATOM      9  C   UNL     1       3.225   5.226  17.737  0.00  0.00    +0.000 A 
ATOM     10  C   UNL     1       3.917   4.138  17.190  0.00  0.00    +0.000 A 
ATOM     11  C   UNL     1       4.988   4.410  16.370  0.00  0.00    +0.000 A 
ATOM     12  C   UNL     1       5.371   5.699  16.086  0.00  0.00    +0.000 A 
ATOM     13  C   UNL     1       4.707   6.789  16.606  0.00  0.00    +0.000 A 
ATOM     14  O   UNL     1       6.447   5.752  15.257  0.00  0.00    +0.000 OA
ATOM     15  C   UNL     1       6.724   4.346  15.083  0.00  0.00    +0.000 C 
ATOM     16  O   UNL     1       5.778   3.489  15.758  0.00  0.00    +0.000 OA
ENDBRANCH   5   8
BRANCH   1  21
ATOM     17 CL   UNL     1      -3.712  13.232  20.353  0.00  0.00    +0.000 Cl
ATOM     18  C   UNL     1      -2.361  12.158  20.294  0.00  0.00    +0.000 A 
ATOM     19  C   UNL     1      -2.150  11.446  19.117  0.00  0.00    +0.000 A 
ATOM     20  C   UNL     1      -1.091  10.538  19.028  0.00  0.00    +0.000 A 
ATOM     21  C   UNL     1      -0.232  10.306  20.110  0.00  0.00    +0.000 A 
ATOM     22  C   UNL     1      -0.433  11.063  21.274  0.00  0.00    +0.000 A 
ATOM     23  C   UNL     1      -1.492  11.977  21.372  0.00  0.00    +0.000 A 
ATOM     24 CL   UNL     1      -1.680  12.829  22.865  0.00  0.00    +0.000 Cl
ENDBRANCH   1  21
TORSDOF 2
ENDMDL
MODEL 9
REMARK VINA RESULT:      -7.6      6.573      8.901
REMARK  Name = 
REMARK  2 active torsions:
REMARK  status: ('A' for Active; 'I' for Inactive)
REMARK    1  A    between atoms: C_5  and  N_6
REMARK    2  A    between atoms: C_10  and  C_11
REMARK                            x       y       z     vdW  Elec       q    Type
REMARK                         _______ _______ _______ _____ _____    ______ ____
ROOT
ATOM      1  N   UNL     1       1.067  10.477  18.367  0.00  0.00    +0.000 N 
ATOM      2  C   UNL     1       1.571   9.243  18.578  0.00  0.00    +0.000 A 
ATOM      3  N   UNL     1       1.575   8.508  19.698  0.00  0.00    +0.000 NA
ATOM      4  O   UNL     1       2.322   7.391  19.365  0.00  0.00    +0.000 OA
ATOM      5  C   UNL     1       2.701   7.554  18.065  0.00  0.00    +0.000 A 
ATOM      6  N   UNL     1       2.233   8.661  17.528  0.00  0.00    +0.000 NA
ATOM      7  H   UNL     1       1.196  10.821  17.423  0.00  0.00    +0.000 HD
ENDROOT
BRANCH   5   8
ATOM      8  C   UNL     1       3.566   6.524  17.506  0.00  0.00    +0.000 A 
ATOM      9  C   UNL     1       3.235   5.161  17.688  0.00  0.00    +0.000 A 
ATOM     10  C   UNL     1       4.036   4.142  17.158  0.00  0.00    +0.000 A 
ATOM     11  C   UNL     1       5.158   4.514  16.454  0.00  0.00    +0.000 A 
ATOM     12  C   UNL     1       5.488   5.834  16.264  0.00  0.00    +0.000 A 
ATOM     13  C   UNL     1       4.717   6.858  16.770  0.00  0.00    +0.000 A 
ATOM     14  O   UNL     1       6.628   5.988  15.541  0.00  0.00    +0.000 OA
ATOM     15  C   UNL     1       7.002   4.610  15.329  0.00  0.00    +0.000 C 
ATOM     16  O   UNL     1       6.052   3.670  15.874  0.00  0.00    +0.000 OA
ENDBRANCH   5   8
BRANCH   1  21
ATOM     17 CL   UNL     1      -0.287  14.492  22.560  0.00  0.00    +0.000 Cl
ATOM     18  C   UNL     1       0.128  13.387  21.300  0.00  0.00    +0.000 A 
ATOM     19  C   UNL     1      -0.867  12.534  20.831  0.00  0.00    +0.000 A 
ATOM     20  C   UNL     1      -0.577  11.597  19.836  0.00  0.00    +0.000 A 
ATOM     21  C   UNL     1       0.712  11.475  19.299  0.00  0.00    +0.000 A 
ATOM     22  C   UNL     1       1.694  12.369  19.752  0.00  0.00    +0.000 A 
ATOM     23  C   UNL     1       1.410  13.314  20.750  0.00  0.00    +0.000 A 
ATOM     24 CL   UNL     1       2.698  14.342  21.270  0.00  0.00    +0.000 Cl
ENDBRANCH   1  21
TORSDOF 2
ENDMDL
