MODEL 1
REMARK VINA RESULT:      -5.5      0.000      0.000
REMARK  Name = 
REMARK  12 active torsions:
REMARK  status: ('A' for Active; 'I' for Inactive)
REMARK    1  A    between atoms: C_1  and  S_2
REMARK    2  A    between atoms: S_2  and  O_5
REMARK    3  A    between atoms: O_5  and  C_6
REMARK    4  A    between atoms: C_6  and  C_7
REMARK    5  A    between atoms: C_7  and  C_8
REMARK    6  A    between atoms: C_8  and  N_9
REMARK    7  A    between atoms: N_9  and  C_10
REMARK    8  A    between atoms: C_10  and  C_11
REMARK    9  A    between atoms: C_11  and  C_12
REMARK   10  A    between atoms: C_12  and  O_13
REMARK   11  A    between atoms: O_13  and  S_14
REMARK   12  A    between atoms: S_14  and  C_15
REMARK                            x       y       z     vdW  Elec       q    Type
REMARK                         _______ _______ _______ _____ _____    ______ ____
ROOT
ATOM      1  N   UNL     1       4.351   4.369  17.435  0.00  0.00    +0.000 NA
ATOM      2  H   UNL     1       5.354   4.384  17.622  0.00  0.00    +0.000 HD
ENDROOT
BRANCH   1   3
ATOM      3  C   UNL     1       3.759   5.652  17.833  0.00  0.00    +0.000 C 
BRANCH   3   4
ATOM      4  C   UNL     1       4.428   6.841  17.144  0.00  0.00    +0.000 C 
BRANCH   4   5
ATOM      5  C   UNL     1       5.860   6.478  16.757  0.00  0.00    +0.000 C 
BRANCH   5   6
ATOM      6  O   UNL     1       5.962   6.103  15.384  0.00  0.00    +0.000 OA
BRANCH   6   8
ATOM      7  C   UNL     1       6.163   3.732  14.349  0.00  0.00    +0.000 C 
ATOM      8  S   UNL     1       7.150   5.040  15.035  0.00  0.00    +0.000 S 
ATOM      9  O   UNL     1       7.728   4.578  16.277  0.00  0.00    +0.000 OA
ATOM     10  O   UNL     1       7.967   5.601  13.975  0.00  0.00    +0.000 OA
ENDBRANCH   6   8
ENDBRANCH   5   6
ENDBRANCH   4   5
ENDBRANCH   3   4
ENDBRANCH   1   3
BRANCH   1  11
ATOM     11  C   UNL     1       3.721   3.287  18.199  0.00  0.00    +0.000 C 
BRANCH  11  12
ATOM     12  C   UNL     1       2.279   3.032  17.761  0.00  0.00    +0.000 C 
BRANCH  12  13
ATOM     13  C   UNL     1       1.337   3.228  18.952  0.00  0.00    +0.000 C 
BRANCH  13  14
ATOM     14  O   UNL     1       1.562   2.219  19.929  0.00  0.00    +0.000 OA
BRANCH  14  15
ATOM     15  S   UNL     1       2.078   2.706  21.397  0.00  0.00    +0.000 S 
ATOM     16  C   UNL     1       1.996   4.465  21.112  0.00  0.00    +0.000 C 
ATOM     17  O   UNL     1       1.075   2.358  22.386  0.00  0.00    +0.000 OA
ATOM     18  O   UNL     1       3.464   2.331  21.551  0.00  0.00    +0.000 OA
ENDBRANCH  14  15
ENDBRANCH  13  14
ENDBRANCH  12  13
ENDBRANCH  11  12
ENDBRANCH   1  11
TORSDOF 10
ENDMDL
MODEL 2
REMARK VINA RESULT:      -5.4      1.842      6.731
REMARK  Name = 
REMARK  12 active torsions:
REMARK  status: ('A' for Active; 'I' for Inactive)
REMARK    1  A    between atoms: C_1  and  S_2
REMARK    2  A    between atoms: S_2  and  O_5
REMARK    3  A    between atoms: O_5  and  C_6
REMARK    4  A    between atoms: C_6  and  C_7
REMARK    5  A    between atoms: C_7  and  C_8
REMARK    6  A    between atoms: C_8  and  N_9
REMARK    7  A    between atoms: N_9  and  C_10
REMARK    8  A    between atoms: C_10  and  C_11
REMARK    9  A    between atoms: C_11  and  C_12
REMARK   10  A    between atoms: C_12  and  O_13
REMARK   11  A    between atoms: O_13  and  S_14
REMARK   12  A    between atoms: S_14  and  C_15
REMARK                            x       y       z     vdW  Elec       q    Type
REMARK                         _______ _______ _______ _____ _____    ______ ____
ROOT
ATOM      1  N   UNL     1       4.937   3.466  16.856  0.00  0.00    +0.000 NA
ATOM      2  H   UNL     1       5.138   2.475  16.714  0.00  0.00    +0.000 HD
ENDROOT
BRANCH   1   3
ATOM      3  C   UNL     1       3.596   3.616  17.433  0.00  0.00    +0.000 C 
BRANCH   3   4
ATOM      4  C   UNL     1       2.883   2.276  17.606  0.00  0.00    +0.000 C 
BRANCH   4   5
ATOM      5  C   UNL     1       2.927   1.850  19.073  0.00  0.00    +0.000 C 
BRANCH   5   6
ATOM      6  O   UNL     1       3.199   2.951  19.939  0.00  0.00    +0.000 OA
BRANCH   6   8
ATOM      7  C   UNL     1       2.047   5.130  20.748  0.00  0.00    +0.000 C 
ATOM      8  S   UNL     1       1.984   3.365  20.946  0.00  0.00    +0.000 S 
ATOM      9  O   UNL     1       2.380   3.039  22.297  0.00  0.00    +0.000 OA
ATOM     10  O   UNL     1       0.738   2.885  20.379  0.00  0.00    +0.000 OA
ENDBRANCH   6   8
ENDBRANCH   5   6
ENDBRANCH   4   5
ENDBRANCH   3   4
ENDBRANCH   1   3
BRANCH   1  11
ATOM     11  C   UNL     1       4.993   4.171  15.571  0.00  0.00    +0.000 C 
BRANCH  11  12
ATOM     12  C   UNL     1       6.312   3.929  14.836  0.00  0.00    +0.000 C 
BRANCH  12  13
ATOM     13  C   UNL     1       7.360   4.937  15.317  0.00  0.00    +0.000 C 
BRANCH  13  14
ATOM     14  O   UNL     1       7.415   4.949  16.739  0.00  0.00    +0.000 OA
BRANCH  14  15
ATOM     15  S   UNL     1       7.123   6.371  17.482  0.00  0.00    +0.000 S 
ATOM     16  C   UNL     1       7.935   6.009  19.028  0.00  0.00    +0.000 C 
ATOM     17  O   UNL     1       7.871   7.415  16.808  0.00  0.00    +0.000 OA
ATOM     18  O   UNL     1       5.704   6.485  17.726  0.00  0.00    +0.000 OA
ENDBRANCH  14  15
ENDBRANCH  13  14
ENDBRANCH  12  13
ENDBRANCH  11  12
ENDBRANCH   1  11
TORSDOF 10
ENDMDL
MODEL 3
REMARK VINA RESULT:      -5.4      1.289      2.007
REMARK  Name = 
REMARK  12 active torsions:
REMARK  status: ('A' for Active; 'I' for Inactive)
REMARK    1  A    between atoms: C_1  and  S_2
REMARK    2  A    between atoms: S_2  and  O_5
REMARK    3  A    between atoms: O_5  and  C_6
REMARK    4  A    between atoms: C_6  and  C_7
REMARK    5  A    between atoms: C_7  and  C_8
REMARK    6  A    between atoms: C_8  and  N_9
REMARK    7  A    between atoms: N_9  and  C_10
REMARK    8  A    between atoms: C_10  and  C_11
REMARK    9  A    between atoms: C_11  and  C_12
REMARK   10  A    between atoms: C_12  and  O_13
REMARK   11  A    between atoms: O_13  and  S_14
REMARK   12  A    between atoms: S_14  and  C_15
REMARK                            x       y       z     vdW  Elec       q    Type
REMARK                         _______ _______ _______ _____ _____    ______ ____
ROOT
ATOM      1  N   UNL     1       2.914   5.130  18.046  0.00  0.00    +0.000 NA
ATOM      2  H   UNL     1       3.113   4.633  18.915  0.00  0.00    +0.000 HD
ENDROOT
BRANCH   1   3
ATOM      3  C   UNL     1       4.146   5.253  17.258  0.00  0.00    +0.000 C 
BRANCH   3   4
ATOM      4  C   UNL     1       4.810   6.618  17.426  0.00  0.00    +0.000 C 
BRANCH   4   5
ATOM      5  C   UNL     1       6.176   6.618  16.741  0.00  0.00    +0.000 C 
BRANCH   5   6
ATOM      6  O   UNL     1       6.096   6.160  15.392  0.00  0.00    +0.000 OA
BRANCH   6   8
ATOM      7  C   UNL     1       6.065   3.849  14.213  0.00  0.00    +0.000 C 
ATOM      8  S   UNL     1       7.174   5.007  14.980  0.00  0.00    +0.000 S 
ATOM      9  O   UNL     1       7.693   4.414  16.190  0.00  0.00    +0.000 OA
ATOM     10  O   UNL     1       8.050   5.547  13.957  0.00  0.00    +0.000 OA
ENDBRANCH   6   8
ENDBRANCH   5   6
ENDBRANCH   4   5
ENDBRANCH   3   4
ENDBRANCH   1   3
BRANCH   1  11
ATOM     11  C   UNL     1       2.397   6.469  18.350  0.00  0.00    +0.000 C 
BRANCH  11  12
ATOM     12  C   UNL     1       2.260   6.708  19.854  0.00  0.00    +0.000 C 
BRANCH  12  13
ATOM     13  C   UNL     1       1.669   5.462  20.521  0.00  0.00    +0.000 C 
BRANCH  13  14
ATOM     14  O   UNL     1       2.708   4.654  21.062  0.00  0.00    +0.000 OA
BRANCH  14  15
ATOM     15  S   UNL     1       2.578   3.042  20.857  0.00  0.00    +0.000 S 
ATOM     16  C   UNL     1       0.914   3.010  20.216  0.00  0.00    +0.000 C 
ATOM     17  O   UNL     1       3.481   2.628  19.799  0.00  0.00    +0.000 OA
ATOM     18  O   UNL     1       2.581   2.406  22.154  0.00  0.00    +0.000 OA
ENDBRANCH  14  15
ENDBRANCH  13  14
ENDBRANCH  12  13
ENDBRANCH  11  12
ENDBRANCH   1  11
TORSDOF 10
ENDMDL
MODEL 4
REMARK VINA RESULT:      -5.4      1.753      6.781
REMARK  Name = 
REMARK  12 active torsions:
REMARK  status: ('A' for Active; 'I' for Inactive)
REMARK    1  A    between atoms: C_1  and  S_2
REMARK    2  A    between atoms: S_2  and  O_5
REMARK    3  A    between atoms: O_5  and  C_6
REMARK    4  A    between atoms: C_6  and  C_7
REMARK    5  A    between atoms: C_7  and  C_8
REMARK    6  A    between atoms: C_8  and  N_9
REMARK    7  A    between atoms: N_9  and  C_10
REMARK    8  A    between atoms: C_10  and  C_11
REMARK    9  A    between atoms: C_11  and  C_12
REMARK   10  A    between atoms: C_12  and  O_13
REMARK   11  A    between atoms: O_13  and  S_14
REMARK   12  A    between atoms: S_14  and  C_15
REMARK                            x       y       z     vdW  Elec       q    Type
REMARK                         _______ _______ _______ _____ _____    ______ ____
ROOT
ATOM      1  N   UNL     1       5.171   3.354  18.833  0.00  0.00    +0.000 NA
ATOM      2  H   UNL     1       6.080   2.926  18.659  0.00  0.00    +0.000 HD
ENDROOT
BRANCH   1   3
ATOM      3  C   UNL     1       4.204   2.875  17.839  0.00  0.00    +0.000 C 
BRANCH   3   4
ATOM      4  C   UNL     1       3.228   3.966  17.402  0.00  0.00    +0.000 C 
BRANCH   4   5
ATOM      5  C   UNL     1       1.846   3.695  17.996  0.00  0.00    +0.000 C 
BRANCH   5   6
ATOM      6  O   UNL     1       1.927   2.972  19.223  0.00  0.00    +0.000 OA
BRANCH   6   8
ATOM      7  C   UNL     1       1.500   2.535  21.745  0.00  0.00    +0.000 C 
ATOM      8  S   UNL     1       1.697   3.857  20.574  0.00  0.00    +0.000 S 
ATOM      9  O   UNL     1       0.438   4.556  20.453  0.00  0.00    +0.000 OA
ATOM     10  O   UNL     1       2.932   4.556  20.878  0.00  0.00    +0.000 OA
ENDBRANCH   6   8
ENDBRANCH   5   6
ENDBRANCH   4   5
ENDBRANCH   3   4
ENDBRANCH   1   3
BRANCH   1  11
ATOM     11  C   UNL     1       5.285   4.814  18.733  0.00  0.00    +0.000 C 
BRANCH  11  12
ATOM     12  C   UNL     1       6.723   5.296  18.930  0.00  0.00    +0.000 C 
BRANCH  12  13
ATOM     13  C   UNL     1       7.606   4.753  17.803  0.00  0.00    +0.000 C 
BRANCH  13  14
ATOM     14  O   UNL     1       7.541   5.611  16.670  0.00  0.00    +0.000 OA
BRANCH  14  15
ATOM     15  S   UNL     1       6.825   5.019  15.330  0.00  0.00    +0.000 S 
ATOM     16  C   UNL     1       5.390   6.079  15.332  0.00  0.00    +0.000 C 
ATOM     17  O   UNL     1       7.638   5.355  14.176  0.00  0.00    +0.000 OA
ATOM     18  O   UNL     1       6.394   3.665  15.592  0.00  0.00    +0.000 OA
ENDBRANCH  14  15
ENDBRANCH  13  14
ENDBRANCH  12  13
ENDBRANCH  11  12
ENDBRANCH   1  11
TORSDOF 10
ENDMDL
MODEL 5
REMARK VINA RESULT:      -5.4      1.793      6.371
REMARK  Name = 
REMARK  12 active torsions:
REMARK  status: ('A' for Active; 'I' for Inactive)
REMARK    1  A    between atoms: C_1  and  S_2
REMARK    2  A    between atoms: S_2  and  O_5
REMARK    3  A    between atoms: O_5  and  C_6
REMARK    4  A    between atoms: C_6  and  C_7
REMARK    5  A    between atoms: C_7  and  C_8
REMARK    6  A    between atoms: C_8  and  N_9
REMARK    7  A    between atoms: N_9  and  C_10
REMARK    8  A    between atoms: C_10  and  C_11
REMARK    9  A    between atoms: C_11  and  C_12
REMARK   10  A    between atoms: C_12  and  O_13
REMARK   11  A    between atoms: O_13  and  S_14
REMARK   12  A    between atoms: S_14  and  C_15
REMARK                            x       y       z     vdW  Elec       q    Type
REMARK                         _______ _______ _______ _____ _____    ______ ____
ROOT
ATOM      1  N   UNL     1       5.294   4.945  18.938  0.00  0.00    +0.000 NA
ATOM      2  H   UNL     1       5.440   4.303  18.159  0.00  0.00    +0.000 HD
ENDROOT
BRANCH   1   3
ATOM      3  C   UNL     1       4.398   6.029  18.519  0.00  0.00    +0.000 C 
BRANCH   3   4
ATOM      4  C   UNL     1       3.147   6.121  19.392  0.00  0.00    +0.000 C 
BRANCH   4   5
ATOM      5  C   UNL     1       2.051   5.221  18.825  0.00  0.00    +0.000 C 
BRANCH   5   6
ATOM      6  O   UNL     1       2.547   3.925  18.490  0.00  0.00    +0.000 OA
BRANCH   6   8
ATOM      7  C   UNL     1       1.147   3.579  20.647  0.00  0.00    +0.000 C 
ATOM      8  S   UNL     1       2.397   2.795  19.657  0.00  0.00    +0.000 S 
ATOM      9  O   UNL     1       3.626   2.756  20.416  0.00  0.00    +0.000 OA
ATOM     10  O   UNL     1       1.828   1.600  19.064  0.00  0.00    +0.000 OA
ENDBRANCH   6   8
ENDBRANCH   5   6
ENDBRANCH   4   5
ENDBRANCH   3   4
ENDBRANCH   1   3
BRANCH   1  11
ATOM     11  C   UNL     1       6.579   5.514  19.358  0.00  0.00    +0.000 C 
BRANCH  11  12
ATOM     12  C   UNL     1       7.512   5.772  18.175  0.00  0.00    +0.000 C 
BRANCH  12  13
ATOM     13  C   UNL     1       7.621   4.505  17.321  0.00  0.00    +0.000 C 
BRANCH  13  14
ATOM     14  O   UNL     1       7.485   4.828  15.942  0.00  0.00    +0.000 OA
BRANCH  14  15
ATOM     15  S   UNL     1       5.982   4.782  15.312  0.00  0.00    +0.000 S 
ATOM     16  C   UNL     1       6.397   4.038  13.745  0.00  0.00    +0.000 C 
ATOM     17  O   UNL     1       5.184   3.835  16.069  0.00  0.00    +0.000 OA
ATOM     18  O   UNL     1       5.536   6.135  15.073  0.00  0.00    +0.000 OA
ENDBRANCH  14  15
ENDBRANCH  13  14
ENDBRANCH  12  13
ENDBRANCH  11  12
ENDBRANCH   1  11
TORSDOF 10
ENDMDL
MODEL 6
REMARK VINA RESULT:      -5.2      2.372      6.462
REMARK  Name = 
REMARK  12 active torsions:
REMARK  status: ('A' for Active; 'I' for Inactive)
REMARK    1  A    between atoms: C_1  and  S_2
REMARK    2  A    between atoms: S_2  and  O_5
REMARK    3  A    between atoms: O_5  and  C_6
REMARK    4  A    between atoms: C_6  and  C_7
REMARK    5  A    between atoms: C_7  and  C_8
REMARK    6  A    between atoms: C_8  and  N_9
REMARK    7  A    between atoms: N_9  and  C_10
REMARK    8  A    between atoms: C_10  and  C_11
REMARK    9  A    between atoms: C_11  and  C_12
REMARK   10  A    between atoms: C_12  and  O_13
REMARK   11  A    between atoms: O_13  and  S_14
REMARK   12  A    between atoms: S_14  and  C_15
REMARK                            x       y       z     vdW  Elec       q    Type
REMARK                         _______ _______ _______ _____ _____    ______ ____
ROOT
ATOM      1  N   UNL     1       4.797   3.642  17.705  0.00  0.00    +0.000 NA
ATOM      2  H   UNL     1       5.771   3.474  17.959  0.00  0.00    +0.000 HD
ENDROOT
BRANCH   1   3
ATOM      3  C   UNL     1       3.977   2.499  18.122  0.00  0.00    +0.000 C 
BRANCH   3   4
ATOM      4  C   UNL     1       4.193   2.130  19.588  0.00  0.00    +0.000 C 
BRANCH   4   5
ATOM      5  C   UNL     1       3.218   2.909  20.469  0.00  0.00    +0.000 C 
BRANCH   5   6
ATOM      6  O   UNL     1       3.356   4.319  20.297  0.00  0.00    +0.000 OA
BRANCH   6   8
ATOM      7  C   UNL     1       0.846   3.766  19.941  0.00  0.00    +0.000 C 
ATOM      8  S   UNL     1       2.014   5.097  19.793  0.00  0.00    +0.000 S 
ATOM      9  O   UNL     1       2.171   5.417  18.392  0.00  0.00    +0.000 OA
ATOM     10  O   UNL     1       1.678   6.112  20.774  0.00  0.00    +0.000 OA
ENDBRANCH   6   8
ENDBRANCH   5   6
ENDBRANCH   4   5
ENDBRANCH   3   4
ENDBRANCH   1   3
BRANCH   1  11
ATOM     11  C   UNL     1       4.688   3.813  16.252  0.00  0.00    +0.000 C 
BRANCH  11  12
ATOM     12  C   UNL     1       6.056   3.863  15.571  0.00  0.00    +0.000 C 
BRANCH  12  13
ATOM     13  C   UNL     1       6.421   5.316  15.258  0.00  0.00    +0.000 C 
BRANCH  13  14
ATOM     14  O   UNL     1       7.441   5.769  16.140  0.00  0.00    +0.000 OA
BRANCH  14  15
ATOM     15  S   UNL     1       6.996   6.796  17.326  0.00  0.00    +0.000 S 
ATOM     16  C   UNL     1       7.664   5.882  18.704  0.00  0.00    +0.000 C 
ATOM     17  O   UNL     1       7.750   8.028  17.188  0.00  0.00    +0.000 OA
ATOM     18  O   UNL     1       5.555   6.791  17.429  0.00  0.00    +0.000 OA
ENDBRANCH  14  15
ENDBRANCH  13  14
ENDBRANCH  12  13
ENDBRANCH  11  12
ENDBRANCH   1  11
TORSDOF 10
ENDMDL
MODEL 7
REMARK VINA RESULT:      -5.2      1.174      1.289
REMARK  Name = 
REMARK  12 active torsions:
REMARK  status: ('A' for Active; 'I' for Inactive)
REMARK    1  A    between atoms: C_1  and  S_2
REMARK    2  A    between atoms: S_2  and  O_5
REMARK    3  A    between atoms: O_5  and  C_6
REMARK    4  A    between atoms: C_6  and  C_7
REMARK    5  A    between atoms: C_7  and  C_8
REMARK    6  A    between atoms: C_8  and  N_9
REMARK    7  A    between atoms: N_9  and  C_10
REMARK    8  A    between atoms: C_10  and  C_11
REMARK    9  A    between atoms: C_11  and  C_12
REMARK   10  A    between atoms: C_12  and  O_13
REMARK   11  A    between atoms: O_13  and  S_14
REMARK   12  A    between atoms: S_14  and  C_15
REMARK                            x       y       z     vdW  Elec       q    Type
REMARK                         _______ _______ _______ _____ _____    ______ ____
ROOT
ATOM      1  N   UNL     1       5.468   5.477  18.514  0.00  0.00    +0.000 NA
ATOM      2  H   UNL     1       6.014   6.106  19.103  0.00  0.00    +0.000 HD
ENDROOT
BRANCH   1   3
ATOM      3  C   UNL     1       4.206   6.126  18.139  0.00  0.00    +0.000 C 
BRANCH   3   4
ATOM      4  C   UNL     1       4.385   7.134  17.005  0.00  0.00    +0.000 C 
BRANCH   4   5
ATOM      5  C   UNL     1       5.064   6.461  15.814  0.00  0.00    +0.000 C 
BRANCH   5   6
ATOM      6  O   UNL     1       6.480   6.396  15.975  0.00  0.00    +0.000 OA
BRANCH   6   8
ATOM      7  C   UNL     1       5.739   4.186  14.835  0.00  0.00    +0.000 C 
ATOM      8  S   UNL     1       7.191   5.053  15.380  0.00  0.00    +0.000 S 
ATOM      9  O   UNL     1       7.778   4.323  16.480  0.00  0.00    +0.000 OA
ATOM     10  O   UNL     1       7.966   5.427  14.212  0.00  0.00    +0.000 OA
ENDBRANCH   6   8
ENDBRANCH   5   6
ENDBRANCH   4   5
ENDBRANCH   3   4
ENDBRANCH   1   3
BRANCH   1  11
ATOM     11  C   UNL     1       5.177   4.241  19.249  0.00  0.00    +0.000 C 
BRANCH  11  12
ATOM     12  C   UNL     1       4.645   3.136  18.335  0.00  0.00    +0.000 C 
BRANCH  12  13
ATOM     13  C   UNL     1       3.666   2.253  19.113  0.00  0.00    +0.000 C 
BRANCH  13  14
ATOM     14  O   UNL     1       2.477   2.976  19.407  0.00  0.00    +0.000 OA
BRANCH  14  15
ATOM     15  S   UNL     1       2.069   3.130  20.978  0.00  0.00    +0.000 S 
ATOM     16  C   UNL     1       2.180   4.907  21.086  0.00  0.00    +0.000 C 
ATOM     17  O   UNL     1       0.678   2.750  21.142  0.00  0.00    +0.000 OA
ATOM     18  O   UNL     1       3.116   2.555  21.789  0.00  0.00    +0.000 OA
ENDBRANCH  14  15
ENDBRANCH  13  14
ENDBRANCH  12  13
ENDBRANCH  11  12
ENDBRANCH   1  11
TORSDOF 10
ENDMDL
MODEL 8
REMARK VINA RESULT:      -5.2      1.412      1.626
REMARK  Name = 
REMARK  12 active torsions:
REMARK  status: ('A' for Active; 'I' for Inactive)
REMARK    1  A    between atoms: C_1  and  S_2
REMARK    2  A    between atoms: S_2  and  O_5
REMARK    3  A    between atoms: O_5  and  C_6
REMARK    4  A    between atoms: C_6  and  C_7
REMARK    5  A    between atoms: C_7  and  C_8
REMARK    6  A    between atoms: C_8  and  N_9
REMARK    7  A    between atoms: N_9  and  C_10
REMARK    8  A    between atoms: C_10  and  C_11
REMARK    9  A    between atoms: C_11  and  C_12
REMARK   10  A    between atoms: C_12  and  O_13
REMARK   11  A    between atoms: O_13  and  S_14
REMARK   12  A    between atoms: S_14  and  C_15
REMARK                            x       y       z     vdW  Elec       q    Type
REMARK                         _______ _______ _______ _____ _____    ______ ____
ROOT
ATOM      1  N   UNL     1       4.487   3.858  17.255  0.00  0.00    +0.000 NA
ATOM      2  H   UNL     1       4.789   3.643  18.206  0.00  0.00    +0.000 HD
ENDROOT
BRANCH   1   3
ATOM      3  C   UNL     1       4.137   5.280  17.161  0.00  0.00    +0.000 C 
BRANCH   3   4
ATOM      4  C   UNL     1       5.173   6.180  17.832  0.00  0.00    +0.000 C 
BRANCH   4   5
ATOM      5  C   UNL     1       6.230   6.604  16.815  0.00  0.00    +0.000 C 
BRANCH   5   6
ATOM      6  O   UNL     1       6.010   6.008  15.538  0.00  0.00    +0.000 OA
BRANCH   6   8
ATOM      7  C   UNL     1       6.148   3.896  14.037  0.00  0.00    +0.000 C 
ATOM      8  S   UNL     1       7.154   4.952  15.051  0.00  0.00    +0.000 S 
ATOM      9  O   UNL     1       7.599   4.199  16.201  0.00  0.00    +0.000 OA
ATOM     10  O   UNL     1       8.088   5.656  14.192  0.00  0.00    +0.000 OA
ENDBRANCH   6   8
ENDBRANCH   5   6
ENDBRANCH   4   5
ENDBRANCH   3   4
ENDBRANCH   1   3
BRANCH   1  11
ATOM     11  C   UNL     1       3.313   3.047  16.915  0.00  0.00    +0.000 C 
BRANCH  11  12
ATOM     12  C   UNL     1       2.955   2.054  18.022  0.00  0.00    +0.000 C 
BRANCH  12  13
ATOM     13  C   UNL     1       1.542   2.344  18.535  0.00  0.00    +0.000 C 
BRANCH  13  14
ATOM     14  O   UNL     1       1.416   3.717  18.885  0.00  0.00    +0.000 OA
BRANCH  14  15
ATOM     15  S   UNL     1       2.044   4.179  20.317  0.00  0.00    +0.000 S 
ATOM     16  C   UNL     1       1.462   2.803  21.293  0.00  0.00    +0.000 C 
ATOM     17  O   UNL     1       3.491   4.104  20.242  0.00  0.00    +0.000 OA
ATOM     18  O   UNL     1       1.363   5.373  20.760  0.00  0.00    +0.000 OA
ENDBRANCH  14  15
ENDBRANCH  13  14
ENDBRANCH  12  13
ENDBRANCH  11  12
ENDBRANCH   1  11
TORSDOF 10
ENDMDL
MODEL 9
REMARK VINA RESULT:      -5.2      2.400      6.180
REMARK  Name = 
REMARK  12 active torsions:
REMARK  status: ('A' for Active; 'I' for Inactive)
REMARK    1  A    between atoms: C_1  and  S_2
REMARK    2  A    between atoms: S_2  and  O_5
REMARK    3  A    between atoms: O_5  and  C_6
REMARK    4  A    between atoms: C_6  and  C_7
REMARK    5  A    between atoms: C_7  and  C_8
REMARK    6  A    between atoms: C_8  and  N_9
REMARK    7  A    between atoms: N_9  and  C_10
REMARK    8  A    between atoms: C_10  and  C_11
REMARK    9  A    between atoms: C_11  and  C_12
REMARK   10  A    between atoms: C_12  and  O_13
REMARK   11  A    between atoms: O_13  and  S_14
REMARK   12  A    between atoms: S_14  and  C_15
REMARK                            x       y       z     vdW  Elec       q    Type
REMARK                         _______ _______ _______ _____ _____    ______ ____
ROOT
ATOM      1  N   UNL     1       2.237   2.628  18.550  0.00  0.00    +0.000 NA
ATOM      2  H   UNL     1       2.181   3.645  18.487  0.00  0.00    +0.000 HD
ENDROOT
BRANCH   1   3
ATOM      3  C   UNL     1       2.313   2.227  19.960  0.00  0.00    +0.000 C 
BRANCH   3   4
ATOM      4  C   UNL     1       1.207   2.857  20.805  0.00  0.00    +0.000 C 
BRANCH   4   5
ATOM      5  C   UNL     1       0.907   4.267  20.299  0.00  0.00    +0.000 C 
BRANCH   5   6
ATOM      6  O   UNL     1       1.918   5.197  20.684  0.00  0.00    +0.000 OA
BRANCH   6   8
ATOM      7  C   UNL     1       2.058   7.655  19.866  0.00  0.00    +0.000 C 
ATOM      8  S   UNL     1       2.616   6.018  19.459  0.00  0.00    +0.000 S 
ATOM      9  O   UNL     1       1.989   5.612  18.222  0.00  0.00    +0.000 OA
ATOM     10  O   UNL     1       4.055   5.968  19.638  0.00  0.00    +0.000 OA
ENDBRANCH   6   8
ENDBRANCH   5   6
ENDBRANCH   4   5
ENDBRANCH   3   4
ENDBRANCH   1   3
BRANCH   1  11
ATOM     11  C   UNL     1       3.433   2.154  17.846  0.00  0.00    +0.000 C 
BRANCH  11  12
ATOM     12  C   UNL     1       4.583   3.160  17.918  0.00  0.00    +0.000 C 
BRANCH  12  13
ATOM     13  C   UNL     1       4.604   4.007  16.642  0.00  0.00    +0.000 C 
BRANCH  13  14
ATOM     14  O   UNL     1       5.790   3.749  15.900  0.00  0.00    +0.000 OA
BRANCH  14  15
ATOM     15  S   UNL     1       7.005   4.827  16.041  0.00  0.00    +0.000 S 
ATOM     16  C   UNL     1       6.049   6.188  16.687  0.00  0.00    +0.000 C 
ATOM     17  O   UNL     1       7.915   4.377  17.079  0.00  0.00    +0.000 OA
ATOM     18  O   UNL     1       7.470   5.180  14.720  0.00  0.00    +0.000 OA
ENDBRANCH  14  15
ENDBRANCH  13  14
ENDBRANCH  12  13
ENDBRANCH  11  12
ENDBRANCH   1  11
TORSDOF 10
ENDMDL
