MODEL 1
REMARK VINA RESULT:      -7.1      0.000      0.000
REMARK  Name = 
REMARK  4 active torsions:
REMARK  status: ('A' for Active; 'I' for Inactive)
REMARK    1  A    between atoms: C_2  and  C_3
REMARK    2  A    between atoms: C_3  and  C_4
REMARK    3  A    between atoms: C_4  and  N_5
REMARK    4  A    between atoms: N_5  and  N_6
REMARK                            x       y       z     vdW  Elec       q    Type
REMARK                         _______ _______ _______ _____ _____    ______ ____
ROOT
ATOM      1  N   UNL     1       7.073   4.545  17.017  0.00  0.00    +0.000 N 
ATOM      2  C   UNL     1       5.854   4.412  17.630  0.00  0.00    +0.000 A 
ATOM      3  N   UNL     1       5.520   3.776  18.743  0.00  0.00    +0.000 NA
ATOM      4  C   UNL     1       4.149   3.939  18.837  0.00  0.00    +0.000 A 
ATOM      5  C   UNL     1       3.712   4.676  17.751  0.00  0.00    +0.000 A 
ATOM      6  C   UNL     1       2.393   5.023  17.492  0.00  0.00    +0.000 A 
ATOM      7  C   UNL     1       1.447   4.577  18.418  0.00  0.00    +0.000 A 
ATOM      8  C   UNL     1       1.815   3.832  19.552  0.00  0.00    +0.000 A 
ATOM      9  C   UNL     1       0.846   3.402  20.471  0.00  0.00    +0.000 A 
ATOM     10  C   UNL     1       1.211   2.668  21.601  0.00  0.00    +0.000 A 
ATOM     11  C   UNL     1       2.546   2.350  21.830  0.00  0.00    +0.000 A 
ATOM     12  C   UNL     1       3.536   2.759  20.929  0.00  0.00    +0.000 A 
ATOM     13  C   UNL     1       3.180   3.503  19.783  0.00  0.00    +0.000 A 
ATOM     14  O   UNL     1       4.791   4.990  16.986  0.00  0.00    +0.000 OA
ENDROOT
BRANCH   1  15
ATOM     15  N   UNL     1       8.171   4.135  17.810  0.00  0.00    +0.000 NA
ATOM     16  H   UNL     1       7.936   4.146  18.805  0.00  0.00    +0.000 HD
ATOM     17  H   UNL     1       8.924   4.828  17.711  0.00  0.00    +0.000 HD
ENDBRANCH   1  15
BRANCH   1  18
ATOM     18  C   UNL     1       7.257   5.410  15.841  0.00  0.00    +0.000 C 
BRANCH  18  19
ATOM     19  C   UNL     1       7.014   4.685  14.522  0.00  0.00    +0.000 C 
BRANCH  19  21
ATOM     20  N   UNL     1       8.331   5.950  12.425  0.00  0.00    +0.000 NA
ATOM     21  C   UNL     1       7.734   5.377  13.375  0.00  0.00    +0.000 C 
ENDBRANCH  19  21
ENDBRANCH  18  19
ENDBRANCH   1  18
TORSDOF 4
ENDMDL
MODEL 2
REMARK VINA RESULT:      -7.0      2.580      6.708
REMARK  Name = 
REMARK  4 active torsions:
REMARK  status: ('A' for Active; 'I' for Inactive)
REMARK    1  A    between atoms: C_2  and  C_3
REMARK    2  A    between atoms: C_3  and  C_4
REMARK    3  A    between atoms: C_4  and  N_5
REMARK    4  A    between atoms: N_5  and  N_6
REMARK                            x       y       z     vdW  Elec       q    Type
REMARK                         _______ _______ _______ _____ _____    ______ ____
ROOT
ATOM      1  N   UNL     1       2.826   2.327  19.526  0.00  0.00    +0.000 N 
ATOM      2  C   UNL     1       3.731   2.973  18.726  0.00  0.00    +0.000 A 
ATOM      3  N   UNL     1       3.923   2.902  17.417  0.00  0.00    +0.000 NA
ATOM      4  C   UNL     1       5.005   3.731  17.179  0.00  0.00    +0.000 A 
ATOM      5  C   UNL     1       5.427   4.269  18.381  0.00  0.00    +0.000 A 
ATOM      6  C   UNL     1       6.503   5.133  18.543  0.00  0.00    +0.000 A 
ATOM      7  C   UNL     1       7.202   5.468  17.381  0.00  0.00    +0.000 A 
ATOM      8  C   UNL     1       6.827   4.969  16.121  0.00  0.00    +0.000 A 
ATOM      9  C   UNL     1       7.542   5.327  14.968  0.00  0.00    +0.000 A 
ATOM     10  C   UNL     1       7.165   4.838  13.716  0.00  0.00    +0.000 A 
ATOM     11  C   UNL     1       6.075   3.983  13.595  0.00  0.00    +0.000 A 
ATOM     12  C   UNL     1       5.345   3.603  14.727  0.00  0.00    +0.000 A 
ATOM     13  C   UNL     1       5.713   4.091  15.999  0.00  0.00    +0.000 A 
ATOM     14  O   UNL     1       4.617   3.801  19.367  0.00  0.00    +0.000 OA
ENDROOT
BRANCH   1  15
ATOM     15  N   UNL     1       1.797   1.661  18.819  0.00  0.00    +0.000 NA
ATOM     16  H   UNL     1       1.796   0.659  19.019  0.00  0.00    +0.000 HD
ATOM     17  H   UNL     1       1.995   1.727  17.812  0.00  0.00    +0.000 HD
ENDBRANCH   1  15
BRANCH   1  18
ATOM     18  C   UNL     1       2.691   2.645  20.957  0.00  0.00    +0.000 C 
BRANCH  18  19
ATOM     19  C   UNL     1       1.457   3.484  21.268  0.00  0.00    +0.000 C 
BRANCH  19  21
ATOM     20  N   UNL     1       1.807   6.121  20.454  0.00  0.00    +0.000 NA
ATOM     21  C   UNL     1       1.648   4.926  20.823  0.00  0.00    +0.000 C 
ENDBRANCH  19  21
ENDBRANCH  18  19
ENDBRANCH   1  18
TORSDOF 4
ENDMDL
MODEL 3
REMARK VINA RESULT:      -7.0      1.035      1.070
REMARK  Name = 
REMARK  4 active torsions:
REMARK  status: ('A' for Active; 'I' for Inactive)
REMARK    1  A    between atoms: C_2  and  C_3
REMARK    2  A    between atoms: C_3  and  C_4
REMARK    3  A    between atoms: C_4  and  N_5
REMARK    4  A    between atoms: N_5  and  N_6
REMARK                            x       y       z     vdW  Elec       q    Type
REMARK                         _______ _______ _______ _____ _____    ______ ____
ROOT
ATOM      1  N   UNL     1       6.742   4.526  16.501  0.00  0.00    +0.000 N 
ATOM      2  C   UNL     1       5.591   4.361  17.227  0.00  0.00    +0.000 A 
ATOM      3  N   UNL     1       5.387   3.748  18.383  0.00  0.00    +0.000 NA
ATOM      4  C   UNL     1       4.024   3.855  18.597  0.00  0.00    +0.000 A 
ATOM      5  C   UNL     1       3.458   4.536  17.535  0.00  0.00    +0.000 A 
ATOM      6  C   UNL     1       2.106   4.817  17.387  0.00  0.00    +0.000 A 
ATOM      7  C   UNL     1       1.269   4.361  18.407  0.00  0.00    +0.000 A 
ATOM      8  C   UNL     1       1.770   3.670  19.524  0.00  0.00    +0.000 A 
ATOM      9  C   UNL     1       0.909   3.229  20.539  0.00  0.00    +0.000 A 
ATOM     10  C   UNL     1       1.408   2.550  21.652  0.00  0.00    +0.000 A 
ATOM     11  C   UNL     1       2.770   2.297  21.768  0.00  0.00    +0.000 A 
ATOM     12  C   UNL     1       3.656   2.719  20.769  0.00  0.00    +0.000 A 
ATOM     13  C   UNL     1       3.165   3.409  19.640  0.00  0.00    +0.000 A 
ATOM     14  O   UNL     1       4.448   4.870  16.665  0.00  0.00    +0.000 OA
ENDROOT
BRANCH   1  15
ATOM     15  N   UNL     1       7.924   4.190  17.203  0.00  0.00    +0.000 NA
ATOM     16  H   UNL     1       8.037   4.767  18.039  0.00  0.00    +0.000 HD
ATOM     17  H   UNL     1       8.733   4.423  16.612  0.00  0.00    +0.000 HD
ENDBRANCH   1  15
BRANCH   1  18
ATOM     18  C   UNL     1       6.780   5.359  15.289  0.00  0.00    +0.000 C 
BRANCH  18  19
ATOM     19  C   UNL     1       7.406   4.647  14.095  0.00  0.00    +0.000 C 
BRANCH  19  21
ATOM     20  N   UNL     1       5.467   3.384  12.552  0.00  0.00    +0.000 NA
ATOM     21  C   UNL     1       6.346   3.957  13.251  0.00  0.00    +0.000 C 
ENDBRANCH  19  21
ENDBRANCH  18  19
ENDBRANCH   1  18
TORSDOF 4
ENDMDL
MODEL 4
REMARK VINA RESULT:      -7.0      2.469      3.007
REMARK  Name = 
REMARK  4 active torsions:
REMARK  status: ('A' for Active; 'I' for Inactive)
REMARK    1  A    between atoms: C_2  and  C_3
REMARK    2  A    between atoms: C_3  and  C_4
REMARK    3  A    between atoms: C_4  and  N_5
REMARK    4  A    between atoms: N_5  and  N_6
REMARK                            x       y       z     vdW  Elec       q    Type
REMARK                         _______ _______ _______ _____ _____    ______ ____
ROOT
ATOM      1  N   UNL     1       7.361   5.341  18.106  0.00  0.00    +0.000 N 
ATOM      2  C   UNL     1       6.077   5.037  18.477  0.00  0.00    +0.000 A 
ATOM      3  N   UNL     1       5.366   3.937  18.281  0.00  0.00    +0.000 NA
ATOM      4  C   UNL     1       4.126   4.224  18.825  0.00  0.00    +0.000 A 
ATOM      5  C   UNL     1       4.147   5.512  19.328  0.00  0.00    +0.000 A 
ATOM      6  C   UNL     1       3.077   6.159  19.932  0.00  0.00    +0.000 A 
ATOM      7  C   UNL     1       1.891   5.427  20.024  0.00  0.00    +0.000 A 
ATOM      8  C   UNL     1       1.794   4.109  19.545  0.00  0.00    +0.000 A 
ATOM      9  C   UNL     1       0.593   3.393  19.657  0.00  0.00    +0.000 A 
ATOM     10  C   UNL     1       0.499   2.082  19.188  0.00  0.00    +0.000 A 
ATOM     11  C   UNL     1       1.598   1.466  18.598  0.00  0.00    +0.000 A 
ATOM     12  C   UNL     1       2.809   2.156  18.467  0.00  0.00    +0.000 A 
ATOM     13  C   UNL     1       2.918   3.481  18.938  0.00  0.00    +0.000 A 
ATOM     14  O   UNL     1       5.386   6.032  19.120  0.00  0.00    +0.000 OA
ENDROOT
BRANCH   1  15
ATOM     15  N   UNL     1       8.112   4.231  17.648  0.00  0.00    +0.000 NA
ATOM     16  H   UNL     1       7.517   3.552  17.170  0.00  0.00    +0.000 HD
ATOM     17  H   UNL     1       8.481   3.726  18.464  0.00  0.00    +0.000 HD
ENDBRANCH   1  15
BRANCH   1  18
ATOM     18  C   UNL     1       8.018   6.586  18.536  0.00  0.00    +0.000 C 
BRANCH  18  19
ATOM     19  C   UNL     1       7.764   7.753  17.589  0.00  0.00    +0.000 C 
BRANCH  19  21
ATOM     20  N   UNL     1       8.877  10.103  18.576  0.00  0.00    +0.000 NA
ATOM     21  C   UNL     1       8.372   9.038  18.128  0.00  0.00    +0.000 C 
ENDBRANCH  19  21
ENDBRANCH  18  19
ENDBRANCH   1  18
TORSDOF 4
ENDMDL
MODEL 5
REMARK VINA RESULT:      -6.7      2.334      2.690
REMARK  Name = 
REMARK  4 active torsions:
REMARK  status: ('A' for Active; 'I' for Inactive)
REMARK    1  A    between atoms: C_2  and  C_3
REMARK    2  A    between atoms: C_3  and  C_4
REMARK    3  A    between atoms: C_4  and  N_5
REMARK    4  A    between atoms: N_5  and  N_6
REMARK                            x       y       z     vdW  Elec       q    Type
REMARK                         _______ _______ _______ _____ _____    ______ ____
ROOT
ATOM      1  N   UNL     1       7.404   5.714  18.891  0.00  0.00    +0.000 N 
ATOM      2  C   UNL     1       6.105   5.279  18.941  0.00  0.00    +0.000 A 
ATOM      3  N   UNL     1       5.443   4.666  19.910  0.00  0.00    +0.000 NA
ATOM      4  C   UNL     1       4.189   4.425  19.376  0.00  0.00    +0.000 A 
ATOM      5  C   UNL     1       4.156   4.908  18.081  0.00  0.00    +0.000 A 
ATOM      6  C   UNL     1       3.071   4.829  17.219  0.00  0.00    +0.000 A 
ATOM      7  C   UNL     1       1.930   4.201  17.725  0.00  0.00    +0.000 A 
ATOM      8  C   UNL     1       1.883   3.693  19.035  0.00  0.00    +0.000 A 
ATOM      9  C   UNL     1       0.723   3.073  19.521  0.00  0.00    +0.000 A 
ATOM     10  C   UNL     1       0.673   2.575  20.824  0.00  0.00    +0.000 A 
ATOM     11  C   UNL     1       1.780   2.684  21.660  0.00  0.00    +0.000 A 
ATOM     12  C   UNL     1       2.955   3.292  21.202  0.00  0.00    +0.000 A 
ATOM     13  C   UNL     1       3.017   3.802  19.888  0.00  0.00    +0.000 A 
ATOM     14  O   UNL     1       5.366   5.462  17.801  0.00  0.00    +0.000 OA
ENDROOT
BRANCH   1  15
ATOM     15  N   UNL     1       8.065   5.713  20.143  0.00  0.00    +0.000 NA
ATOM     16  H   UNL     1       7.597   5.097  20.810  0.00  0.00    +0.000 HD
ATOM     17  H   UNL     1       7.989   6.652  20.555  0.00  0.00    +0.000 HD
ENDBRANCH   1  15
BRANCH   1  18
ATOM     18  C   UNL     1       7.915   6.496  17.754  0.00  0.00    +0.000 C 
BRANCH  18  19
ATOM     19  C   UNL     1       7.253   7.863  17.624  0.00  0.00    +0.000 C 
BRANCH  19  21
ATOM     20  N   UNL     1       8.967   9.889  18.455  0.00  0.00    +0.000 NA
ATOM     21  C   UNL     1       8.190   8.971  18.078  0.00  0.00    +0.000 C 
ENDBRANCH  19  21
ENDBRANCH  18  19
ENDBRANCH   1  18
TORSDOF 4
ENDMDL
MODEL 6
REMARK VINA RESULT:      -6.7      3.376      4.307
REMARK  Name = 
REMARK  4 active torsions:
REMARK  status: ('A' for Active; 'I' for Inactive)
REMARK    1  A    between atoms: C_2  and  C_3
REMARK    2  A    between atoms: C_3  and  C_4
REMARK    3  A    between atoms: C_4  and  N_5
REMARK    4  A    between atoms: N_5  and  N_6
REMARK                            x       y       z     vdW  Elec       q    Type
REMARK                         _______ _______ _______ _____ _____    ______ ____
ROOT
ATOM      1  N   UNL     1       4.887   4.434  18.255  0.00  0.00    +0.000 N 
ATOM      2  C   UNL     1       4.089   5.519  18.509  0.00  0.00    +0.000 A 
ATOM      3  N   UNL     1       3.327   5.797  19.555  0.00  0.00    +0.000 NA
ATOM      4  C   UNL     1       2.716   6.996  19.232  0.00  0.00    +0.000 A 
ATOM      5  C   UNL     1       3.144   7.390  17.977  0.00  0.00    +0.000 A 
ATOM      6  C   UNL     1       2.732   8.535  17.309  0.00  0.00    +0.000 A 
ATOM      7  C   UNL     1       1.805   9.337  17.978  0.00  0.00    +0.000 A 
ATOM      8  C   UNL     1       1.330   9.008  19.260  0.00  0.00    +0.000 A 
ATOM      9  C   UNL     1       0.404   9.835  19.914  0.00  0.00    +0.000 A 
ATOM     10  C   UNL     1      -0.061   9.513  21.190  0.00  0.00    +0.000 A 
ATOM     11  C   UNL     1       0.385   8.361  21.831  0.00  0.00    +0.000 A 
ATOM     12  C   UNL     1       1.304   7.513  21.202  0.00  0.00    +0.000 A 
ATOM     13  C   UNL     1       1.785   7.828  19.913  0.00  0.00    +0.000 A 
ATOM     14  O   UNL     1       4.025   6.463  17.516  0.00  0.00    +0.000 OA
ENDROOT
BRANCH   1  15
ATOM     15  N   UNL     1       5.104   3.598  19.377  0.00  0.00    +0.000 NA
ATOM     16  H   UNL     1       4.752   2.654  19.210  0.00  0.00    +0.000 HD
ATOM     17  H   UNL     1       4.543   3.952  20.163  0.00  0.00    +0.000 HD
ENDBRANCH   1  15
BRANCH   1  18
ATOM     18  C   UNL     1       5.764   4.376  17.074  0.00  0.00    +0.000 C 
BRANCH  18  19
ATOM     19  C   UNL     1       7.200   4.786  17.378  0.00  0.00    +0.000 C 
BRANCH  19  21
ATOM     20  N   UNL     1       7.523   7.541  17.170  0.00  0.00    +0.000 NA
ATOM     21  C   UNL     1       7.376   6.292  17.264  0.00  0.00    +0.000 C 
ENDBRANCH  19  21
ENDBRANCH  18  19
ENDBRANCH   1  18
TORSDOF 4
ENDMDL
MODEL 7
REMARK VINA RESULT:      -6.7      1.805      2.169
REMARK  Name = 
REMARK  4 active torsions:
REMARK  status: ('A' for Active; 'I' for Inactive)
REMARK    1  A    between atoms: C_2  and  C_3
REMARK    2  A    between atoms: C_3  and  C_4
REMARK    3  A    between atoms: C_4  and  N_5
REMARK    4  A    between atoms: N_5  and  N_6
REMARK                            x       y       z     vdW  Elec       q    Type
REMARK                         _______ _______ _______ _____ _____    ______ ____
ROOT
ATOM      1  N   UNL     1       6.851   5.151  16.017  0.00  0.00    +0.000 N 
ATOM      2  C   UNL     1       5.708   4.773  16.671  0.00  0.00    +0.000 A 
ATOM      3  N   UNL     1       5.054   5.360  17.662  0.00  0.00    +0.000 NA
ATOM      4  C   UNL     1       4.009   4.498  17.947  0.00  0.00    +0.000 A 
ATOM      5  C   UNL     1       4.089   3.406  17.101  0.00  0.00    +0.000 A 
ATOM      6  C   UNL     1       3.223   2.321  17.103  0.00  0.00    +0.000 A 
ATOM      7  C   UNL     1       2.197   2.356  18.050  0.00  0.00    +0.000 A 
ATOM      8  C   UNL     1       2.045   3.435  18.939  0.00  0.00    +0.000 A 
ATOM      9  C   UNL     1       1.002   3.449  19.876  0.00  0.00    +0.000 A 
ATOM     10  C   UNL     1       0.846   4.525  20.752  0.00  0.00    +0.000 A 
ATOM     11  C   UNL     1       1.729   5.599  20.711  0.00  0.00    +0.000 A 
ATOM     12  C   UNL     1       2.784   5.612  19.791  0.00  0.00    +0.000 A 
ATOM     13  C   UNL     1       2.952   4.532  18.897  0.00  0.00    +0.000 A 
ATOM     14  O   UNL     1       5.159   3.579  16.280  0.00  0.00    +0.000 OA
ENDROOT
BRANCH   1  15
ATOM     15  N   UNL     1       7.263   6.478  16.286  0.00  0.00    +0.000 NA
ATOM     16  H   UNL     1       8.277   6.537  16.401  0.00  0.00    +0.000 HD
ATOM     17  H   UNL     1       6.880   6.762  17.198  0.00  0.00    +0.000 HD
ENDBRANCH   1  15
BRANCH   1  18
ATOM     18  C   UNL     1       7.351   4.416  14.843  0.00  0.00    +0.000 C 
BRANCH  18  19
ATOM     19  C   UNL     1       6.718   4.880  13.536  0.00  0.00    +0.000 C 
BRANCH  19  21
ATOM     20  N   UNL     1       5.915   2.713  11.988  0.00  0.00    +0.000 NA
ATOM     21  C   UNL     1       6.279   3.695  12.690  0.00  0.00    +0.000 C 
ENDBRANCH  19  21
ENDBRANCH  18  19
ENDBRANCH   1  18
TORSDOF 4
ENDMDL
MODEL 8
REMARK VINA RESULT:      -6.7      4.268      6.085
REMARK  Name = 
REMARK  4 active torsions:
REMARK  status: ('A' for Active; 'I' for Inactive)
REMARK    1  A    between atoms: C_2  and  C_3
REMARK    2  A    between atoms: C_3  and  C_4
REMARK    3  A    between atoms: C_4  and  N_5
REMARK    4  A    between atoms: N_5  and  N_6
REMARK                            x       y       z     vdW  Elec       q    Type
REMARK                         _______ _______ _______ _____ _____    ______ ____
ROOT
ATOM      1  N   UNL     1       2.930   3.489  20.504  0.00  0.00    +0.000 N 
ATOM      2  C   UNL     1       2.653   4.796  20.203  0.00  0.00    +0.000 A 
ATOM      3  N   UNL     1       1.934   5.693  20.862  0.00  0.00    +0.000 NA
ATOM      4  C   UNL     1       1.961   6.819  20.056  0.00  0.00    +0.000 A 
ATOM      5  C   UNL     1       2.705   6.539  18.925  0.00  0.00    +0.000 A 
ATOM      6  C   UNL     1       2.937   7.419  17.876  0.00  0.00    +0.000 A 
ATOM      7  C   UNL     1       2.358   8.684  17.996  0.00  0.00    +0.000 A 
ATOM      8  C   UNL     1       1.597   9.047  19.122  0.00  0.00    +0.000 A 
ATOM      9  C   UNL     1       1.032  10.327  19.221  0.00  0.00    +0.000 A 
ATOM     10  C   UNL     1       0.282  10.689  20.342  0.00  0.00    +0.000 A 
ATOM     11  C   UNL     1       0.082   9.781  21.376  0.00  0.00    +0.000 A 
ATOM     12  C   UNL     1       0.627   8.494  21.304  0.00  0.00    +0.000 A 
ATOM     13  C   UNL     1       1.389   8.115  20.178  0.00  0.00    +0.000 A 
ATOM     14  O   UNL     1       3.157   5.260  19.015  0.00  0.00    +0.000 OA
ENDROOT
BRANCH   1  15
ATOM     15  N   UNL     1       2.588   3.111  21.825  0.00  0.00    +0.000 NA
ATOM     16  H   UNL     1       2.136   3.878  22.326  0.00  0.00    +0.000 HD
ATOM     17  H   UNL     1       3.455   2.931  22.349  0.00  0.00    +0.000 HD
ENDBRANCH   1  15
BRANCH   1  18
ATOM     18  C   UNL     1       3.866   2.690  19.696  0.00  0.00    +0.000 C 
BRANCH  18  19
ATOM     19  C   UNL     1       3.162   1.721  18.753  0.00  0.00    +0.000 C 
BRANCH  19  21
ATOM     20  N   UNL     1       0.449   2.302  18.560  0.00  0.00    +0.000 NA
ATOM     21  C   UNL     1       1.679   2.039  18.647  0.00  0.00    +0.000 C 
ENDBRANCH  19  21
ENDBRANCH  18  19
ENDBRANCH   1  18
TORSDOF 4
ENDMDL
MODEL 9
REMARK VINA RESULT:      -6.6      4.292      5.219
REMARK  Name = 
REMARK  4 active torsions:
REMARK  status: ('A' for Active; 'I' for Inactive)
REMARK    1  A    between atoms: C_2  and  C_3
REMARK    2  A    between atoms: C_3  and  C_4
REMARK    3  A    between atoms: C_4  and  N_5
REMARK    4  A    between atoms: N_5  and  N_6
REMARK                            x       y       z     vdW  Elec       q    Type
REMARK                         _______ _______ _______ _____ _____    ______ ____
ROOT
ATOM      1  N   UNL     1       3.531   5.049  18.516  0.00  0.00    +0.000 N 
ATOM      2  C   UNL     1       2.926   6.230  18.860  0.00  0.00    +0.000 A 
ATOM      3  N   UNL     1       2.339   6.596  19.989  0.00  0.00    +0.000 NA
ATOM      4  C   UNL     1       1.866   7.872  19.737  0.00  0.00    +0.000 A 
ATOM      5  C   UNL     1       2.192   8.220  18.439  0.00  0.00    +0.000 A 
ATOM      6  C   UNL     1       1.865   9.419  17.821  0.00  0.00    +0.000 A 
ATOM      7  C   UNL     1       1.144  10.332  18.594  0.00  0.00    +0.000 A 
ATOM      8  C   UNL     1       0.784  10.055  19.925  0.00  0.00    +0.000 A 
ATOM      9  C   UNL     1       0.065  10.991  20.682  0.00  0.00    +0.000 A 
ATOM     10  C   UNL     1      -0.285  10.719  22.005  0.00  0.00    +0.000 A 
ATOM     11  C   UNL     1       0.071   9.509  22.592  0.00  0.00    +0.000 A 
ATOM     12  C   UNL     1       0.783   8.551  21.860  0.00  0.00    +0.000 A 
ATOM     13  C   UNL     1       1.145   8.814  20.522  0.00  0.00    +0.000 A 
ATOM     14  O   UNL     1       2.875   7.187  17.879  0.00  0.00    +0.000 OA
ENDROOT
BRANCH   1  15
ATOM     15  N   UNL     1       3.762   4.176  19.607  0.00  0.00    +0.000 NA
ATOM     16  H   UNL     1       2.899   3.981  20.116  0.00  0.00    +0.000 HD
ATOM     17  H   UNL     1       4.366   4.655  20.288  0.00  0.00    +0.000 HD
ENDBRANCH   1  15
BRANCH   1  18
ATOM     18  C   UNL     1       4.245   4.887  17.239  0.00  0.00    +0.000 C 
BRANCH  18  19
ATOM     19  C   UNL     1       5.701   4.474  17.418  0.00  0.00    +0.000 C 
BRANCH  19  21
ATOM     20  N   UNL     1       7.416   6.302  16.214  0.00  0.00    +0.000 NA
ATOM     21  C   UNL     1       6.639   5.474  16.759  0.00  0.00    +0.000 C 
ENDBRANCH  19  21
ENDBRANCH  18  19
ENDBRANCH   1  18
TORSDOF 4
ENDMDL
