MODEL 1
REMARK VINA RESULT:      -7.8      0.000      0.000
REMARK  Name = 
REMARK  5 active torsions:
REMARK  status: ('A' for Active; 'I' for Inactive)
REMARK    1  A    between atoms: C_2  and  C_3
REMARK    2  A    between atoms: N_12  and  C_13
REMARK    3  A    between atoms: N_12  and  C_22
REMARK    4  A    between atoms: C_13  and  C_14
REMARK    5  A    between atoms: C_14  and  C_15
REMARK                            x       y       z     vdW  Elec       q    Type
REMARK                         _______ _______ _______ _____ _____    ______ ____
ROOT
ATOM      1  O   UNL     1       6.030   3.949  18.768  0.00  0.00    +0.000 OA
ATOM      2  C   UNL     1       4.932   4.256  18.302  0.00  0.00    +0.000 C 
ATOM      3  N   UNL     1       4.762   5.463  17.585  0.00  0.00    +0.000 N 
ENDROOT
BRANCH   3   4
ATOM      4  C   UNL     1       5.962   6.249  17.085  0.00  0.00    +0.000 C 
ATOM      5  C   UNL     1       7.330   5.557  16.913  0.00  0.00    +0.000 C 
ATOM      6  C   UNL     1       7.328   4.478  15.831  0.00  0.00    +0.000 C 
ATOM      7  C   UNL     1       6.749   4.913  14.473  0.00  0.00    +0.000 C 
ATOM      8  C   UNL     1       6.410   3.669  13.632  0.00  0.00    +0.000 C 
ATOM      9  C   UNL     1       7.116   3.862  12.309  0.00  0.00    +0.000 C 
ATOM     10  C   UNL     1       7.531   5.310  12.329  0.00  0.00    +0.000 C 
ATOM     11  O   UNL     1       7.753   5.622  13.712  0.00  0.00    +0.000 OA
ATOM     12  C   UNL     1       5.530   5.852  14.608  0.00  0.00    +0.000 C 
ATOM     13  C   UNL     1       5.698   6.908  15.704  0.00  0.00    +0.000 C 
ENDBRANCH   3   4
BRANCH   2  14
ATOM     14  C   UNL     1       3.805   3.309  18.539  0.00  0.00    +0.000 A 
ATOM     15  C   UNL     1       3.453   2.227  17.755  0.00  0.00    +0.000 A 
ATOM     16  S   UNL     1       1.846   1.712  18.046  0.00  0.00    +0.000 S 
ATOM     17  C   UNL     1       1.818   2.507  19.564  0.00  0.00    +0.000 A 
ATOM     18  C   UNL     1       0.801   2.424  20.535  0.00  0.00    +0.000 A 
ATOM     19  C   UNL     1       1.065   2.901  21.818  0.00  0.00    +0.000 A 
ATOM     20  C   UNL     1       2.272   3.522  22.096  0.00  0.00    +0.000 A 
ATOM     21  C   UNL     1       3.204   3.752  21.075  0.00  0.00    +0.000 A 
ATOM     22  C   UNL     1       2.999   3.230  19.767  0.00  0.00    +0.000 A 
ENDBRANCH   2  14
BRANCH   3  23
ATOM     23  C   UNL     1       3.474   6.176  17.381  0.00  0.00    +0.000 C 
BRANCH  23  24
ATOM     24  C   UNL     1       3.227   7.636  17.786  0.00  0.00    +0.000 C 
BRANCH  24  25
ATOM     25  C   UNL     1       2.245   7.951  18.877  0.00  0.00    +0.000 A 
ATOM     26  C   UNL     1       2.144   7.153  20.022  0.00  0.00    +0.000 A 
ATOM     27  C   UNL     1       1.322   7.549  21.079  0.00  0.00    +0.000 A 
ATOM     28  C   UNL     1       0.606   8.743  21.001  0.00  0.00    +0.000 A 
ATOM     29 CL   UNL     1      -0.361   9.248  22.331  0.00  0.00    +0.000 Cl
ATOM     30  C   UNL     1       0.692   9.543  19.867  0.00  0.00    +0.000 A 
ATOM     31  C   UNL     1       1.509   9.149  18.809  0.00  0.00    +0.000 A 
ENDBRANCH  24  25
ENDBRANCH  23  24
ENDBRANCH   3  23
TORSDOF 5
ENDMDL
MODEL 2
REMARK VINA RESULT:      -7.5      0.970      1.334
REMARK  Name = 
REMARK  5 active torsions:
REMARK  status: ('A' for Active; 'I' for Inactive)
REMARK    1  A    between atoms: C_2  and  C_3
REMARK    2  A    between atoms: N_12  and  C_13
REMARK    3  A    between atoms: N_12  and  C_22
REMARK    4  A    between atoms: C_13  and  C_14
REMARK    5  A    between atoms: C_14  and  C_15
REMARK                            x       y       z     vdW  Elec       q    Type
REMARK                         _______ _______ _______ _____ _____    ______ ____
ROOT
ATOM      1  O   UNL     1       5.741   3.567  18.750  0.00  0.00    +0.000 OA
ATOM      2  C   UNL     1       4.774   4.231  18.375  0.00  0.00    +0.000 C 
ATOM      3  N   UNL     1       4.949   5.539  17.866  0.00  0.00    +0.000 N 
ENDROOT
BRANCH   3   4
ATOM      4  C   UNL     1       6.324   6.041  17.459  0.00  0.00    +0.000 C 
ATOM      5  C   UNL     1       7.470   5.043  17.188  0.00  0.00    +0.000 C 
ATOM      6  C   UNL     1       7.214   4.147  15.978  0.00  0.00    +0.000 C 
ATOM      7  C   UNL     1       6.801   4.886  14.692  0.00  0.00    +0.000 C 
ATOM      8  C   UNL     1       6.172   3.889  13.701  0.00  0.00    +0.000 C 
ATOM      9  C   UNL     1       6.936   4.056  12.407  0.00  0.00    +0.000 C 
ATOM     10  C   UNL     1       7.712   5.332  12.609  0.00  0.00    +0.000 C 
ATOM     11  O   UNL     1       7.974   5.398  14.018  0.00  0.00    +0.000 OA
ATOM     12  C   UNL     1       5.865   6.085  14.957  0.00  0.00    +0.000 C 
ATOM     13  C   UNL     1       6.275   6.914  16.177  0.00  0.00    +0.000 C 
ENDBRANCH   3   4
BRANCH   2  14
ATOM     14  C   UNL     1       3.429   3.599  18.493  0.00  0.00    +0.000 A 
ATOM     15  C   UNL     1       2.658   3.093  17.464  0.00  0.00    +0.000 A 
ATOM     16  S   UNL     1       1.012   2.934  17.908  0.00  0.00    +0.000 S 
ATOM     17  C   UNL     1       1.410   2.971  19.574  0.00  0.00    +0.000 A 
ATOM     18  C   UNL     1       0.532   2.739  20.651  0.00  0.00    +0.000 A 
ATOM     19  C   UNL     1       1.074   2.529  21.918  0.00  0.00    +0.000 A 
ATOM     20  C   UNL     1       2.441   2.636  22.118  0.00  0.00    +0.000 A 
ATOM     21  C   UNL     1       3.282   3.038  21.072  0.00  0.00    +0.000 A 
ATOM     22  C   UNL     1       2.779   3.206  19.752  0.00  0.00    +0.000 A 
ENDBRANCH   2  14
BRANCH   3  23
ATOM     23  C   UNL     1       3.906   6.597  17.820  0.00  0.00    +0.000 C 
BRANCH  23  24
ATOM     24  C   UNL     1       2.746   6.702  18.820  0.00  0.00    +0.000 C 
BRANCH  24  25
ATOM     25  C   UNL     1       2.057   8.021  19.026  0.00  0.00    +0.000 A 
ATOM     26  C   UNL     1       1.802   8.886  17.956  0.00  0.00    +0.000 A 
ATOM     27  C   UNL     1       1.038  10.037  18.157  0.00  0.00    +0.000 A 
ATOM     28  C   UNL     1       0.521  10.324  19.420  0.00  0.00    +0.000 A 
ATOM     29 CL   UNL     1      -0.464  11.717  19.644  0.00  0.00    +0.000 Cl
ATOM     30  C   UNL     1       0.771   9.477  20.493  0.00  0.00    +0.000 A 
ATOM     31  C   UNL     1       1.536   8.328  20.297  0.00  0.00    +0.000 A 
ENDBRANCH  24  25
ENDBRANCH  23  24
ENDBRANCH   3  23
TORSDOF 5
ENDMDL
MODEL 3
REMARK VINA RESULT:      -7.3      1.267      1.903
REMARK  Name = 
REMARK  5 active torsions:
REMARK  status: ('A' for Active; 'I' for Inactive)
REMARK    1  A    between atoms: C_2  and  C_3
REMARK    2  A    between atoms: N_12  and  C_13
REMARK    3  A    between atoms: N_12  and  C_22
REMARK    4  A    between atoms: C_13  and  C_14
REMARK    5  A    between atoms: C_14  and  C_15
REMARK                            x       y       z     vdW  Elec       q    Type
REMARK                         _______ _______ _______ _____ _____    ______ ____
ROOT
ATOM      1  O   UNL     1       5.838   5.462  19.899  0.00  0.00    +0.000 OA
ATOM      2  C   UNL     1       4.771   5.541  19.289  0.00  0.00    +0.000 C 
ATOM      3  N   UNL     1       4.651   6.360  18.143  0.00  0.00    +0.000 N 
ENDROOT
BRANCH   3   4
ATOM      4  C   UNL     1       5.883   6.902  17.438  0.00  0.00    +0.000 C 
ATOM      5  C   UNL     1       7.175   6.061  17.371  0.00  0.00    +0.000 C 
ATOM      6  C   UNL     1       7.020   4.781  16.553  0.00  0.00    +0.000 C 
ATOM      7  C   UNL     1       6.403   4.968  15.155  0.00  0.00    +0.000 C 
ATOM      8  C   UNL     1       5.912   3.611  14.619  0.00  0.00    +0.000 C 
ATOM      9  C   UNL     1       6.555   3.447  13.261  0.00  0.00    +0.000 C 
ATOM     10  C   UNL     1       7.092   4.820  12.948  0.00  0.00    +0.000 C 
ATOM     11  O   UNL     1       7.419   5.398  14.221  0.00  0.00    +0.000 OA
ATOM     12  C   UNL     1       5.278   6.026  15.127  0.00  0.00    +0.000 C 
ATOM     13  C   UNL     1       5.598   7.271  15.958  0.00  0.00    +0.000 C 
ENDBRANCH   3   4
BRANCH   2  14
ATOM     14  C   UNL     1       3.626   4.747  19.820  0.00  0.00    +0.000 A 
ATOM     15  C   UNL     1       2.887   5.014  20.956  0.00  0.00    +0.000 A 
ATOM     16  S   UNL     1       2.029   3.640  21.509  0.00  0.00    +0.000 S 
ATOM     17  C   UNL     1       2.157   2.887  19.976  0.00  0.00    +0.000 A 
ATOM     18  C   UNL     1       1.529   1.692  19.573  0.00  0.00    +0.000 A 
ATOM     19  C   UNL     1       1.511   1.373  18.217  0.00  0.00    +0.000 A 
ATOM     20  C   UNL     1       2.176   2.176  17.303  0.00  0.00    +0.000 A 
ATOM     21  C   UNL     1       2.941   3.265  17.741  0.00  0.00    +0.000 A 
ATOM     22  C   UNL     1       2.939   3.658  19.107  0.00  0.00    +0.000 A 
ENDBRANCH   2  14
BRANCH   3  23
ATOM     23  C   UNL     1       3.381   6.911  17.601  0.00  0.00    +0.000 C 
BRANCH  23  24
ATOM     24  C   UNL     1       2.911   8.356  17.819  0.00  0.00    +0.000 C 
BRANCH  24  25
ATOM     25  C   UNL     1       1.930   8.663  18.914  0.00  0.00    +0.000 A 
ATOM     26  C   UNL     1       1.902   7.920  20.100  0.00  0.00    +0.000 A 
ATOM     27  C   UNL     1       1.076   8.316  21.152  0.00  0.00    +0.000 A 
ATOM     28  C   UNL     1       0.282   9.456  21.030  0.00  0.00    +0.000 A 
ATOM     29 CL   UNL     1      -0.692   9.966  22.353  0.00  0.00    +0.000 Cl
ATOM     30  C   UNL     1       0.295  10.201  19.856  0.00  0.00    +0.000 A 
ATOM     31  C   UNL     1       1.116   9.807  18.802  0.00  0.00    +0.000 A 
ENDBRANCH  24  25
ENDBRANCH  23  24
ENDBRANCH   3  23
TORSDOF 5
ENDMDL
MODEL 4
REMARK VINA RESULT:      -7.3      1.401      2.180
REMARK  Name = 
REMARK  5 active torsions:
REMARK  status: ('A' for Active; 'I' for Inactive)
REMARK    1  A    between atoms: C_2  and  C_3
REMARK    2  A    between atoms: N_12  and  C_13
REMARK    3  A    between atoms: N_12  and  C_22
REMARK    4  A    between atoms: C_13  and  C_14
REMARK    5  A    between atoms: C_14  and  C_15
REMARK                            x       y       z     vdW  Elec       q    Type
REMARK                         _______ _______ _______ _____ _____    ______ ____
ROOT
ATOM      1  O   UNL     1       6.098   4.859  19.896  0.00  0.00    +0.000 OA
ATOM      2  C   UNL     1       5.082   5.266  19.329  0.00  0.00    +0.000 C 
ATOM      3  N   UNL     1       5.165   6.240  18.307  0.00  0.00    +0.000 N 
ENDROOT
BRANCH   3   4
ATOM      4  C   UNL     1       6.495   6.573  17.652  0.00  0.00    +0.000 C 
ATOM      5  C   UNL     1       7.557   5.473  17.440  0.00  0.00    +0.000 C 
ATOM      6  C   UNL     1       7.114   4.389  16.460  0.00  0.00    +0.000 C 
ATOM      7  C   UNL     1       6.568   4.904  15.116  0.00  0.00    +0.000 C 
ATOM      8  C   UNL     1       5.778   3.784  14.413  0.00  0.00    +0.000 C 
ATOM      9  C   UNL     1       6.376   3.665  13.030  0.00  0.00    +0.000 C 
ATOM     10  C   UNL     1       7.221   4.905  12.893  0.00  0.00    +0.000 C 
ATOM     11  O   UNL     1       7.663   5.212  14.224  0.00  0.00    +0.000 OA
ATOM     12  C   UNL     1       5.720   6.188  15.259  0.00  0.00    +0.000 C 
ATOM     13  C   UNL     1       6.316   7.198  16.243  0.00  0.00    +0.000 C 
ENDBRANCH   3   4
BRANCH   2  14
ATOM     14  C   UNL     1       3.780   4.694  19.775  0.00  0.00    +0.000 A 
ATOM     15  C   UNL     1       2.970   5.167  20.789  0.00  0.00    +0.000 A 
ATOM     16  S   UNL     1       1.860   3.984  21.337  0.00  0.00    +0.000 S 
ATOM     17  C   UNL     1       2.040   3.081  19.893  0.00  0.00    +0.000 A 
ATOM     18  C   UNL     1       1.288   1.953  19.510  0.00  0.00    +0.000 A 
ATOM     19  C   UNL     1       1.371   1.514  18.190  0.00  0.00    +0.000 A 
ATOM     20  C   UNL     1       2.245   2.127  17.305  0.00  0.00    +0.000 A 
ATOM     21  C   UNL     1       3.112   3.134  17.748  0.00  0.00    +0.000 A 
ATOM     22  C   UNL     1       3.020   3.650  19.070  0.00  0.00    +0.000 A 
ENDBRANCH   2  14
BRANCH   3  23
ATOM     23  C   UNL     1       4.063   7.139  17.876  0.00  0.00    +0.000 C 
BRANCH  23  24
ATOM     24  C   UNL     1       2.613   7.016  18.368  0.00  0.00    +0.000 C 
BRANCH  24  25
ATOM     25  C   UNL     1       1.888   8.235  18.859  0.00  0.00    +0.000 A 
ATOM     26  C   UNL     1       1.448   9.229  17.978  0.00  0.00    +0.000 A 
ATOM     27  C   UNL     1       0.657  10.278  18.447  0.00  0.00    +0.000 A 
ATOM     28  C   UNL     1       0.296  10.337  19.793  0.00  0.00    +0.000 A 
ATOM     29 CL   UNL     1      -0.724  11.604  20.351  0.00  0.00    +0.000 Cl
ATOM     30  C   UNL     1       0.730   9.360  20.682  0.00  0.00    +0.000 A 
ATOM     31  C   UNL     1       1.523   8.312  20.217  0.00  0.00    +0.000 A 
ENDBRANCH  24  25
ENDBRANCH  23  24
ENDBRANCH   3  23
TORSDOF 5
ENDMDL
MODEL 5
REMARK VINA RESULT:      -7.1      1.593      2.310
REMARK  Name = 
REMARK  5 active torsions:
REMARK  status: ('A' for Active; 'I' for Inactive)
REMARK    1  A    between atoms: C_2  and  C_3
REMARK    2  A    between atoms: N_12  and  C_13
REMARK    3  A    between atoms: N_12  and  C_22
REMARK    4  A    between atoms: C_13  and  C_14
REMARK    5  A    between atoms: C_14  and  C_15
REMARK                            x       y       z     vdW  Elec       q    Type
REMARK                         _______ _______ _______ _____ _____    ______ ____
ROOT
ATOM      1  O   UNL     1       5.952   5.307  19.857  0.00  0.00    +0.000 OA
ATOM      2  C   UNL     1       4.891   5.522  19.268  0.00  0.00    +0.000 C 
ATOM      3  N   UNL     1       4.841   6.410  18.169  0.00  0.00    +0.000 N 
ENDROOT
BRANCH   3   4
ATOM      4  C   UNL     1       6.113   6.867  17.476  0.00  0.00    +0.000 C 
ATOM      5  C   UNL     1       7.327   5.920  17.370  0.00  0.00    +0.000 C 
ATOM      6  C   UNL     1       7.057   4.688  16.508  0.00  0.00    +0.000 C 
ATOM      7  C   UNL     1       6.454   4.978  15.122  0.00  0.00    +0.000 C 
ATOM      8  C   UNL     1       5.844   3.688  14.542  0.00  0.00    +0.000 C 
ATOM      9  C   UNL     1       6.466   3.518  13.174  0.00  0.00    +0.000 C 
ATOM     10  C   UNL     1       7.120   4.849  12.907  0.00  0.00    +0.000 C 
ATOM     11  O   UNL     1       7.500   5.351  14.197  0.00  0.00    +0.000 OA
ATOM     12  C   UNL     1       5.425   6.131  15.139  0.00  0.00    +0.000 C 
ATOM     13  C   UNL     1       5.856   7.312  16.011  0.00  0.00    +0.000 C 
ENDBRANCH   3   4
BRANCH   2  14
ATOM     14  C   UNL     1       3.680   4.815  19.773  0.00  0.00    +0.000 A 
ATOM     15  C   UNL     1       2.900   5.176  20.855  0.00  0.00    +0.000 A 
ATOM     16  S   UNL     1       1.941   3.876  21.425  0.00  0.00    +0.000 S 
ATOM     17  C   UNL     1       2.107   3.043  19.937  0.00  0.00    +0.000 A 
ATOM     18  C   UNL     1       1.437   1.863  19.558  0.00  0.00    +0.000 A 
ATOM     19  C   UNL     1       1.471   1.479  18.219  0.00  0.00    +0.000 A 
ATOM     20  C   UNL     1       2.224   2.200  17.306  0.00  0.00    +0.000 A 
ATOM     21  C   UNL     1       3.023   3.269  17.732  0.00  0.00    +0.000 A 
ATOM     22  C   UNL     1       2.973   3.729  19.077  0.00  0.00    +0.000 A 
ENDBRANCH   2  14
BRANCH   3  23
ATOM     23  C   UNL     1       3.626   7.109  17.676  0.00  0.00    +0.000 C 
BRANCH  23  24
ATOM     24  C   UNL     1       2.359   7.324  18.516  0.00  0.00    +0.000 C 
BRANCH  24  25
ATOM     25  C   UNL     1       1.825   8.713  18.718  0.00  0.00    +0.000 A 
ATOM     26  C   UNL     1       1.031   9.038  19.824  0.00  0.00    +0.000 A 
ATOM     27  C   UNL     1       0.668  10.365  20.056  0.00  0.00    +0.000 A 
ATOM     28  C   UNL     1       1.099  11.371  19.193  0.00  0.00    +0.000 A 
ATOM     29 CL   UNL     1       0.691  13.011  19.518  0.00  0.00    +0.000 Cl
ATOM     30  C   UNL     1       1.883  11.064  18.087  0.00  0.00    +0.000 A 
ATOM     31  C   UNL     1       2.246   9.739  17.850  0.00  0.00    +0.000 A 
ENDBRANCH  24  25
ENDBRANCH  23  24
ENDBRANCH   3  23
TORSDOF 5
ENDMDL
MODEL 6
REMARK VINA RESULT:      -7.0      6.671      9.974
REMARK  Name = 
REMARK  5 active torsions:
REMARK  status: ('A' for Active; 'I' for Inactive)
REMARK    1  A    between atoms: C_2  and  C_3
REMARK    2  A    between atoms: N_12  and  C_13
REMARK    3  A    between atoms: N_12  and  C_22
REMARK    4  A    between atoms: C_13  and  C_14
REMARK    5  A    between atoms: C_14  and  C_15
REMARK                            x       y       z     vdW  Elec       q    Type
REMARK                         _______ _______ _______ _____ _____    ______ ____
ROOT
ATOM      1  O   UNL     1       0.012  12.863  22.927  0.00  0.00    +0.000 OA
ATOM      2  C   UNL     1      -0.277  12.511  21.783  0.00  0.00    +0.000 C 
ATOM      3  N   UNL     1      -0.743  13.450  20.833  0.00  0.00    +0.000 N 
ENDROOT
BRANCH   3   4
ATOM      4  C   UNL     1      -0.594  14.942  21.073  0.00  0.00    +0.000 C 
ATOM      5  C   UNL     1       0.746  15.522  21.573  0.00  0.00    +0.000 C 
ATOM      6  C   UNL     1       1.884  15.364  20.565  0.00  0.00    +0.000 C 
ATOM      7  C   UNL     1       1.565  15.844  19.138  0.00  0.00    +0.000 C 
ATOM      8  C   UNL     1       2.592  15.255  18.152  0.00  0.00    +0.000 C 
ATOM      9  C   UNL     1       3.156  16.434  17.392  0.00  0.00    +0.000 C 
ATOM     10  C   UNL     1       2.216  17.563  17.727  0.00  0.00    +0.000 C 
ATOM     11  O   UNL     1       1.735  17.277  19.049  0.00  0.00    +0.000 OA
ATOM     12  C   UNL     1       0.118  15.527  18.701  0.00  0.00    +0.000 C 
ATOM     13  C   UNL     1      -0.914  15.776  19.803  0.00  0.00    +0.000 C 
ENDBRANCH   3   4
BRANCH   2  14
ATOM     14  C   UNL     1      -0.122  11.065  21.458  0.00  0.00    +0.000 A 
ATOM     15  C   UNL     1      -0.783  10.006  22.051  0.00  0.00    +0.000 A 
ATOM     16  S   UNL     1       0.016   8.515  21.787  0.00  0.00    +0.000 S 
ATOM     17  C   UNL     1       0.871   9.157  20.449  0.00  0.00    +0.000 A 
ATOM     18  C   UNL     1       1.691   8.441  19.555  0.00  0.00    +0.000 A 
ATOM     19  C   UNL     1       2.079   9.058  18.367  0.00  0.00    +0.000 A 
ATOM     20  C   UNL     1       1.735  10.377  18.122  0.00  0.00    +0.000 A 
ATOM     21  C   UNL     1       1.067  11.129  19.098  0.00  0.00    +0.000 A 
ATOM     22  C   UNL     1       0.603  10.523  20.298  0.00  0.00    +0.000 A 
ENDBRANCH   2  14
BRANCH   3  23
ATOM     23  C   UNL     1      -1.544  13.132  19.623  0.00  0.00    +0.000 C 
BRANCH  23  24
ATOM     24  C   UNL     1      -2.666  12.083  19.587  0.00  0.00    +0.000 C 
BRANCH  24  25
ATOM     25  C   UNL     1      -3.046  11.443  18.283  0.00  0.00    +0.000 A 
ATOM     26  C   UNL     1      -4.228  11.784  17.618  0.00  0.00    +0.000 A 
ATOM     27  C   UNL     1      -4.484  11.275  16.344  0.00  0.00    +0.000 A 
ATOM     28  C   UNL     1      -3.560  10.433  15.727  0.00  0.00    +0.000 A 
ATOM     29 CL   UNL     1      -3.860   9.856  14.134  0.00  0.00    +0.000 Cl
ATOM     30  C   UNL     1      -2.383  10.081  16.377  0.00  0.00    +0.000 A 
ATOM     31  C   UNL     1      -2.126  10.584  17.651  0.00  0.00    +0.000 A 
ENDBRANCH  24  25
ENDBRANCH  23  24
ENDBRANCH   3  23
TORSDOF 5
ENDMDL
MODEL 7
REMARK VINA RESULT:      -6.8      4.003      7.128
REMARK  Name = 
REMARK  5 active torsions:
REMARK  status: ('A' for Active; 'I' for Inactive)
REMARK    1  A    between atoms: C_2  and  C_3
REMARK    2  A    between atoms: N_12  and  C_13
REMARK    3  A    between atoms: N_12  and  C_22
REMARK    4  A    between atoms: C_13  and  C_14
REMARK    5  A    between atoms: C_14  and  C_15
REMARK                            x       y       z     vdW  Elec       q    Type
REMARK                         _______ _______ _______ _____ _____    ______ ____
ROOT
ATOM      1  O   UNL     1       1.927   8.794  17.024  0.00  0.00    +0.000 OA
ATOM      2  C   UNL     1       1.527   8.938  18.180  0.00  0.00    +0.000 C 
ATOM      3  N   UNL     1       1.955   8.065  19.207  0.00  0.00    +0.000 N 
ENDROOT
BRANCH   3   4
ATOM      4  C   UNL     1       3.148   7.146  19.004  0.00  0.00    +0.000 C 
ATOM      5  C   UNL     1       3.546   6.133  20.098  0.00  0.00    +0.000 C 
ATOM      6  C   UNL     1       2.493   5.051  20.331  0.00  0.00    +0.000 C 
ATOM      7  C   UNL     1       2.000   4.335  19.061  0.00  0.00    +0.000 C 
ATOM      8  C   UNL     1       0.679   3.602  19.360  0.00  0.00    +0.000 C 
ATOM      9  C   UNL     1       0.894   2.171  18.925  0.00  0.00    +0.000 C 
ATOM     10  C   UNL     1       2.163   2.227  18.114  0.00  0.00    +0.000 C 
ATOM     11  O   UNL     1       2.932   3.295  18.686  0.00  0.00    +0.000 OA
ATOM     12  C   UNL     1       1.858   5.281  17.848  0.00  0.00    +0.000 C 
ATOM     13  C   UNL     1       3.011   6.280  17.723  0.00  0.00    +0.000 C 
ENDBRANCH   3   4
BRANCH   2  14
ATOM     14  C   UNL     1       0.576  10.057  18.435  0.00  0.00    +0.000 A 
ATOM     15  C   UNL     1      -0.752   9.949  18.801  0.00  0.00    +0.000 A 
ATOM     16  S   UNL     1      -1.625  11.391  18.499  0.00  0.00    +0.000 S 
ATOM     17  C   UNL     1      -0.180  12.309  18.444  0.00  0.00    +0.000 A 
ATOM     18  C   UNL     1      -0.079  13.711  18.364  0.00  0.00    +0.000 A 
ATOM     19  C   UNL     1       1.156  14.306  18.613  0.00  0.00    +0.000 A 
ATOM     20  C   UNL     1       2.274  13.520  18.846  0.00  0.00    +0.000 A 
ATOM     21  C   UNL     1       2.192  12.125  18.751  0.00  0.00    +0.000 A 
ATOM     22  C   UNL     1       0.941  11.477  18.556  0.00  0.00    +0.000 A 
ENDBRANCH   2  14
BRANCH   3  23
ATOM     23  C   UNL     1       1.240   7.816  20.485  0.00  0.00    +0.000 C 
BRANCH  23  24
ATOM     24  C   UNL     1       1.528   8.571  21.791  0.00  0.00    +0.000 C 
BRANCH  24  25
ATOM     25  C   UNL     1       0.635   9.704  22.208  0.00  0.00    +0.000 A 
ATOM     26  C   UNL     1       0.845  11.008  21.746  0.00  0.00    +0.000 A 
ATOM     27  C   UNL     1      -0.081  12.010  22.039  0.00  0.00    +0.000 A 
ATOM     28  C   UNL     1      -1.221  11.715  22.787  0.00  0.00    +0.000 A 
ATOM     29 CL   UNL     1      -2.383  12.944  23.096  0.00  0.00    +0.000 Cl
ATOM     30  C   UNL     1      -1.440  10.425  23.258  0.00  0.00    +0.000 A 
ATOM     31  C   UNL     1      -0.516   9.423  22.969  0.00  0.00    +0.000 A 
ENDBRANCH  24  25
ENDBRANCH  23  24
ENDBRANCH   3  23
TORSDOF 5
ENDMDL
MODEL 8
REMARK VINA RESULT:      -6.8      6.060     10.850
REMARK  Name = 
REMARK  5 active torsions:
REMARK  status: ('A' for Active; 'I' for Inactive)
REMARK    1  A    between atoms: C_2  and  C_3
REMARK    2  A    between atoms: N_12  and  C_13
REMARK    3  A    between atoms: N_12  and  C_22
REMARK    4  A    between atoms: C_13  and  C_14
REMARK    5  A    between atoms: C_14  and  C_15
REMARK                            x       y       z     vdW  Elec       q    Type
REMARK                         _______ _______ _______ _____ _____    ______ ____
ROOT
ATOM      1  O   UNL     1      -0.471  13.147  17.977  0.00  0.00    +0.000 OA
ATOM      2  C   UNL     1      -1.043  12.170  18.463  0.00  0.00    +0.000 C 
ATOM      3  N   UNL     1      -0.567  11.572  19.653  0.00  0.00    +0.000 N 
ENDROOT
BRANCH   3   4
ATOM      4  C   UNL     1       0.438  12.287  20.539  0.00  0.00    +0.000 C 
ATOM      5  C   UNL     1       0.556  13.826  20.499  0.00  0.00    +0.000 C 
ATOM      6  C   UNL     1      -0.699  14.540  20.997  0.00  0.00    +0.000 C 
ATOM      7  C   UNL     1      -1.231  14.057  22.358  0.00  0.00    +0.000 C 
ATOM      8  C   UNL     1      -2.686  14.526  22.543  0.00  0.00    +0.000 C 
ATOM      9  C   UNL     1      -2.719  15.253  23.868  0.00  0.00    +0.000 C 
ATOM     10  C   UNL     1      -1.409  14.884  24.515  0.00  0.00    +0.000 C 
ATOM     11  O   UNL     1      -0.492  14.688  23.429  0.00  0.00    +0.000 OA
ATOM     12  C   UNL     1      -1.101  12.530  22.551  0.00  0.00    +0.000 C 
ATOM     13  C   UNL     1       0.228  11.967  22.043  0.00  0.00    +0.000 C 
ENDBRANCH   3   4
BRANCH   2  14
ATOM     14  C   UNL     1      -2.238  11.652  17.738  0.00  0.00    +0.000 A 
ATOM     15  C   UNL     1      -2.243  10.801  16.649  0.00  0.00    +0.000 A 
ATOM     16  S   UNL     1      -3.728  10.849  15.798  0.00  0.00    +0.000 S 
ATOM     17  C   UNL     1      -4.536  11.517  17.153  0.00  0.00    +0.000 A 
ATOM     18  C   UNL     1      -5.922  11.729  17.282  0.00  0.00    +0.000 A 
ATOM     19  C   UNL     1      -6.438  12.012  18.545  0.00  0.00    +0.000 A 
ATOM     20  C   UNL     1      -5.587  12.167  19.627  0.00  0.00    +0.000 A 
ATOM     21  C   UNL     1      -4.198  12.124  19.448  0.00  0.00    +0.000 A 
ATOM     22  C   UNL     1      -3.632  11.781  18.189  0.00  0.00    +0.000 A 
ENDBRANCH   2  14
BRANCH   3  23
ATOM     23  C   UNL     1      -0.836  10.176  20.089  0.00  0.00    +0.000 C 
BRANCH  23  24
ATOM     24  C   UNL     1       0.214   9.262  20.737  0.00  0.00    +0.000 C 
BRANCH  24  25
ATOM     25  C   UNL     1       1.271   8.621  19.884  0.00  0.00    +0.000 A 
ATOM     26  C   UNL     1       1.927   7.453  20.288  0.00  0.00    +0.000 A 
ATOM     27  C   UNL     1       2.801   6.806  19.414  0.00  0.00    +0.000 A 
ATOM     28  C   UNL     1       3.020   7.316  18.135  0.00  0.00    +0.000 A 
ATOM     29 CL   UNL     1       4.058   6.482  17.046  0.00  0.00    +0.000 Cl
ATOM     30  C   UNL     1       2.380   8.479  17.721  0.00  0.00    +0.000 A 
ATOM     31  C   UNL     1       1.508   9.130  18.593  0.00  0.00    +0.000 A 
ENDBRANCH  24  25
ENDBRANCH  23  24
ENDBRANCH   3  23
TORSDOF 5
ENDMDL
MODEL 9
REMARK VINA RESULT:      -6.7      6.467     11.264
REMARK  Name = 
REMARK  5 active torsions:
REMARK  status: ('A' for Active; 'I' for Inactive)
REMARK    1  A    between atoms: C_2  and  C_3
REMARK    2  A    between atoms: N_12  and  C_13
REMARK    3  A    between atoms: N_12  and  C_22
REMARK    4  A    between atoms: C_13  and  C_14
REMARK    5  A    between atoms: C_14  and  C_15
REMARK                            x       y       z     vdW  Elec       q    Type
REMARK                         _______ _______ _______ _____ _____    ______ ____
ROOT
ATOM      1  O   UNL     1      -0.463  13.386  17.969  0.00  0.00    +0.000 OA
ATOM      2  C   UNL     1      -0.999  12.596  18.747  0.00  0.00    +0.000 C 
ATOM      3  N   UNL     1      -0.596  12.530  20.101  0.00  0.00    +0.000 N 
ENDROOT
BRANCH   3   4
ATOM      4  C   UNL     1       0.255  13.627  20.717  0.00  0.00    +0.000 C 
ATOM      5  C   UNL     1       0.211  15.061  20.147  0.00  0.00    +0.000 C 
ATOM      6  C   UNL     1      -1.148  15.736  20.320  0.00  0.00    +0.000 C 
ATOM      7  C   UNL     1      -1.729  15.684  21.744  0.00  0.00    +0.000 C 
ATOM      8  C   UNL     1      -3.236  15.999  21.702  0.00  0.00    +0.000 C 
ATOM      9  C   UNL     1      -3.449  17.124  22.688  0.00  0.00    +0.000 C 
ATOM     10  C   UNL     1      -2.162  17.169  23.470  0.00  0.00    +0.000 C 
ATOM     11  O   UNL     1      -1.147  16.731  22.554  0.00  0.00    +0.000 OA
ATOM     12  C   UNL     1      -1.453  14.345  22.462  0.00  0.00    +0.000 C 
ATOM     13  C   UNL     1      -0.035  13.816  22.230  0.00  0.00    +0.000 C 
ENDBRANCH   3   4
BRANCH   2  14
ATOM     14  C   UNL     1      -2.070  11.719  18.195  0.00  0.00    +0.000 A 
ATOM     15  C   UNL     1      -1.899  10.594  17.412  0.00  0.00    +0.000 A 
ATOM     16  S   UNL     1      -3.326  10.172  16.564  0.00  0.00    +0.000 S 
ATOM     17  C   UNL     1      -4.292  11.085  17.645  0.00  0.00    +0.000 A 
ATOM     18  C   UNL     1      -5.700  11.122  17.684  0.00  0.00    +0.000 A 
ATOM     19  C   UNL     1      -6.320  11.688  18.796  0.00  0.00    +0.000 A 
ATOM     20  C   UNL     1      -5.560  12.278  19.794  0.00  0.00    +0.000 A 
ATOM     21  C   UNL     1      -4.170  12.386  19.656  0.00  0.00    +0.000 A 
ATOM     22  C   UNL     1      -3.492  11.772  18.566  0.00  0.00    +0.000 A 
ENDBRANCH   2  14
BRANCH   3  23
ATOM     23  C   UNL     1      -0.793  11.369  21.008  0.00  0.00    +0.000 C 
BRANCH  23  24
ATOM     24  C   UNL     1       0.340  10.447  21.481  0.00  0.00    +0.000 C 
BRANCH  24  25
ATOM     25  C   UNL     1       0.913   9.427  20.539  0.00  0.00    +0.000 A 
ATOM     26  C   UNL     1       1.184   9.738  19.202  0.00  0.00    +0.000 A 
ATOM     27  C   UNL     1       1.844   8.814  18.390  0.00  0.00    +0.000 A 
ATOM     28  C   UNL     1       2.242   7.583  18.910  0.00  0.00    +0.000 A 
ATOM     29 CL   UNL     1       3.103   6.473  17.917  0.00  0.00    +0.000 Cl
ATOM     30  C   UNL     1       1.976   7.258  20.235  0.00  0.00    +0.000 A 
ATOM     31  C   UNL     1       1.314   8.177  21.048  0.00  0.00    +0.000 A 
ENDBRANCH  24  25
ENDBRANCH  23  24
ENDBRANCH   3  23
TORSDOF 5
ENDMDL
