MODEL 1
REMARK VINA RESULT:      -8.2      0.000      0.000
REMARK  Name = 
REMARK  9 active torsions:
REMARK  status: ('A' for Active; 'I' for Inactive)
REMARK    1  A    between atoms: C_1  and  C_2
REMARK    2  A    between atoms: C_4  and  C_5
REMARK    3  A    between atoms: C_5  and  C_6
REMARK    4  A    between atoms: C_5  and  N_7
REMARK    5  A    between atoms: C_8  and  C_10
REMARK    6  A    between atoms: C_13  and  C_14
REMARK    7  A    between atoms: C_14  and  C_15
REMARK    8  A    between atoms: C_18  and  C_19
REMARK    9  A    between atoms: C_25  and  C_26
REMARK                            x       y       z     vdW  Elec       q    Type
REMARK                         _______ _______ _______ _____ _____    ______ ____
ROOT
ATOM      1  C   UNL     1       1.948   7.426  19.849  0.00  0.00    +0.000 A 
ATOM      2  N   UNL     1       1.391   7.699  21.077  0.00  0.00    +0.000 N 
ATOM      3  C   UNL     1       0.951   8.996  21.123  0.00  0.00    +0.000 A 
ATOM      4  C   UNL     1       1.225   9.605  19.912  0.00  0.00    +0.000 A 
ATOM      5  C   UNL     1       1.834   8.594  19.092  0.00  0.00    +0.000 A 
ATOM      6  C   UNL     1       2.282   8.741  17.675  0.00  0.00    +0.000 C 
ATOM      7  H   UNL     1       1.358   7.047  21.850  0.00  0.00    +0.000 HD
ENDROOT
BRANCH   1   9
ATOM      8  N   UNL     1       3.754   6.278  18.743  0.00  0.00    +0.000 N 
ATOM      9  C   UNL     1       2.583   6.178  19.462  0.00  0.00    +0.000 C 
ATOM     10  O   UNL     1       2.119   5.077  19.764  0.00  0.00    +0.000 OA
ATOM     11  H   UNL     1       4.252   7.152  18.652  0.00  0.00    +0.000 HD
BRANCH   8  12
ATOM     12  C   UNL     1       4.484   5.082  18.362  0.00  0.00    +0.000 C 
ATOM     13  C   UNL     1       5.636   4.789  19.323  0.00  0.00    +0.000 C 
BRANCH  12  17
ATOM     14  C   UNL     1       6.077   3.909  13.775  0.00  0.00    +0.000 C 
ATOM     15  C   UNL     1       5.657   4.643  14.991  0.00  0.00    +0.000 A 
ATOM     16  N   UNL     1       5.324   4.141  16.164  0.00  0.00    +0.000 NA
ATOM     17  C   UNL     1       4.984   5.225  16.954  0.00  0.00    +0.000 A 
ATOM     18  C   UNL     1       5.136   6.394  16.236  0.00  0.00    +0.000 A 
ATOM     19  N   UNL     1       5.559   6.012  14.999  0.00  0.00    +0.000 N 
ATOM     20  H   UNL     1       5.749   6.622  14.216  0.00  0.00    +0.000 HD
ENDBRANCH  12  17
ENDBRANCH   8  12
ENDBRANCH   1   9
BRANCH   4  21
ATOM     21  C   UNL     1       0.895  11.018  19.528  0.00  0.00    +0.000 C 
BRANCH  21  22
ATOM     22  C   UNL     1      -0.523  11.030  19.020  0.00  0.00    +0.000 A 
ATOM     23  C   UNL     1      -0.943  10.222  17.960  0.00  0.00    +0.000 A 
ATOM     24  C   UNL     1      -2.269  10.261  17.530  0.00  0.00    +0.000 A 
ATOM     25  C   UNL     1      -3.171  11.106  18.178  0.00  0.00    +0.000 A 
ATOM     26  N   UNL     1      -2.786  11.888  19.228  0.00  0.00    +0.000 NA
ATOM     27  C   UNL     1      -1.487  11.835  19.613  0.00  0.00    +0.000 A 
BRANCH  25  28
ATOM     28  C   UNL     1      -4.618  11.168  17.705  0.00  0.00    +0.000 C 
ATOM     29  F   UNL     1      -5.186  12.403  17.863  0.00  0.00    +0.000 F 
ATOM     30  F   UNL     1      -4.765  10.877  16.379  0.00  0.00    +0.000 F 
ATOM     31  F   UNL     1      -5.441  10.308  18.372  0.00  0.00    +0.000 F 
ENDBRANCH  25  28
ENDBRANCH  21  22
ENDBRANCH   4  21
TORSDOF 6
ENDMDL
MODEL 2
REMARK VINA RESULT:      -8.1      1.115      1.463
REMARK  Name = 
REMARK  9 active torsions:
REMARK  status: ('A' for Active; 'I' for Inactive)
REMARK    1  A    between atoms: C_1  and  C_2
REMARK    2  A    between atoms: C_4  and  C_5
REMARK    3  A    between atoms: C_5  and  C_6
REMARK    4  A    between atoms: C_5  and  N_7
REMARK    5  A    between atoms: C_8  and  C_10
REMARK    6  A    between atoms: C_13  and  C_14
REMARK    7  A    between atoms: C_14  and  C_15
REMARK    8  A    between atoms: C_18  and  C_19
REMARK    9  A    between atoms: C_25  and  C_26
REMARK                            x       y       z     vdW  Elec       q    Type
REMARK                         _______ _______ _______ _____ _____    ______ ____
ROOT
ATOM      1  C   UNL     1       2.423   7.708  18.547  0.00  0.00    +0.000 A 
ATOM      2  N   UNL     1       2.518   8.611  17.514  0.00  0.00    +0.000 N 
ATOM      3  C   UNL     1       1.840   9.761  17.820  0.00  0.00    +0.000 A 
ATOM      4  C   UNL     1       1.273   9.625  19.075  0.00  0.00    +0.000 A 
ATOM      5  C   UNL     1       1.670   8.327  19.548  0.00  0.00    +0.000 A 
ATOM      6  C   UNL     1       1.344   7.719  20.872  0.00  0.00    +0.000 C 
ATOM      7  H   UNL     1       2.982   8.428  16.633  0.00  0.00    +0.000 HD
ENDROOT
BRANCH   1   9
ATOM      8  N   UNL     1       4.251   6.203  18.106  0.00  0.00    +0.000 N 
ATOM      9  C   UNL     1       2.954   6.356  18.547  0.00  0.00    +0.000 C 
ATOM     10  O   UNL     1       2.298   5.386  18.929  0.00  0.00    +0.000 OA
ATOM     11  H   UNL     1       4.867   6.992  17.973  0.00  0.00    +0.000 HD
BRANCH   8  12
ATOM     12  C   UNL     1       4.880   4.894  18.122  0.00  0.00    +0.000 C 
ATOM     13  C   UNL     1       5.727   4.687  19.377  0.00  0.00    +0.000 C 
BRANCH  12  17
ATOM     14  C   UNL     1       6.161   3.816  13.416  0.00  0.00    +0.000 C 
ATOM     15  C   UNL     1       6.183   4.238  14.836  0.00  0.00    +0.000 A 
ATOM     16  N   UNL     1       5.198   4.182  15.712  0.00  0.00    +0.000 NA
ATOM     17  C   UNL     1       5.707   4.717  16.882  0.00  0.00    +0.000 A 
ATOM     18  C   UNL     1       7.025   5.082  16.698  0.00  0.00    +0.000 A 
ATOM     19  N   UNL     1       7.312   4.776  15.402  0.00  0.00    +0.000 N 
ATOM     20  H   UNL     1       8.191   4.934  14.931  0.00  0.00    +0.000 HD
ENDBRANCH  12  17
ENDBRANCH   8  12
ENDBRANCH   1   9
BRANCH   4  21
ATOM     21  C   UNL     1       0.459  10.655  19.803  0.00  0.00    +0.000 C 
BRANCH  21  22
ATOM     22  C   UNL     1      -0.857  10.784  19.082  0.00  0.00    +0.000 A 
ATOM     23  C   UNL     1      -1.188   9.986  17.984  0.00  0.00    +0.000 A 
ATOM     24  C   UNL     1      -2.422  10.137  17.353  0.00  0.00    +0.000 A 
ATOM     25  C   UNL     1      -3.325  11.084  17.837  0.00  0.00    +0.000 A 
ATOM     26  N   UNL     1      -3.029  11.860  18.920  0.00  0.00    +0.000 NA
ATOM     27  C   UNL     1      -1.816  11.697  19.503  0.00  0.00    +0.000 A 
BRANCH  25  28
ATOM     28  C   UNL     1      -4.669  11.268  17.144  0.00  0.00    +0.000 C 
ATOM     29  F   UNL     1      -5.059  12.577  17.058  0.00  0.00    +0.000 F 
ATOM     30  F   UNL     1      -4.680  10.809  15.858  0.00  0.00    +0.000 F 
ATOM     31  F   UNL     1      -5.694  10.630  17.779  0.00  0.00    +0.000 F 
ENDBRANCH  25  28
ENDBRANCH  21  22
ENDBRANCH   4  21
TORSDOF 6
ENDMDL
MODEL 3
REMARK VINA RESULT:      -7.9      0.976      1.305
REMARK  Name = 
REMARK  9 active torsions:
REMARK  status: ('A' for Active; 'I' for Inactive)
REMARK    1  A    between atoms: C_1  and  C_2
REMARK    2  A    between atoms: C_4  and  C_5
REMARK    3  A    between atoms: C_5  and  C_6
REMARK    4  A    between atoms: C_5  and  N_7
REMARK    5  A    between atoms: C_8  and  C_10
REMARK    6  A    between atoms: C_13  and  C_14
REMARK    7  A    between atoms: C_14  and  C_15
REMARK    8  A    between atoms: C_18  and  C_19
REMARK    9  A    between atoms: C_25  and  C_26
REMARK                            x       y       z     vdW  Elec       q    Type
REMARK                         _______ _______ _______ _____ _____    ______ ____
ROOT
ATOM      1  C   UNL     1       2.033   6.784  19.603  0.00  0.00    +0.000 A 
ATOM      2  N   UNL     1       1.592   7.042  20.880  0.00  0.00    +0.000 N 
ATOM      3  C   UNL     1       1.266   8.366  21.015  0.00  0.00    +0.000 A 
ATOM      4  C   UNL     1       1.501   9.008  19.812  0.00  0.00    +0.000 A 
ATOM      5  C   UNL     1       1.963   7.992  18.907  0.00  0.00    +0.000 A 
ATOM      6  C   UNL     1       2.317   8.171  17.467  0.00  0.00    +0.000 C 
ATOM      7  H   UNL     1       1.561   6.358  21.626  0.00  0.00    +0.000 HD
ENDROOT
BRANCH   1   9
ATOM      8  N   UNL     1       3.901   5.382  19.012  0.00  0.00    +0.000 N 
ATOM      9  C   UNL     1       2.533   5.509  19.117  0.00  0.00    +0.000 C 
ATOM     10  O   UNL     1       1.786   4.574  18.822  0.00  0.00    +0.000 OA
ATOM     11  H   UNL     1       4.534   6.052  19.425  0.00  0.00    +0.000 HD
BRANCH   8  12
ATOM     12  C   UNL     1       4.488   4.124  18.586  0.00  0.00    +0.000 C 
ATOM     13  C   UNL     1       4.976   3.293  19.773  0.00  0.00    +0.000 C 
BRANCH  12  17
ATOM     14  C   UNL     1       6.980   4.798  14.309  0.00  0.00    +0.000 C 
ATOM     15  C   UNL     1       6.615   4.677  15.740  0.00  0.00    +0.000 A 
ATOM     16  N   UNL     1       5.451   4.327  16.251  0.00  0.00    +0.000 NA
ATOM     17  C   UNL     1       5.609   4.392  17.624  0.00  0.00    +0.000 A 
ATOM     18  C   UNL     1       6.900   4.773  17.930  0.00  0.00    +0.000 A 
ATOM     19  N   UNL     1       7.523   4.952  16.733  0.00  0.00    +0.000 N 
ATOM     20  H   UNL     1       8.477   5.253  16.593  0.00  0.00    +0.000 HD
ENDBRANCH  12  17
ENDBRANCH   8  12
ENDBRANCH   1   9
BRANCH   4  21
ATOM     21  C   UNL     1       1.263  10.460  19.514  0.00  0.00    +0.000 C 
BRANCH  21  22
ATOM     22  C   UNL     1      -0.139  10.588  18.978  0.00  0.00    +0.000 A 
ATOM     23  C   UNL     1      -0.558   9.928  17.820  0.00  0.00    +0.000 A 
ATOM     24  C   UNL     1      -1.870  10.071  17.367  0.00  0.00    +0.000 A 
ATOM     25  C   UNL     1      -2.758  10.868  18.089  0.00  0.00    +0.000 A 
ATOM     26  N   UNL     1      -2.374  11.505  19.233  0.00  0.00    +0.000 NA
ATOM     27  C   UNL     1      -1.089  11.356  19.640  0.00  0.00    +0.000 A 
BRANCH  25  28
ATOM     28  C   UNL     1      -4.188  11.044  17.593  0.00  0.00    +0.000 C 
ATOM     29  F   UNL     1      -5.092  10.266  18.263  0.00  0.00    +0.000 F 
ATOM     30  F   UNL     1      -4.651  12.321  17.725  0.00  0.00    +0.000 F 
ATOM     31  F   UNL     1      -4.345  10.721  16.276  0.00  0.00    +0.000 F 
ENDBRANCH  25  28
ENDBRANCH  21  22
ENDBRANCH   4  21
TORSDOF 6
ENDMDL
MODEL 4
REMARK VINA RESULT:      -7.7      6.174      8.810
REMARK  Name = 
REMARK  9 active torsions:
REMARK  status: ('A' for Active; 'I' for Inactive)
REMARK    1  A    between atoms: C_1  and  C_2
REMARK    2  A    between atoms: C_4  and  C_5
REMARK    3  A    between atoms: C_5  and  C_6
REMARK    4  A    between atoms: C_5  and  N_7
REMARK    5  A    between atoms: C_8  and  C_10
REMARK    6  A    between atoms: C_13  and  C_14
REMARK    7  A    between atoms: C_14  and  C_15
REMARK    8  A    between atoms: C_18  and  C_19
REMARK    9  A    between atoms: C_25  and  C_26
REMARK                            x       y       z     vdW  Elec       q    Type
REMARK                         _______ _______ _______ _____ _____    ______ ____
ROOT
ATOM      1  C   UNL     1       7.814   7.531  18.133  0.00  0.00    +0.000 A 
ATOM      2  N   UNL     1       8.380   6.756  19.118  0.00  0.00    +0.000 N 
ATOM      3  C   UNL     1       7.922   5.467  19.034  0.00  0.00    +0.000 A 
ATOM      4  C   UNL     1       7.029   5.379  17.982  0.00  0.00    +0.000 A 
ATOM      5  C   UNL     1       6.984   6.688  17.392  0.00  0.00    +0.000 A 
ATOM      6  C   UNL     1       6.191   7.104  16.196  0.00  0.00    +0.000 C 
ATOM      7  H   UNL     1       9.008   7.104  19.833  0.00  0.00    +0.000 HD
ENDROOT
BRANCH   1   9
ATOM      8  N   UNL     1       8.965   9.555  18.754  0.00  0.00    +0.000 N 
ATOM      9  C   UNL     1       8.008   8.961  17.959  0.00  0.00    +0.000 C 
ATOM     10  O   UNL     1       7.368   9.621  17.139  0.00  0.00    +0.000 OA
ATOM     11  H   UNL     1       9.629   9.013  19.287  0.00  0.00    +0.000 HD
BRANCH   8  12
ATOM     12  C   UNL     1       9.261  10.969  18.609  0.00  0.00    +0.000 C 
ATOM     13  C   UNL     1      10.549  11.201  17.818  0.00  0.00    +0.000 C 
BRANCH  12  17
ATOM     14  C   UNL     1       9.592  14.451  22.177  0.00  0.00    +0.000 C 
ATOM     15  C   UNL     1       9.481  13.165  21.448  0.00  0.00    +0.000 A 
ATOM     16  N   UNL     1       9.517  12.969  20.144  0.00  0.00    +0.000 NA
ATOM     17  C   UNL     1       9.343  11.608  19.965  0.00  0.00    +0.000 A 
ATOM     18  C   UNL     1       9.219  10.985  21.190  0.00  0.00    +0.000 A 
ATOM     19  N   UNL     1       9.306  11.980  22.117  0.00  0.00    +0.000 N 
ATOM     20  H   UNL     1       9.234  11.872  23.119  0.00  0.00    +0.000 HD
ENDBRANCH  12  17
ENDBRANCH   8  12
ENDBRANCH   1   9
BRANCH   4  21
ATOM     21  C   UNL     1       6.305   4.144  17.527  0.00  0.00    +0.000 C 
BRANCH  21  22
ATOM     22  C   UNL     1       4.981   4.107  18.244  0.00  0.00    +0.000 A 
ATOM     23  C   UNL     1       3.839   4.730  17.736  0.00  0.00    +0.000 A 
ATOM     24  C   UNL     1       2.632   4.661  18.432  0.00  0.00    +0.000 A 
ATOM     25  C   UNL     1       2.578   3.954  19.633  0.00  0.00    +0.000 A 
ATOM     26  N   UNL     1       3.677   3.322  20.137  0.00  0.00    +0.000 NA
ATOM     27  C   UNL     1       4.837   3.418  19.442  0.00  0.00    +0.000 A 
BRANCH  25  28
ATOM     28  C   UNL     1       1.269   3.888  20.410  0.00  0.00    +0.000 C 
ATOM     29  F   UNL     1       1.390   3.264  21.622  0.00  0.00    +0.000 F 
ATOM     30  F   UNL     1       0.746   5.117  20.693  0.00  0.00    +0.000 F 
ATOM     31  F   UNL     1       0.287   3.204  19.753  0.00  0.00    +0.000 F 
ENDBRANCH  25  28
ENDBRANCH  21  22
ENDBRANCH   4  21
TORSDOF 6
ENDMDL
MODEL 5
REMARK VINA RESULT:      -7.7      1.076      1.396
REMARK  Name = 
REMARK  9 active torsions:
REMARK  status: ('A' for Active; 'I' for Inactive)
REMARK    1  A    between atoms: C_1  and  C_2
REMARK    2  A    between atoms: C_4  and  C_5
REMARK    3  A    between atoms: C_5  and  C_6
REMARK    4  A    between atoms: C_5  and  N_7
REMARK    5  A    between atoms: C_8  and  C_10
REMARK    6  A    between atoms: C_13  and  C_14
REMARK    7  A    between atoms: C_14  and  C_15
REMARK    8  A    between atoms: C_18  and  C_19
REMARK    9  A    between atoms: C_25  and  C_26
REMARK                            x       y       z     vdW  Elec       q    Type
REMARK                         _______ _______ _______ _____ _____    ______ ____
ROOT
ATOM      1  C   UNL     1       2.026   6.825  19.649  0.00  0.00    +0.000 A 
ATOM      2  N   UNL     1       1.558   7.141  20.904  0.00  0.00    +0.000 N 
ATOM      3  C   UNL     1       1.259   8.476  20.979  0.00  0.00    +0.000 A 
ATOM      4  C   UNL     1       1.539   9.067  19.761  0.00  0.00    +0.000 A 
ATOM      5  C   UNL     1       2.000   8.008  18.906  0.00  0.00    +0.000 A 
ATOM      6  C   UNL     1       2.396   8.123  17.471  0.00  0.00    +0.000 C 
ATOM      7  H   UNL     1       1.492   6.487  21.674  0.00  0.00    +0.000 HD
ENDROOT
BRANCH   1   9
ATOM      8  N   UNL     1       3.835   5.445  18.859  0.00  0.00    +0.000 N 
ATOM      9  C   UNL     1       2.508   5.522  19.225  0.00  0.00    +0.000 C 
ATOM     10  O   UNL     1       1.786   4.524  19.200  0.00  0.00    +0.000 OA
ATOM     11  H   UNL     1       4.488   6.191  19.052  0.00  0.00    +0.000 HD
BRANCH   8  12
ATOM     12  C   UNL     1       4.414   4.170  18.472  0.00  0.00    +0.000 C 
ATOM     13  C   UNL     1       4.867   3.361  19.687  0.00  0.00    +0.000 C 
BRANCH  12  17
ATOM     14  C   UNL     1       6.981   4.828  14.238  0.00  0.00    +0.000 C 
ATOM     15  C   UNL     1       6.596   4.686  15.662  0.00  0.00    +0.000 A 
ATOM     16  N   UNL     1       5.409   4.387  16.152  0.00  0.00    +0.000 NA
ATOM     17  C   UNL     1       5.558   4.403  17.528  0.00  0.00    +0.000 A 
ATOM     18  C   UNL     1       6.864   4.701  17.856  0.00  0.00    +0.000 A 
ATOM     19  N   UNL     1       7.508   4.879  16.669  0.00  0.00    +0.000 N 
ATOM     20  H   UNL     1       8.479   5.130  16.546  0.00  0.00    +0.000 HD
ENDBRANCH  12  17
ENDBRANCH   8  12
ENDBRANCH   1   9
BRANCH   4  21
ATOM     21  C   UNL     1       1.342  10.511  19.402  0.00  0.00    +0.000 C 
BRANCH  21  22
ATOM     22  C   UNL     1      -0.095  10.681  18.982  0.00  0.00    +0.000 A 
ATOM     23  C   UNL     1      -0.974  11.534  19.653  0.00  0.00    +0.000 A 
ATOM     24  C   UNL     1      -2.294  11.665  19.222  0.00  0.00    +0.000 A 
ATOM     25  C   UNL     1      -2.721  10.943  18.107  0.00  0.00    +0.000 A 
ATOM     26  N   UNL     1      -1.873  10.119  17.425  0.00  0.00    +0.000 NA
ATOM     27  C   UNL     1      -0.600  10.006  17.877  0.00  0.00    +0.000 A 
BRANCH  25  28
ATOM     28  C   UNL     1      -4.165  11.066  17.638  0.00  0.00    +0.000 C 
ATOM     29  F   UNL     1      -4.705  12.303  17.865  0.00  0.00    +0.000 F 
ATOM     30  F   UNL     1      -4.317  10.853  16.298  0.00  0.00    +0.000 F 
ATOM     31  F   UNL     1      -5.009  10.189  18.256  0.00  0.00    +0.000 F 
ENDBRANCH  25  28
ENDBRANCH  21  22
ENDBRANCH   4  21
TORSDOF 6
ENDMDL
MODEL 6
REMARK VINA RESULT:      -7.6      6.120      8.712
REMARK  Name = 
REMARK  9 active torsions:
REMARK  status: ('A' for Active; 'I' for Inactive)
REMARK    1  A    between atoms: C_1  and  C_2
REMARK    2  A    between atoms: C_4  and  C_5
REMARK    3  A    between atoms: C_5  and  C_6
REMARK    4  A    between atoms: C_5  and  N_7
REMARK    5  A    between atoms: C_8  and  C_10
REMARK    6  A    between atoms: C_13  and  C_14
REMARK    7  A    between atoms: C_14  and  C_15
REMARK    8  A    between atoms: C_18  and  C_19
REMARK    9  A    between atoms: C_25  and  C_26
REMARK                            x       y       z     vdW  Elec       q    Type
REMARK                         _______ _______ _______ _____ _____    ______ ____
ROOT
ATOM      1  C   UNL     1       7.963   7.571  18.297  0.00  0.00    +0.000 A 
ATOM      2  N   UNL     1       8.458   6.721  19.258  0.00  0.00    +0.000 N 
ATOM      3  C   UNL     1       7.944   5.461  19.091  0.00  0.00    +0.000 A 
ATOM      4  C   UNL     1       7.085   5.470  18.007  0.00  0.00    +0.000 A 
ATOM      5  C   UNL     1       7.121   6.808  17.486  0.00  0.00    +0.000 A 
ATOM      6  C   UNL     1       6.390   7.323  16.289  0.00  0.00    +0.000 C 
ATOM      7  H   UNL     1       9.075   7.000  20.010  0.00  0.00    +0.000 HD
ENDROOT
BRANCH   1   9
ATOM      8  N   UNL     1       9.185   9.502  19.060  0.00  0.00    +0.000 N 
ATOM      9  C   UNL     1       8.229   8.997  18.205  0.00  0.00    +0.000 C 
ATOM     10  O   UNL     1       7.647   9.729  17.403  0.00  0.00    +0.000 OA
ATOM     11  H   UNL     1       9.806   8.902  19.583  0.00  0.00    +0.000 HD
BRANCH   8  12
ATOM     12  C   UNL     1       9.552  10.906  18.999  0.00  0.00    +0.000 C 
ATOM     13  C   UNL     1      11.052  11.092  18.770  0.00  0.00    +0.000 C 
BRANCH  12  17
ATOM     14  C   UNL     1       8.195  11.647  23.750  0.00  0.00    +0.000 C 
ATOM     15  C   UNL     1       8.543  11.839  22.322  0.00  0.00    +0.000 A 
ATOM     16  N   UNL     1       8.833  10.913  21.429  0.00  0.00    +0.000 NA
ATOM     17  C   UNL     1       9.113  11.596  20.258  0.00  0.00    +0.000 A 
ATOM     18  C   UNL     1       8.968  12.953  20.461  0.00  0.00    +0.000 A 
ATOM     19  N   UNL     1       8.610  13.092  21.767  0.00  0.00    +0.000 N 
ATOM     20  H   UNL     1       8.443  13.962  22.253  0.00  0.00    +0.000 HD
ENDBRANCH  12  17
ENDBRANCH   8  12
ENDBRANCH   1   9
BRANCH   4  21
ATOM     21  C   UNL     1       6.321   4.297  17.464  0.00  0.00    +0.000 C 
BRANCH  21  22
ATOM     22  C   UNL     1       5.004   4.238  18.194  0.00  0.00    +0.000 A 
ATOM     23  C   UNL     1       3.879   4.944  17.762  0.00  0.00    +0.000 A 
ATOM     24  C   UNL     1       2.678   4.852  18.467  0.00  0.00    +0.000 A 
ATOM     25  C   UNL     1       2.613   4.039  19.598  0.00  0.00    +0.000 A 
ATOM     26  N   UNL     1       3.695   3.326  20.026  0.00  0.00    +0.000 NA
ATOM     27  C   UNL     1       4.850   3.447  19.326  0.00  0.00    +0.000 A 
BRANCH  25  28
ATOM     28  C   UNL     1       1.311   3.945  20.384  0.00  0.00    +0.000 C 
ATOM     29  F   UNL     1       1.452   3.315  21.591  0.00  0.00    +0.000 F 
ATOM     30  F   UNL     1       0.771   5.163  20.680  0.00  0.00    +0.000 F 
ATOM     31  F   UNL     1       0.336   3.250  19.730  0.00  0.00    +0.000 F 
ENDBRANCH  25  28
ENDBRANCH  21  22
ENDBRANCH   4  21
TORSDOF 6
ENDMDL
MODEL 7
REMARK VINA RESULT:      -7.5      4.856      9.514
REMARK  Name = 
REMARK  9 active torsions:
REMARK  status: ('A' for Active; 'I' for Inactive)
REMARK    1  A    between atoms: C_1  and  C_2
REMARK    2  A    between atoms: C_4  and  C_5
REMARK    3  A    between atoms: C_5  and  C_6
REMARK    4  A    between atoms: C_5  and  N_7
REMARK    5  A    between atoms: C_8  and  C_10
REMARK    6  A    between atoms: C_13  and  C_14
REMARK    7  A    between atoms: C_14  and  C_15
REMARK    8  A    between atoms: C_18  and  C_19
REMARK    9  A    between atoms: C_25  and  C_26
REMARK                            x       y       z     vdW  Elec       q    Type
REMARK                         _______ _______ _______ _____ _____    ______ ____
ROOT
ATOM      1  C   UNL     1       1.273   9.564  19.068  0.00  0.00    +0.000 A 
ATOM      2  N   UNL     1       1.689   9.264  17.792  0.00  0.00    +0.000 N 
ATOM      3  C   UNL     1       2.277   8.026  17.761  0.00  0.00    +0.000 A 
ATOM      4  C   UNL     1       2.263   7.493  19.036  0.00  0.00    +0.000 A 
ATOM      5  C   UNL     1       1.598   8.462  19.862  0.00  0.00    +0.000 A 
ATOM      6  C   UNL     1       1.296   8.341  21.320  0.00  0.00    +0.000 C 
ATOM      7  H   UNL     1       1.614   9.891  17.001  0.00  0.00    +0.000 HD
ENDROOT
BRANCH   1   9
ATOM      8  N   UNL     1      -0.637  10.765  19.913  0.00  0.00    +0.000 N 
ATOM      9  C   UNL     1       0.675  10.818  19.494  0.00  0.00    +0.000 C 
ATOM     10  O   UNL     1       1.298  11.881  19.499  0.00  0.00    +0.000 OA
ATOM     11  H   UNL     1      -1.104   9.889  20.101  0.00  0.00    +0.000 HD
BRANCH   8  12
ATOM     12  C   UNL     1      -1.297  11.961  20.405  0.00  0.00    +0.000 C 
ATOM     13  C   UNL     1      -1.477  11.926  21.923  0.00  0.00    +0.000 C 
BRANCH  12  17
ATOM     14  C   UNL     1      -4.987  11.424  17.081  0.00  0.00    +0.000 C 
ATOM     15  C   UNL     1      -4.167  11.840  18.243  0.00  0.00    +0.000 A 
ATOM     16  N   UNL     1      -2.916  11.517  18.508  0.00  0.00    +0.000 NA
ATOM     17  C   UNL     1      -2.618  12.128  19.713  0.00  0.00    +0.000 A 
ATOM     18  C   UNL     1      -3.712  12.842  20.160  0.00  0.00    +0.000 A 
ATOM     19  N   UNL     1      -4.682  12.650  19.225  0.00  0.00    +0.000 N 
ATOM     20  H   UNL     1      -5.622  13.018  19.253  0.00  0.00    +0.000 HD
ENDBRANCH  12  17
ENDBRANCH   8  12
ENDBRANCH   1   9
BRANCH   4  21
ATOM     21  C   UNL     1       2.790   6.148  19.448  0.00  0.00    +0.000 C 
BRANCH  21  22
ATOM     22  C   UNL     1       3.711   5.670  18.355  0.00  0.00    +0.000 A 
ATOM     23  C   UNL     1       3.453   4.515  17.614  0.00  0.00    +0.000 A 
ATOM     24  C   UNL     1       4.331   4.116  16.606  0.00  0.00    +0.000 A 
ATOM     25  C   UNL     1       5.461   4.890  16.340  0.00  0.00    +0.000 A 
ATOM     26  N   UNL     1       5.720   6.033  17.039  0.00  0.00    +0.000 NA
ATOM     27  C   UNL     1       4.854   6.386  18.020  0.00  0.00    +0.000 A 
BRANCH  25  28
ATOM     28  C   UNL     1       6.434   4.454  15.253  0.00  0.00    +0.000 C 
ATOM     29  F   UNL     1       6.030   3.331  14.583  0.00  0.00    +0.000 F 
ATOM     30  F   UNL     1       6.619   5.398  14.284  0.00  0.00    +0.000 F 
ATOM     31  F   UNL     1       7.678   4.157  15.731  0.00  0.00    +0.000 F 
ENDBRANCH  25  28
ENDBRANCH  21  22
ENDBRANCH   4  21
TORSDOF 6
ENDMDL
MODEL 8
REMARK VINA RESULT:      -7.5      4.700      9.688
REMARK  Name = 
REMARK  9 active torsions:
REMARK  status: ('A' for Active; 'I' for Inactive)
REMARK    1  A    between atoms: C_1  and  C_2
REMARK    2  A    between atoms: C_4  and  C_5
REMARK    3  A    between atoms: C_5  and  C_6
REMARK    4  A    between atoms: C_5  and  N_7
REMARK    5  A    between atoms: C_8  and  C_10
REMARK    6  A    between atoms: C_13  and  C_14
REMARK    7  A    between atoms: C_14  and  C_15
REMARK    8  A    between atoms: C_18  and  C_19
REMARK    9  A    between atoms: C_25  and  C_26
REMARK                            x       y       z     vdW  Elec       q    Type
REMARK                         _______ _______ _______ _____ _____    ______ ____
ROOT
ATOM      1  C   UNL     1       1.081   9.823  19.043  0.00  0.00    +0.000 A 
ATOM      2  N   UNL     1       1.474   9.542  17.755  0.00  0.00    +0.000 N 
ATOM      3  C   UNL     1       2.120   8.335  17.706  0.00  0.00    +0.000 A 
ATOM      4  C   UNL     1       2.170   7.803  18.981  0.00  0.00    +0.000 A 
ATOM      5  C   UNL     1       1.482   8.739  19.826  0.00  0.00    +0.000 A 
ATOM      6  C   UNL     1       1.230   8.605  21.293  0.00  0.00    +0.000 C 
ATOM      7  H   UNL     1       1.345  10.164  16.966  0.00  0.00    +0.000 HD
ENDROOT
BRANCH   1   9
ATOM      8  N   UNL     1      -0.902  10.957  19.808  0.00  0.00    +0.000 N 
ATOM      9  C   UNL     1       0.435  11.047  19.487  0.00  0.00    +0.000 C 
ATOM     10  O   UNL     1       1.039  12.116  19.588  0.00  0.00    +0.000 OA
ATOM     11  H   UNL     1      -1.367  10.067  19.919  0.00  0.00    +0.000 HD
BRANCH   8  12
ATOM     12  C   UNL     1      -1.614  12.119  20.311  0.00  0.00    +0.000 C 
ATOM     13  C   UNL     1      -1.724  12.101  21.836  0.00  0.00    +0.000 C 
BRANCH  12  17
ATOM     14  C   UNL     1      -6.447  13.169  19.608  0.00  0.00    +0.000 C 
ATOM     15  C   UNL     1      -5.056  12.685  19.441  0.00  0.00    +0.000 A 
ATOM     16  N   UNL     1      -4.070  12.743  20.314  0.00  0.00    +0.000 NA
ATOM     17  C   UNL     1      -2.973  12.191  19.677  0.00  0.00    +0.000 A 
ATOM     18  C   UNL     1      -3.324  11.784  18.406  0.00  0.00    +0.000 A 
ATOM     19  N   UNL     1      -4.640  12.104  18.269  0.00  0.00    +0.000 N 
ATOM     20  H   UNL     1      -5.209  11.960  17.448  0.00  0.00    +0.000 HD
ENDBRANCH  12  17
ENDBRANCH   8  12
ENDBRANCH   1   9
BRANCH   4  21
ATOM     21  C   UNL     1       2.774   6.486  19.376  0.00  0.00    +0.000 C 
BRANCH  21  22
ATOM     22  C   UNL     1       3.584   5.991  18.207  0.00  0.00    +0.000 A 
ATOM     23  C   UNL     1       4.568   6.773  17.596  0.00  0.00    +0.000 A 
ATOM     24  C   UNL     1       5.299   6.269  16.521  0.00  0.00    +0.000 A 
ATOM     25  C   UNL     1       5.044   4.974  16.070  0.00  0.00    +0.000 A 
ATOM     26  N   UNL     1       4.101   4.187  16.665  0.00  0.00    +0.000 NA
ATOM     27  C   UNL     1       3.400   4.711  17.700  0.00  0.00    +0.000 A 
BRANCH  25  28
ATOM     28  C   UNL     1       5.825   4.420  14.885  0.00  0.00    +0.000 C 
ATOM     29  F   UNL     1       6.334   3.170  15.110  0.00  0.00    +0.000 F 
ATOM     30  F   UNL     1       5.072   4.299  13.753  0.00  0.00    +0.000 F 
ATOM     31  F   UNL     1       6.900   5.188  14.542  0.00  0.00    +0.000 F 
ENDBRANCH  25  28
ENDBRANCH  21  22
ENDBRANCH   4  21
TORSDOF 6
ENDMDL
MODEL 9
REMARK VINA RESULT:      -7.5      4.847      9.570
REMARK  Name = 
REMARK  9 active torsions:
REMARK  status: ('A' for Active; 'I' for Inactive)
REMARK    1  A    between atoms: C_1  and  C_2
REMARK    2  A    between atoms: C_4  and  C_5
REMARK    3  A    between atoms: C_5  and  C_6
REMARK    4  A    between atoms: C_5  and  N_7
REMARK    5  A    between atoms: C_8  and  C_10
REMARK    6  A    between atoms: C_13  and  C_14
REMARK    7  A    between atoms: C_14  and  C_15
REMARK    8  A    between atoms: C_18  and  C_19
REMARK    9  A    between atoms: C_25  and  C_26
REMARK                            x       y       z     vdW  Elec       q    Type
REMARK                         _______ _______ _______ _____ _____    ______ ____
ROOT
ATOM      1  C   UNL     1       1.209   9.725  19.056  0.00  0.00    +0.000 A 
ATOM      2  N   UNL     1       1.586   9.447  17.762  0.00  0.00    +0.000 N 
ATOM      3  C   UNL     1       2.168   8.208  17.691  0.00  0.00    +0.000 A 
ATOM      4  C   UNL     1       2.192   7.652  18.956  0.00  0.00    +0.000 A 
ATOM      5  C   UNL     1       1.554   8.608  19.819  0.00  0.00    +0.000 A 
ATOM      6  C   UNL     1       1.297   8.461  21.283  0.00  0.00    +0.000 C 
ATOM      7  H   UNL     1       1.489  10.088  16.985  0.00  0.00    +0.000 HD
ENDROOT
BRANCH   1   9
ATOM      8  N   UNL     1      -0.710  10.944  19.853  0.00  0.00    +0.000 N 
ATOM      9  C   UNL     1       0.628  10.972  19.522  0.00  0.00    +0.000 C 
ATOM     10  O   UNL     1       1.285  12.009  19.633  0.00  0.00    +0.000 OA
ATOM     11  H   UNL     1      -1.217  10.077  19.955  0.00  0.00    +0.000 HD
BRANCH   8  12
ATOM     12  C   UNL     1      -1.359  12.132  20.379  0.00  0.00    +0.000 C 
ATOM     13  C   UNL     1      -1.455  12.099  21.904  0.00  0.00    +0.000 C 
BRANCH  12  17
ATOM     14  C   UNL     1      -5.208  11.552  17.247  0.00  0.00    +0.000 C 
ATOM     15  C   UNL     1      -4.337  11.973  18.370  0.00  0.00    +0.000 A 
ATOM     16  N   UNL     1      -3.067  11.674  18.564  0.00  0.00    +0.000 NA
ATOM     17  C   UNL     1      -2.719  12.278  19.759  0.00  0.00    +0.000 A 
ATOM     18  C   UNL     1      -3.801  12.962  20.273  0.00  0.00    +0.000 A 
ATOM     19  N   UNL     1      -4.816  12.760  19.387  0.00  0.00    +0.000 N 
ATOM     20  H   UNL     1      -5.761  13.107  19.470  0.00  0.00    +0.000 HD
ENDBRANCH  12  17
ENDBRANCH   8  12
ENDBRANCH   1   9
BRANCH   4  21
ATOM     21  C   UNL     1       2.727   6.299  19.327  0.00  0.00    +0.000 C 
BRANCH  21  22
ATOM     22  C   UNL     1       3.693   5.884  18.248  0.00  0.00    +0.000 A 
ATOM     23  C   UNL     1       4.767   6.688  17.859  0.00  0.00    +0.000 A 
ATOM     24  C   UNL     1       5.641   6.257  16.860  0.00  0.00    +0.000 A 
ATOM     25  C   UNL     1       5.435   5.013  16.265  0.00  0.00    +0.000 A 
ATOM     26  N   UNL     1       4.404   4.204  16.644  0.00  0.00    +0.000 NA
ATOM     27  C   UNL     1       3.566   4.657  17.609  0.00  0.00    +0.000 A 
BRANCH  25  28
ATOM     28  C   UNL     1       6.374   4.541  15.161  0.00  0.00    +0.000 C 
ATOM     29  F   UNL     1       6.470   5.423  14.119  0.00  0.00    +0.000 F 
ATOM     30  F   UNL     1       7.657   4.354  15.588  0.00  0.00    +0.000 F 
ATOM     31  F   UNL     1       5.989   3.359  14.596  0.00  0.00    +0.000 F 
ENDBRANCH  25  28
ENDBRANCH  21  22
ENDBRANCH   4  21
TORSDOF 6
ENDMDL
