MODEL 1
REMARK VINA RESULT:      -6.8      0.000      0.000
REMARK  Name = 
REMARK  5 active torsions:
REMARK  status: ('A' for Active; 'I' for Inactive)
REMARK    1  A    between atoms: C_1  and  C_2
REMARK    2  A    between atoms: C_2  and  C_3
REMARK    3  A    between atoms: C_2  and  N_19
REMARK    4  A    between atoms: N_5  and  C_6
REMARK    5  A    between atoms: N_5  and  C_7
REMARK                            x       y       z     vdW  Elec       q    Type
REMARK                         _______ _______ _______ _____ _____    ______ ____
ROOT
ATOM      1  C   UNL     1       1.965   4.444  19.162  0.00  0.00    +0.000 C 
ATOM      2  C   UNL     1       2.406   5.643  18.321  0.00  0.00    +0.000 C 
ATOM      3  C   UNL     1       2.872   6.832  19.144  0.00  0.00    +0.000 C 
ATOM      4  N   UNL     1       2.001   7.109  20.279  0.00  0.00    +0.000 N 
ATOM      5  C   UNL     1       1.412   8.360  20.345  0.00  0.00    +0.000 A 
ATOM      6  C   UNL     1       1.176   8.953  21.586  0.00  0.00    +0.000 A 
ATOM      7  C   UNL     1       0.559  10.198  21.651  0.00  0.00    +0.000 A 
ATOM      8  C   UNL     1       0.193  10.826  20.477  0.00  0.00    +0.000 A 
ATOM      9  C   UNL     1       0.469  10.187  19.283  0.00  0.00    +0.000 A 
ATOM     10  N   UNL     1       1.074   8.982  19.197  0.00  0.00    +0.000 NA
ATOM     11  C   UNL     1       1.385   6.046  21.063  0.00  0.00    +0.000 C 
ATOM     12  C   UNL     1       0.922   4.891  20.191  0.00  0.00    +0.000 C 
ENDROOT
BRANCH   1  15
ATOM     13  C   UNL     1       4.201   3.219  19.071  0.00  0.00    +0.000 C 
ATOM     14  O   UNL     1       4.792   2.180  19.370  0.00  0.00    +0.000 OA
ATOM     15  N   UNL     1       3.043   3.608  19.761  0.00  0.00    +0.000 N 
ATOM     16  C   UNL     1       2.803   2.909  21.026  0.00  0.00    +0.000 C 
BRANCH  13  18
ATOM     17  C   UNL     1       4.763   3.439  16.601  0.00  0.00    +0.000 C 
ATOM     18  C   UNL     1       4.740   4.134  17.959  0.00  0.00    +0.000 C 
BRANCH  18  19
ATOM     19  N   UNL     1       6.072   4.647  18.304  0.00  0.00    +0.000 N 
ATOM     20  C   UNL     1       6.373   5.446  19.375  0.00  0.00    +0.000 A 
ATOM     21  C   UNL     1       7.728   5.666  19.284  0.00  0.00    +0.000 A 
ATOM     22  N   UNL     1       8.248   5.046  18.181  0.00  0.00    +0.000 NA
ATOM     23  C   UNL     1       7.233   4.430  17.618  0.00  0.00    +0.000 A 
ENDBRANCH  18  19
ENDBRANCH  13  18
ENDBRANCH   1  15
TORSDOF 3
ENDMDL
MODEL 2
REMARK VINA RESULT:      -6.6      2.982      7.070
REMARK  Name = 
REMARK  5 active torsions:
REMARK  status: ('A' for Active; 'I' for Inactive)
REMARK    1  A    between atoms: C_1  and  C_2
REMARK    2  A    between atoms: C_2  and  C_3
REMARK    3  A    between atoms: C_2  and  N_19
REMARK    4  A    between atoms: N_5  and  C_6
REMARK    5  A    between atoms: N_5  and  C_7
REMARK                            x       y       z     vdW  Elec       q    Type
REMARK                         _______ _______ _______ _____ _____    ______ ____
ROOT
ATOM      1  C   UNL     1       4.828   5.547  17.964  0.00  0.00    +0.000 C 
ATOM      2  C   UNL     1       5.523   6.598  17.097  0.00  0.00    +0.000 C 
ATOM      3  C   UNL     1       5.176   6.503  15.621  0.00  0.00    +0.000 C 
ATOM      4  N   UNL     1       5.185   5.132  15.126  0.00  0.00    +0.000 N 
ATOM      5  C   UNL     1       6.046   4.832  14.085  0.00  0.00    +0.000 A 
ATOM      6  C   UNL     1       5.683   3.875  13.137  0.00  0.00    +0.000 A 
ATOM      7  C   UNL     1       6.562   3.554  12.107  0.00  0.00    +0.000 A 
ATOM      8  C   UNL     1       7.782   4.196  12.043  0.00  0.00    +0.000 A 
ATOM      9  C   UNL     1       8.070   5.144  13.008  0.00  0.00    +0.000 A 
ATOM     10  N   UNL     1       7.230   5.475  14.011  0.00  0.00    +0.000 NA
ATOM     11  C   UNL     1       4.699   4.015  15.925  0.00  0.00    +0.000 C 
ATOM     12  C   UNL     1       5.087   4.150  17.388  0.00  0.00    +0.000 C 
ENDROOT
BRANCH   1  15
ATOM     13  C   UNL     1       2.424   4.765  18.304  0.00  0.00    +0.000 C 
ATOM     14  O   UNL     1       1.240   5.021  18.074  0.00  0.00    +0.000 OA
ATOM     15  N   UNL     1       3.392   5.780  18.285  0.00  0.00    +0.000 N 
ATOM     16  C   UNL     1       2.867   7.147  18.320  0.00  0.00    +0.000 C 
BRANCH  13  18
ATOM     17  C   UNL     1       2.304   2.305  17.675  0.00  0.00    +0.000 C 
ATOM     18  C   UNL     1       2.861   3.333  18.654  0.00  0.00    +0.000 C 
BRANCH  18  19
ATOM     19  N   UNL     1       2.487   2.995  20.034  0.00  0.00    +0.000 N 
ATOM     20  C   UNL     1       1.218   3.008  20.549  0.00  0.00    +0.000 A 
ATOM     21  C   UNL     1       1.364   2.625  21.861  0.00  0.00    +0.000 A 
ATOM     22  N   UNL     1       2.682   2.406  22.161  0.00  0.00    +0.000 NA
ATOM     23  C   UNL     1       3.332   2.622  21.040  0.00  0.00    +0.000 A 
ENDBRANCH  18  19
ENDBRANCH  13  18
ENDBRANCH   1  15
TORSDOF 3
ENDMDL
MODEL 3
REMARK VINA RESULT:      -6.6      0.972      1.034
REMARK  Name = 
REMARK  5 active torsions:
REMARK  status: ('A' for Active; 'I' for Inactive)
REMARK    1  A    between atoms: C_1  and  C_2
REMARK    2  A    between atoms: C_2  and  C_3
REMARK    3  A    between atoms: C_2  and  N_19
REMARK    4  A    between atoms: N_5  and  C_6
REMARK    5  A    between atoms: N_5  and  C_7
REMARK                            x       y       z     vdW  Elec       q    Type
REMARK                         _______ _______ _______ _____ _____    ______ ____
ROOT
ATOM      1  C   UNL     1       2.170   4.840  18.888  0.00  0.00    +0.000 C 
ATOM      2  C   UNL     1       2.423   6.178  18.192  0.00  0.00    +0.000 C 
ATOM      3  C   UNL     1       2.784   7.307  19.142  0.00  0.00    +0.000 C 
ATOM      4  N   UNL     1       1.943   7.333  20.332  0.00  0.00    +0.000 N 
ATOM      5  C   UNL     1       1.214   8.484  20.576  0.00  0.00    +0.000 A 
ATOM      6  C   UNL     1       0.970   8.888  21.889  0.00  0.00    +0.000 A 
ATOM      7  C   UNL     1       0.213  10.029  22.133  0.00  0.00    +0.000 A 
ATOM      8  C   UNL     1      -0.283  10.745  21.061  0.00  0.00    +0.000 A 
ATOM      9  C   UNL     1       0.009  10.295  19.787  0.00  0.00    +0.000 A 
ATOM     10  N   UNL     1       0.747   9.195  19.529  0.00  0.00    +0.000 NA
ATOM     11  C   UNL     1       1.497   6.115  20.996  0.00  0.00    +0.000 C 
ATOM     12  C   UNL     1       1.132   5.026  20.001  0.00  0.00    +0.000 C 
ENDROOT
BRANCH   1  15
ATOM     13  C   UNL     1       4.477   3.818  18.522  0.00  0.00    +0.000 C 
ATOM     14  O   UNL     1       5.179   2.823  18.712  0.00  0.00    +0.000 OA
ATOM     15  N   UNL     1       3.367   4.078  19.339  0.00  0.00    +0.000 N 
ATOM     16  C   UNL     1       3.315   3.313  20.587  0.00  0.00    +0.000 C 
BRANCH  13  18
ATOM     17  C   UNL     1       5.040   4.131  16.062  0.00  0.00    +0.000 C 
ATOM     18  C   UNL     1       4.825   4.818  17.407  0.00  0.00    +0.000 C 
BRANCH  18  19
ATOM     19  N   UNL     1       5.996   5.625  17.773  0.00  0.00    +0.000 N 
ATOM     20  C   UNL     1       6.444   6.738  17.112  0.00  0.00    +0.000 A 
ATOM     21  C   UNL     1       7.555   7.144  17.814  0.00  0.00    +0.000 A 
ATOM     22  N   UNL     1       7.805   6.299  18.861  0.00  0.00    +0.000 NA
ATOM     23  C   UNL     1       6.845   5.403  18.820  0.00  0.00    +0.000 A 
ENDBRANCH  18  19
ENDBRANCH  13  18
ENDBRANCH   1  15
TORSDOF 3
ENDMDL
MODEL 4
REMARK VINA RESULT:      -6.2      1.850      3.399
REMARK  Name = 
REMARK  5 active torsions:
REMARK  status: ('A' for Active; 'I' for Inactive)
REMARK    1  A    between atoms: C_1  and  C_2
REMARK    2  A    between atoms: C_2  and  C_3
REMARK    3  A    between atoms: C_2  and  N_19
REMARK    4  A    between atoms: N_5  and  C_6
REMARK    5  A    between atoms: N_5  and  C_7
REMARK                            x       y       z     vdW  Elec       q    Type
REMARK                         _______ _______ _______ _____ _____    ______ ____
ROOT
ATOM      1  C   UNL     1       2.491   5.862  18.251  0.00  0.00    +0.000 C 
ATOM      2  C   UNL     1       2.065   7.061  17.403  0.00  0.00    +0.000 C 
ATOM      3  C   UNL     1       2.336   8.405  18.058  0.00  0.00    +0.000 C 
ATOM      4  N   UNL     1       1.965   8.430  19.467  0.00  0.00    +0.000 N 
ATOM      5  C   UNL     1       1.029   9.368  19.867  0.00  0.00    +0.000 A 
ATOM      6  C   UNL     1       1.110   9.933  21.140  0.00  0.00    +0.000 A 
ATOM      7  C   UNL     1       0.152  10.855  21.550  0.00  0.00    +0.000 A 
ATOM      8  C   UNL     1      -0.866  11.194  20.680  0.00  0.00    +0.000 A 
ATOM      9  C   UNL     1      -0.877  10.605  19.430  0.00  0.00    +0.000 A 
ATOM     10  N   UNL     1       0.047   9.715  19.009  0.00  0.00    +0.000 NA
ATOM     11  C   UNL     1       2.171   7.286  20.346  0.00  0.00    +0.000 C 
ATOM     12  C   UNL     1       1.869   5.971  19.648  0.00  0.00    +0.000 C 
ENDROOT
BRANCH   1  15
ATOM     13  C   UNL     1       4.469   4.335  18.763  0.00  0.00    +0.000 C 
ATOM     14  O   UNL     1       5.602   4.284  19.245  0.00  0.00    +0.000 OA
ATOM     15  N   UNL     1       3.947   5.549  18.291  0.00  0.00    +0.000 N 
ATOM     16  C   UNL     1       4.927   6.620  18.100  0.00  0.00    +0.000 C 
BRANCH  13  18
ATOM     17  C   UNL     1       2.740   3.082  17.383  0.00  0.00    +0.000 C 
ATOM     18  C   UNL     1       3.616   3.063  18.632  0.00  0.00    +0.000 C 
BRANCH  18  19
ATOM     19  N   UNL     1       2.802   2.852  19.836  0.00  0.00    +0.000 N 
ATOM     20  C   UNL     1       1.443   2.675  19.866  0.00  0.00    +0.000 A 
ATOM     21  C   UNL     1       1.137   2.520  21.198  0.00  0.00    +0.000 A 
ATOM     22  N   UNL     1       2.260   2.623  21.972  0.00  0.00    +0.000 NA
ATOM     23  C   UNL     1       3.248   2.809  21.126  0.00  0.00    +0.000 A 
ENDBRANCH  18  19
ENDBRANCH  13  18
ENDBRANCH   1  15
TORSDOF 3
ENDMDL
MODEL 5
REMARK VINA RESULT:      -6.0      4.113      9.155
REMARK  Name = 
REMARK  5 active torsions:
REMARK  status: ('A' for Active; 'I' for Inactive)
REMARK    1  A    between atoms: C_1  and  C_2
REMARK    2  A    between atoms: C_2  and  C_3
REMARK    3  A    between atoms: C_2  and  N_19
REMARK    4  A    between atoms: N_5  and  C_6
REMARK    5  A    between atoms: N_5  and  C_7
REMARK                            x       y       z     vdW  Elec       q    Type
REMARK                         _______ _______ _______ _____ _____    ______ ____
ROOT
ATOM      1  C   UNL     1      -0.516  10.356  19.366  0.00  0.00    +0.000 C 
ATOM      2  C   UNL     1      -0.009   9.472  20.507  0.00  0.00    +0.000 C 
ATOM      3  C   UNL     1       1.462   9.111  20.396  0.00  0.00    +0.000 C 
ATOM      4  N   UNL     1       1.849   8.728  19.044  0.00  0.00    +0.000 N 
ATOM      5  C   UNL     1       2.388   7.466  18.865  0.00  0.00    +0.000 A 
ATOM      6  C   UNL     1       3.361   7.257  17.887  0.00  0.00    +0.000 A 
ATOM      7  C   UNL     1       3.881   5.982  17.690  0.00  0.00    +0.000 A 
ATOM      8  C   UNL     1       3.420   4.942  18.473  0.00  0.00    +0.000 A 
ATOM      9  C   UNL     1       2.464   5.223  19.431  0.00  0.00    +0.000 A 
ATOM     10  N   UNL     1       1.952   6.454  19.644  0.00  0.00    +0.000 NA
ATOM     11  C   UNL     1       1.308   9.389  17.864  0.00  0.00    +0.000 C 
ATOM     12  C   UNL     1      -0.169   9.712  18.020  0.00  0.00    +0.000 C 
ENDROOT
BRANCH   1  15
ATOM     13  C   UNL     1      -1.052  12.811  19.806  0.00  0.00    +0.000 C 
ATOM     14  O   UNL     1      -0.920  13.961  19.383  0.00  0.00    +0.000 OA
ATOM     15  N   UNL     1      -0.157  11.801  19.423  0.00  0.00    +0.000 N 
ATOM     16  C   UNL     1       1.084  12.267  18.801  0.00  0.00    +0.000 C 
BRANCH  13  18
ATOM     17  C   UNL     1      -3.561  12.763  20.218  0.00  0.00    +0.000 C 
ATOM     18  C   UNL     1      -2.180  12.464  20.792  0.00  0.00    +0.000 C 
BRANCH  18  19
ATOM     19  N   UNL     1      -1.987  13.159  22.072  0.00  0.00    +0.000 N 
ATOM     20  C   UNL     1      -2.953  13.829  22.776  0.00  0.00    +0.000 A 
ATOM     21  C   UNL     1      -2.309  14.308  23.893  0.00  0.00    +0.000 A 
ATOM     22  N   UNL     1      -0.982  13.971  23.872  0.00  0.00    +0.000 NA
ATOM     23  C   UNL     1      -0.820  13.270  22.773  0.00  0.00    +0.000 A 
ENDBRANCH  18  19
ENDBRANCH  13  18
ENDBRANCH   1  15
TORSDOF 3
ENDMDL
MODEL 6
REMARK VINA RESULT:      -5.9      1.769      2.183
REMARK  Name = 
REMARK  5 active torsions:
REMARK  status: ('A' for Active; 'I' for Inactive)
REMARK    1  A    between atoms: C_1  and  C_2
REMARK    2  A    between atoms: C_2  and  C_3
REMARK    3  A    between atoms: C_2  and  N_19
REMARK    4  A    between atoms: N_5  and  C_6
REMARK    5  A    between atoms: N_5  and  C_7
REMARK                            x       y       z     vdW  Elec       q    Type
REMARK                         _______ _______ _______ _____ _____    ______ ____
ROOT
ATOM      1  C   UNL     1       3.440   5.173  17.782  0.00  0.00    +0.000 C 
ATOM      2  C   UNL     1       3.561   6.564  17.157  0.00  0.00    +0.000 C 
ATOM      3  C   UNL     1       3.541   7.696  18.169  0.00  0.00    +0.000 C 
ATOM      4  N   UNL     1       2.516   7.521  19.191  0.00  0.00    +0.000 N 
ATOM      5  C   UNL     1       1.558   8.512  19.314  0.00  0.00    +0.000 A 
ATOM      6  C   UNL     1       1.022   8.809  20.568  0.00  0.00    +0.000 A 
ATOM      7  C   UNL     1       0.038   9.786  20.686  0.00  0.00    +0.000 A 
ATOM      8  C   UNL     1      -0.387  10.448  19.551  0.00  0.00    +0.000 A 
ATOM      9  C   UNL     1       0.198  10.113  18.344  0.00  0.00    +0.000 A 
ATOM     10  N   UNL     1       1.158   9.174  18.209  0.00  0.00    +0.000 NA
ATOM     11  C   UNL     1       2.192   6.215  19.751  0.00  0.00    +0.000 C 
ATOM     12  C   UNL     1       2.210   5.123  18.694  0.00  0.00    +0.000 C 
ENDROOT
BRANCH   1  15
ATOM     13  C   UNL     1       5.932   4.633  17.838  0.00  0.00    +0.000 C 
ATOM     14  O   UNL     1       6.770   3.775  18.125  0.00  0.00    +0.000 OA
ATOM     15  N   UNL     1       4.660   4.617  18.430  0.00  0.00    +0.000 N 
ATOM     16  C   UNL     1       4.531   3.762  19.612  0.00  0.00    +0.000 C 
BRANCH  13  18
ATOM     17  C   UNL     1       6.934   5.239  15.582  0.00  0.00    +0.000 C 
ATOM     18  C   UNL     1       6.275   5.763  16.854  0.00  0.00    +0.000 C 
BRANCH  18  19
ATOM     19  N   UNL     1       7.118   6.780  17.496  0.00  0.00    +0.000 N 
ATOM     20  C   UNL     1       7.233   8.089  17.110  0.00  0.00    +0.000 A 
ATOM     21  C   UNL     1       8.125   8.643  17.999  0.00  0.00    +0.000 A 
ATOM     22  N   UNL     1       8.568   7.706  18.892  0.00  0.00    +0.000 NA
ATOM     23  C   UNL     1       7.936   6.599  18.575  0.00  0.00    +0.000 A 
ENDBRANCH  18  19
ENDBRANCH  13  18
ENDBRANCH   1  15
TORSDOF 3
ENDMDL
MODEL 7
REMARK VINA RESULT:      -5.8      5.361     10.443
REMARK  Name = 
REMARK  5 active torsions:
REMARK  status: ('A' for Active; 'I' for Inactive)
REMARK    1  A    between atoms: C_1  and  C_2
REMARK    2  A    between atoms: C_2  and  C_3
REMARK    3  A    between atoms: C_2  and  N_19
REMARK    4  A    between atoms: N_5  and  C_6
REMARK    5  A    between atoms: N_5  and  C_7
REMARK                            x       y       z     vdW  Elec       q    Type
REMARK                         _______ _______ _______ _____ _____    ______ ____
ROOT
ATOM      1  C   UNL     1      -1.650  12.054  20.747  0.00  0.00    +0.000 C 
ATOM      2  C   UNL     1      -0.623  11.353  21.637  0.00  0.00    +0.000 C 
ATOM      3  C   UNL     1       0.750  11.218  21.001  0.00  0.00    +0.000 C 
ATOM      4  N   UNL     1       0.687  10.793  19.608  0.00  0.00    +0.000 N 
ATOM      5  C   UNL     1       1.337   9.621  19.266  0.00  0.00    +0.000 A 
ATOM      6  C   UNL     1       1.916   9.489  18.003  0.00  0.00    +0.000 A 
ATOM      7  C   UNL     1       2.544   8.299  17.651  0.00  0.00    +0.000 A 
ATOM      8  C   UNL     1       2.582   7.265  18.566  0.00  0.00    +0.000 A 
ATOM      9  C   UNL     1       2.000   7.470  19.803  0.00  0.00    +0.000 A 
ATOM     10  N   UNL     1       1.393   8.619  20.168  0.00  0.00    +0.000 NA
ATOM     11  C   UNL     1      -0.347  11.267  18.697  0.00  0.00    +0.000 C 
ATOM     12  C   UNL     1      -1.702  11.367  19.378  0.00  0.00    +0.000 C 
ENDROOT
BRANCH   1  15
ATOM     13  C   UNL     1      -2.440  14.421  21.274  0.00  0.00    +0.000 C 
ATOM     14  O   UNL     1      -2.655  15.539  20.801  0.00  0.00    +0.000 OA
ATOM     15  N   UNL     1      -1.552  13.537  20.643  0.00  0.00    +0.000 N 
ATOM     16  C   UNL     1      -0.680  14.139  19.633  0.00  0.00    +0.000 C 
BRANCH  13  18
ATOM     17  C   UNL     1      -4.593  14.344  22.624  0.00  0.00    +0.000 C 
ATOM     18  C   UNL     1      -3.110  13.985  22.587  0.00  0.00    +0.000 C 
BRANCH  18  19
ATOM     19  N   UNL     1      -2.409  14.550  23.746  0.00  0.00    +0.000 N 
ATOM     20  C   UNL     1      -2.986  14.919  24.933  0.00  0.00    +0.000 A 
ATOM     21  C   UNL     1      -1.945  15.388  25.701  0.00  0.00    +0.000 A 
ATOM     22  N   UNL     1      -0.766  15.336  25.009  0.00  0.00    +0.000 NA
ATOM     23  C   UNL     1      -1.072  14.816  23.842  0.00  0.00    +0.000 A 
ENDBRANCH  18  19
ENDBRANCH  13  18
ENDBRANCH   1  15
TORSDOF 3
ENDMDL
MODEL 8
REMARK VINA RESULT:      -5.7      4.318      9.427
REMARK  Name = 
REMARK  5 active torsions:
REMARK  status: ('A' for Active; 'I' for Inactive)
REMARK    1  A    between atoms: C_1  and  C_2
REMARK    2  A    between atoms: C_2  and  C_3
REMARK    3  A    between atoms: C_2  and  N_19
REMARK    4  A    between atoms: N_5  and  C_6
REMARK    5  A    between atoms: N_5  and  C_7
REMARK                            x       y       z     vdW  Elec       q    Type
REMARK                         _______ _______ _______ _____ _____    ______ ____
ROOT
ATOM      1  C   UNL     1      -0.656  10.078  20.134  0.00  0.00    +0.000 C 
ATOM      2  C   UNL     1      -0.067   8.960  20.996  0.00  0.00    +0.000 C 
ATOM      3  C   UNL     1       1.418   8.730  20.773  0.00  0.00    +0.000 C 
ATOM      4  N   UNL     1       1.784   8.735  19.362  0.00  0.00    +0.000 N 
ATOM      5  C   UNL     1       2.385   7.598  18.851  0.00  0.00    +0.000 A 
ATOM      6  C   UNL     1       3.338   7.710  17.838  0.00  0.00    +0.000 A 
ATOM      7  C   UNL     1       3.920   6.564  17.306  0.00  0.00    +0.000 A 
ATOM      8  C   UNL     1       3.540   5.331  17.797  0.00  0.00    +0.000 A 
ATOM      9  C   UNL     1       2.600   5.295  18.810  0.00  0.00    +0.000 A 
ATOM     10  N   UNL     1       2.029   6.395  19.345  0.00  0.00    +0.000 NA
ATOM     11  C   UNL     1       1.172   9.647  18.404  0.00  0.00    +0.000 C 
ATOM     12  C   UNL     1      -0.315   9.828  18.661  0.00  0.00    +0.000 C 
ENDROOT
BRANCH   1  15
ATOM     13  C   UNL     1      -1.339  12.495  20.576  0.00  0.00    +0.000 C 
ATOM     14  O   UNL     1      -1.010  13.675  20.440  0.00  0.00    +0.000 OA
ATOM     15  N   UNL     1      -0.374  11.477  20.561  0.00  0.00    +0.000 N 
ATOM     16  C   UNL     1       1.011  11.925  20.718  0.00  0.00    +0.000 C 
BRANCH  13  18
ATOM     17  C   UNL     1      -3.702  12.536  19.640  0.00  0.00    +0.000 C 
ATOM     18  C   UNL     1      -2.811  12.115  20.804  0.00  0.00    +0.000 C 
BRANCH  18  19
ATOM     19  N   UNL     1      -3.307  12.675  22.068  0.00  0.00    +0.000 N 
ATOM     20  C   UNL     1      -2.864  12.344  23.322  0.00  0.00    +0.000 A 
ATOM     21  C   UNL     1      -3.615  13.116  24.177  0.00  0.00    +0.000 A 
ATOM     22  N   UNL     1      -4.512  13.881  23.483  0.00  0.00    +0.000 NA
ATOM     23  C   UNL     1      -4.295  13.606  22.217  0.00  0.00    +0.000 A 
ENDBRANCH  18  19
ENDBRANCH  13  18
ENDBRANCH   1  15
TORSDOF 3
ENDMDL
MODEL 9
REMARK VINA RESULT:      -5.7      3.907      8.868
REMARK  Name = 
REMARK  5 active torsions:
REMARK  status: ('A' for Active; 'I' for Inactive)
REMARK    1  A    between atoms: C_1  and  C_2
REMARK    2  A    between atoms: C_2  and  C_3
REMARK    3  A    between atoms: C_2  and  N_19
REMARK    4  A    between atoms: N_5  and  C_6
REMARK    5  A    between atoms: N_5  and  C_7
REMARK                            x       y       z     vdW  Elec       q    Type
REMARK                         _______ _______ _______ _____ _____    ______ ____
ROOT
ATOM      1  C   UNL     1      -0.051  10.074  19.148  0.00  0.00    +0.000 C 
ATOM      2  C   UNL     1      -0.014   9.302  20.469  0.00  0.00    +0.000 C 
ATOM      3  C   UNL     1       1.353   8.734  20.810  0.00  0.00    +0.000 C 
ATOM      4  N   UNL     1       2.007   8.112  19.665  0.00  0.00    +0.000 N 
ATOM      5  C   UNL     1       2.352   6.776  19.773  0.00  0.00    +0.000 A 
ATOM      6  C   UNL     1       3.496   6.299  19.131  0.00  0.00    +0.000 A 
ATOM      7  C   UNL     1       3.826   4.951  19.217  0.00  0.00    +0.000 A 
ATOM      8  C   UNL     1       3.009   4.106  19.943  0.00  0.00    +0.000 A 
ATOM      9  C   UNL     1       1.899   4.649  20.563  0.00  0.00    +0.000 A 
ATOM     10  N   UNL     1       1.565   5.955  20.499  0.00  0.00    +0.000 NA
ATOM     11  C   UNL     1       1.909   8.663  18.320  0.00  0.00    +0.000 C 
ATOM     12  C   UNL     1       0.520   9.201  18.025  0.00  0.00    +0.000 C 
ENDROOT
BRANCH   1  15
ATOM     13  C   UNL     1      -0.225  12.599  19.459  0.00  0.00    +0.000 C 
ATOM     14  O   UNL     1       0.093  13.695  18.991  0.00  0.00    +0.000 OA
ATOM     15  N   UNL     1       0.519  11.449  19.156  0.00  0.00    +0.000 N 
ATOM     16  C   UNL     1       1.836  11.694  18.562  0.00  0.00    +0.000 C 
BRANCH  13  18
ATOM     17  C   UNL     1      -2.757  12.561  19.683  0.00  0.00    +0.000 C 
ATOM     18  C   UNL     1      -1.422  12.474  20.415  0.00  0.00    +0.000 C 
BRANCH  18  19
ATOM     19  N   UNL     1      -1.347  13.480  21.482  0.00  0.00    +0.000 N 
ATOM     20  C   UNL     1      -2.052  14.654  21.531  0.00  0.00    +0.000 A 
ATOM     21  C   UNL     1      -1.654  15.257  22.701  0.00  0.00    +0.000 A 
ATOM     22  N   UNL     1      -0.716  14.499  23.346  0.00  0.00    +0.000 NA
ATOM     23  C   UNL     1      -0.560  13.430  22.598  0.00  0.00    +0.000 A 
ENDBRANCH  18  19
ENDBRANCH  13  18
ENDBRANCH   1  15
TORSDOF 3
ENDMDL
