MODEL 1
REMARK VINA RESULT:      -8.2      0.000      0.000
REMARK  Name = 
REMARK  5 active torsions:
REMARK  status: ('A' for Active; 'I' for Inactive)
REMARK    1  A    between atoms: C_1  and  C_2
REMARK    2  A    between atoms: C_7  and  N_8
REMARK    3  A    between atoms: N_8  and  C_9
REMARK    4  A    between atoms: C_12  and  C_13
REMARK    5  A    between atoms: C_28  and  C_29
REMARK                            x       y       z     vdW  Elec       q    Type
REMARK                         _______ _______ _______ _____ _____    ______ ____
ROOT
ATOM      1  C   UNL     1       2.106   7.632  19.875  0.00  0.00    +0.000 A 
ATOM      2  N   UNL     1       2.846   6.679  19.267  0.00  0.00    +0.000 NA
ATOM      3  C   UNL     1       2.578   5.367  19.528  0.00  0.00    +0.000 A 
ATOM      4  C   UNL     1       3.233   4.306  18.858  0.00  0.00    +0.000 A 
ATOM      5  C   UNL     1       2.903   2.972  19.149  0.00  0.00    +0.000 A 
ATOM      6  C   UNL     1       1.947   2.671  20.110  0.00  0.00    +0.000 A 
ATOM      7  C   UNL     1       1.303   3.707  20.770  0.00  0.00    +0.000 A 
ATOM      8  C   UNL     1       1.584   5.033  20.479  0.00  0.00    +0.000 A 
ATOM      9  N   UNL     1       0.866   5.969  21.110  0.00  0.00    +0.000 NA
ATOM     10  C   UNL     1       1.103   7.263  20.782  0.00  0.00    +0.000 A 
ATOM     11  C   UNL     1       0.245   8.267  21.489  0.00  0.00    +0.000 C 
ENDROOT
BRANCH   4  12
ATOM     12  C   UNL     1       4.250   4.558  17.820  0.00  0.00    +0.000 A 
ATOM     13  C   UNL     1       5.256   5.510  17.758  0.00  0.00    +0.000 A 
ATOM     14  C   UNL     1       5.990   5.303  16.561  0.00  0.00    +0.000 A 
ATOM     15  C   UNL     1       5.386   4.249  15.909  0.00  0.00    +0.000 A 
ATOM     16  N   UNL     1       4.359   3.787  16.680  0.00  0.00    +0.000 N 
ATOM     17  C   UNL     1       5.847   3.679  14.618  0.00  0.00    +0.000 C 
ATOM     18  C   UNL     1       6.753   4.717  13.917  0.00  0.00    +0.000 C 
ATOM     19  N   UNL     1       7.613   5.479  14.821  0.00  0.00    +0.000 N 
ATOM     20  C   UNL     1       7.174   5.966  16.038  0.00  0.00    +0.000 C 
ATOM     21  O   UNL     1       7.763   6.868  16.618  0.00  0.00    +0.000 OA
ATOM     22  H   UNL     1       3.780   2.974  16.499  0.00  0.00    +0.000 HD
ATOM     23  H   UNL     1       8.379   6.017  14.437  0.00  0.00    +0.000 HD
ENDBRANCH   4  12
BRANCH   1  24
ATOM     24  N   UNL     1       2.311   8.985  19.539  0.00  0.00    +0.000 N 
ATOM     25  H   UNL     1       1.789   9.530  20.227  0.00  0.00    +0.000 HD
BRANCH  24  32
ATOM     26  C   UNL     1      -2.466  12.120  18.156  0.00  0.00    +0.000 C 
ATOM     27  C   UNL     1      -1.009  12.447  18.352  0.00  0.00    +0.000 C 
ATOM     28  O   UNL     1      -0.651  13.627  18.374  0.00  0.00    +0.000 OA
ATOM     29  N   UNL     1      -0.121  11.393  18.495  0.00  0.00    +0.000 N 
ATOM     30  C   UNL     1       1.268  11.706  18.815  0.00  0.00    +0.000 C 
ATOM     31  C   UNL     1       2.208  10.888  17.943  0.00  0.00    +0.000 C 
ATOM     32  C   UNL     1       1.978   9.385  18.158  0.00  0.00    +0.000 C 
ATOM     33  C   UNL     1       0.497   9.071  17.862  0.00  0.00    +0.000 C 
ATOM     34  C   UNL     1      -0.480   9.979  18.621  0.00  0.00    +0.000 C 
ENDBRANCH  24  32
ENDBRANCH   1  24
TORSDOF 3
ENDMDL
MODEL 2
REMARK VINA RESULT:      -8.0      4.170     10.647
REMARK  Name = 
REMARK  5 active torsions:
REMARK  status: ('A' for Active; 'I' for Inactive)
REMARK    1  A    between atoms: C_1  and  C_2
REMARK    2  A    between atoms: C_7  and  N_8
REMARK    3  A    between atoms: N_8  and  C_9
REMARK    4  A    between atoms: C_12  and  C_13
REMARK    5  A    between atoms: C_28  and  C_29
REMARK                            x       y       z     vdW  Elec       q    Type
REMARK                         _______ _______ _______ _____ _____    ______ ____
ROOT
ATOM      1  C   UNL     1       0.216  12.741  20.530  0.00  0.00    +0.000 A 
ATOM      2  N   UNL     1      -1.095  12.860  20.831  0.00  0.00    +0.000 NA
ATOM      3  C   UNL     1      -1.477  13.778  21.766  0.00  0.00    +0.000 A 
ATOM      4  C   UNL     1      -2.835  14.041  22.067  0.00  0.00    +0.000 A 
ATOM      5  C   UNL     1      -3.174  15.014  23.024  0.00  0.00    +0.000 A 
ATOM      6  C   UNL     1      -2.187  15.715  23.702  0.00  0.00    +0.000 A 
ATOM      7  C   UNL     1      -0.855  15.460  23.410  0.00  0.00    +0.000 A 
ATOM      8  C   UNL     1      -0.492  14.531  22.448  0.00  0.00    +0.000 A 
ATOM      9  N   UNL     1       0.812  14.400  22.179  0.00  0.00    +0.000 NA
ATOM     10  C   UNL     1       1.161  13.532  21.198  0.00  0.00    +0.000 A 
ATOM     11  C   UNL     1       2.629  13.451  20.910  0.00  0.00    +0.000 C 
ENDROOT
BRANCH   4  12
ATOM     12  C   UNL     1      -3.931  13.337  21.376  0.00  0.00    +0.000 A 
ATOM     13  C   UNL     1      -5.017  12.642  21.884  0.00  0.00    +0.000 A 
ATOM     14  C   UNL     1      -5.800  12.183  20.793  0.00  0.00    +0.000 A 
ATOM     15  C   UNL     1      -5.148  12.582  19.647  0.00  0.00    +0.000 A 
ATOM     16  N   UNL     1      -4.040  13.298  20.000  0.00  0.00    +0.000 N 
ATOM     17  C   UNL     1      -5.634  12.331  18.266  0.00  0.00    +0.000 C 
ATOM     18  C   UNL     1      -6.667  11.182  18.311  0.00  0.00    +0.000 C 
ATOM     19  N   UNL     1      -7.534  11.191  19.489  0.00  0.00    +0.000 N 
ATOM     20  C   UNL     1      -7.067  11.468  20.759  0.00  0.00    +0.000 C 
ATOM     21  O   UNL     1      -7.696  11.147  21.758  0.00  0.00    +0.000 OA
ATOM     22  H   UNL     1      -3.405  13.783  19.376  0.00  0.00    +0.000 HD
ATOM     23  H   UNL     1      -8.365  10.614  19.493  0.00  0.00    +0.000 HD
ENDBRANCH   4  12
BRANCH   1  24
ATOM     24  N   UNL     1       0.610  11.865  19.498  0.00  0.00    +0.000 N 
ATOM     25  H   UNL     1       0.698  12.438  18.657  0.00  0.00    +0.000 HD
BRANCH  24  32
ATOM     26  C   UNL     1       2.750   6.594  18.016  0.00  0.00    +0.000 C 
ATOM     27  C   UNL     1       2.272   7.215  19.301  0.00  0.00    +0.000 C 
ATOM     28  O   UNL     1       2.441   6.614  20.365  0.00  0.00    +0.000 OA
ATOM     29  N   UNL     1       1.648   8.451  19.232  0.00  0.00    +0.000 N 
ATOM     30  C   UNL     1       1.302   9.115  20.485  0.00  0.00    +0.000 C 
ATOM     31  C   UNL     1      -0.112   9.670  20.414  0.00  0.00    +0.000 C 
ATOM     32  C   UNL     1      -0.241  10.683  19.267  0.00  0.00    +0.000 C 
ATOM     33  C   UNL     1       0.170   9.986  17.954  0.00  0.00    +0.000 C 
ATOM     34  C   UNL     1       1.536   9.291  18.037  0.00  0.00    +0.000 C 
ENDBRANCH  24  32
ENDBRANCH   1  24
TORSDOF 3
ENDMDL
MODEL 3
REMARK VINA RESULT:      -8.0      6.753     10.938
REMARK  Name = 
REMARK  5 active torsions:
REMARK  status: ('A' for Active; 'I' for Inactive)
REMARK    1  A    between atoms: C_1  and  C_2
REMARK    2  A    between atoms: C_7  and  N_8
REMARK    3  A    between atoms: N_8  and  C_9
REMARK    4  A    between atoms: C_12  and  C_13
REMARK    5  A    between atoms: C_28  and  C_29
REMARK                            x       y       z     vdW  Elec       q    Type
REMARK                         _______ _______ _______ _____ _____    ______ ____
ROOT
ATOM      1  C   UNL     1      -2.553  11.712  18.167  0.00  0.00    +0.000 A 
ATOM      2  N   UNL     1      -3.239  12.256  19.196  0.00  0.00    +0.000 NA
ATOM      3  C   UNL     1      -4.567  11.977  19.326  0.00  0.00    +0.000 A 
ATOM      4  C   UNL     1      -5.336  12.420  20.429  0.00  0.00    +0.000 A 
ATOM      5  C   UNL     1      -6.698  12.085  20.525  0.00  0.00    +0.000 A 
ATOM      6  C   UNL     1      -7.316  11.335  19.533  0.00  0.00    +0.000 A 
ATOM      7  C   UNL     1      -6.566  10.900  18.451  0.00  0.00    +0.000 A 
ATOM      8  C   UNL     1      -5.214  11.186  18.346  0.00  0.00    +0.000 A 
ATOM      9  N   UNL     1      -4.552  10.667  17.307  0.00  0.00    +0.000 NA
ATOM     10  C   UNL     1      -3.218  10.901  17.237  0.00  0.00    +0.000 A 
ATOM     11  C   UNL     1      -2.519  10.265  16.076  0.00  0.00    +0.000 C 
ENDROOT
BRANCH   4  12
ATOM     12  C   UNL     1      -4.738  13.212  21.520  0.00  0.00    +0.000 A 
ATOM     13  C   UNL     1      -5.259  14.261  22.261  0.00  0.00    +0.000 A 
ATOM     14  C   UNL     1      -4.289  14.651  23.220  0.00  0.00    +0.000 A 
ATOM     15  C   UNL     1      -3.187  13.849  23.012  0.00  0.00    +0.000 A 
ATOM     16  N   UNL     1      -3.470  12.968  22.009  0.00  0.00    +0.000 N 
ATOM     17  C   UNL     1      -1.939  13.903  23.815  0.00  0.00    +0.000 C 
ATOM     18  C   UNL     1      -1.886  15.261  24.551  0.00  0.00    +0.000 C 
ATOM     19  N   UNL     1      -3.181  15.742  25.030  0.00  0.00    +0.000 N 
ATOM     20  C   UNL     1      -4.339  15.645  24.282  0.00  0.00    +0.000 C 
ATOM     21  O   UNL     1      -5.320  16.334  24.525  0.00  0.00    +0.000 OA
ATOM     22  H   UNL     1      -2.884  12.207  21.684  0.00  0.00    +0.000 HD
ATOM     23  H   UNL     1      -3.209  16.501  25.699  0.00  0.00    +0.000 HD
ENDBRANCH   4  12
BRANCH   1  24
ATOM     24  N   UNL     1      -1.161  11.917  18.080  0.00  0.00    +0.000 N 
ATOM     25  H   UNL     1      -0.906  11.720  17.110  0.00  0.00    +0.000 HD
BRANCH  24  32
ATOM     26  C   UNL     1       3.597  14.207  20.662  0.00  0.00    +0.000 C 
ATOM     27  C   UNL     1       2.172  13.978  21.090  0.00  0.00    +0.000 C 
ATOM     28  O   UNL     1       1.775  14.454  22.156  0.00  0.00    +0.000 OA
ATOM     29  N   UNL     1       1.358  13.226  20.258  0.00  0.00    +0.000 N 
ATOM     30  C   UNL     1      -0.056  13.111  20.602  0.00  0.00    +0.000 C 
ATOM     31  C   UNL     1      -0.517  11.669  20.468  0.00  0.00    +0.000 C 
ATOM     32  C   UNL     1      -0.318  11.167  19.030  0.00  0.00    +0.000 C 
ATOM     33  C   UNL     1       1.170  11.333  18.657  0.00  0.00    +0.000 C 
ATOM     34  C   UNL     1       1.706  12.748  18.918  0.00  0.00    +0.000 C 
ENDBRANCH  24  32
ENDBRANCH   1  24
TORSDOF 3
ENDMDL
MODEL 4
REMARK VINA RESULT:      -7.8      5.908     11.107
REMARK  Name = 
REMARK  5 active torsions:
REMARK  status: ('A' for Active; 'I' for Inactive)
REMARK    1  A    between atoms: C_1  and  C_2
REMARK    2  A    between atoms: C_7  and  N_8
REMARK    3  A    between atoms: N_8  and  C_9
REMARK    4  A    between atoms: C_12  and  C_13
REMARK    5  A    between atoms: C_28  and  C_29
REMARK                            x       y       z     vdW  Elec       q    Type
REMARK                         _______ _______ _______ _____ _____    ______ ____
ROOT
ATOM      1  C   UNL     1      -2.853  11.313  17.772  0.00  0.00    +0.000 A 
ATOM      2  N   UNL     1      -3.517  11.984  18.738  0.00  0.00    +0.000 NA
ATOM      3  C   UNL     1      -4.815  12.343  18.521  0.00  0.00    +0.000 A 
ATOM      4  C   UNL     1      -5.614  12.955  19.516  0.00  0.00    +0.000 A 
ATOM      5  C   UNL     1      -6.954  13.284  19.246  0.00  0.00    +0.000 A 
ATOM      6  C   UNL     1      -7.508  13.036  17.998  0.00  0.00    +0.000 A 
ATOM      7  C   UNL     1      -6.728  12.436  17.020  0.00  0.00    +0.000 A 
ATOM      8  C   UNL     1      -5.415  12.070  17.268  0.00  0.00    +0.000 A 
ATOM      9  N   UNL     1      -4.758  11.432  16.293  0.00  0.00    +0.000 NA
ATOM     10  C   UNL     1      -3.492  11.024  16.558  0.00  0.00    +0.000 A 
ATOM     11  C   UNL     1      -2.816  10.282  15.446  0.00  0.00    +0.000 C 
ENDROOT
BRANCH   4  12
ATOM     12  C   UNL     1      -5.088  13.238  20.864  0.00  0.00    +0.000 A 
ATOM     13  C   UNL     1      -5.296  12.582  22.067  0.00  0.00    +0.000 A 
ATOM     14  C   UNL     1      -4.527  13.233  23.066  0.00  0.00    +0.000 A 
ATOM     15  C   UNL     1      -3.898  14.293  22.448  0.00  0.00    +0.000 A 
ATOM     16  N   UNL     1      -4.216  14.276  21.121  0.00  0.00    +0.000 N 
ATOM     17  C   UNL     1      -2.969  15.234  23.123  0.00  0.00    +0.000 C 
ATOM     18  C   UNL     1      -3.201  15.144  24.649  0.00  0.00    +0.000 C 
ATOM     19  N   UNL     1      -3.491  13.798  25.140  0.00  0.00    +0.000 N 
ATOM     20  C   UNL     1      -4.327  12.922  24.474  0.00  0.00    +0.000 C 
ATOM     21  O   UNL     1      -4.829  11.959  25.037  0.00  0.00    +0.000 OA
ATOM     22  H   UNL     1      -3.845  14.885  20.399  0.00  0.00    +0.000 HD
ATOM     23  H   UNL     1      -3.442  13.614  26.133  0.00  0.00    +0.000 HD
ENDBRANCH   4  12
BRANCH   1  24
ATOM     24  N   UNL     1      -1.544  10.854  18.024  0.00  0.00    +0.000 N 
ATOM     25  H   UNL     1      -1.644   9.924  18.435  0.00  0.00    +0.000 HD
BRANCH  24  32
ATOM     26  C   UNL     1       0.086   9.527  23.514  0.00  0.00    +0.000 C 
ATOM     27  C   UNL     1       0.745   9.426  22.164  0.00  0.00    +0.000 C 
ATOM     28  O   UNL     1       1.820   8.830  22.057  0.00  0.00    +0.000 OA
ATOM     29  N   UNL     1       0.110  10.022  21.086  0.00  0.00    +0.000 N 
ATOM     30  C   UNL     1       0.677   9.815  19.757  0.00  0.00    +0.000 C 
ATOM     31  C   UNL     1       0.728  11.130  18.994  0.00  0.00    +0.000 C 
ATOM     32  C   UNL     1      -0.680  11.724  18.843  0.00  0.00    +0.000 C 
ATOM     33  C   UNL     1      -1.290  11.897  20.250  0.00  0.00    +0.000 C 
ATOM     34  C   UNL     1      -1.227  10.621  21.100  0.00  0.00    +0.000 C 
ENDBRANCH  24  32
ENDBRANCH   1  24
TORSDOF 3
ENDMDL
MODEL 5
REMARK VINA RESULT:      -7.7      6.916     10.882
REMARK  Name = 
REMARK  5 active torsions:
REMARK  status: ('A' for Active; 'I' for Inactive)
REMARK    1  A    between atoms: C_1  and  C_2
REMARK    2  A    between atoms: C_7  and  N_8
REMARK    3  A    between atoms: N_8  and  C_9
REMARK    4  A    between atoms: C_12  and  C_13
REMARK    5  A    between atoms: C_28  and  C_29
REMARK                            x       y       z     vdW  Elec       q    Type
REMARK                         _______ _______ _______ _____ _____    ______ ____
ROOT
ATOM      1  C   UNL     1      -2.545  11.745  18.096  0.00  0.00    +0.000 A 
ATOM      2  N   UNL     1      -3.198  12.267  19.157  0.00  0.00    +0.000 NA
ATOM      3  C   UNL     1      -4.523  11.986  19.321  0.00  0.00    +0.000 A 
ATOM      4  C   UNL     1      -5.258  12.405  20.456  0.00  0.00    +0.000 A 
ATOM      5  C   UNL     1      -6.617  12.069  20.585  0.00  0.00    +0.000 A 
ATOM      6  C   UNL     1      -7.265  11.343  19.597  0.00  0.00    +0.000 A 
ATOM      7  C   UNL     1      -6.549  10.931  18.482  0.00  0.00    +0.000 A 
ATOM      8  C   UNL     1      -5.201  11.218  18.344  0.00  0.00    +0.000 A 
ATOM      9  N   UNL     1      -4.571  10.721  17.273  0.00  0.00    +0.000 NA
ATOM     10  C   UNL     1      -3.239  10.956  17.169  0.00  0.00    +0.000 A 
ATOM     11  C   UNL     1      -2.576  10.345  15.973  0.00  0.00    +0.000 C 
ENDROOT
BRANCH   4  12
ATOM     12  C   UNL     1      -4.626  13.172  21.546  0.00  0.00    +0.000 A 
ATOM     13  C   UNL     1      -5.114  14.220  22.310  0.00  0.00    +0.000 A 
ATOM     14  C   UNL     1      -4.119  14.580  23.256  0.00  0.00    +0.000 A 
ATOM     15  C   UNL     1      -3.036  13.762  23.017  0.00  0.00    +0.000 A 
ATOM     16  N   UNL     1      -3.354  12.899  22.008  0.00  0.00    +0.000 N 
ATOM     17  C   UNL     1      -1.773  13.783  23.798  0.00  0.00    +0.000 C 
ATOM     18  C   UNL     1      -1.682  15.130  24.550  0.00  0.00    +0.000 C 
ATOM     19  N   UNL     1      -2.960  15.627  25.059  0.00  0.00    +0.000 N 
ATOM     20  C   UNL     1      -4.132  15.561  24.331  0.00  0.00    +0.000 C 
ATOM     21  O   UNL     1      -5.096  16.264  24.601  0.00  0.00    +0.000 OA
ATOM     22  H   UNL     1      -2.787  12.132  21.663  0.00  0.00    +0.000 HD
ATOM     23  H   UNL     1      -2.961  16.377  25.738  0.00  0.00    +0.000 HD
ENDBRANCH   4  12
BRANCH   1  24
ATOM     24  N   UNL     1      -1.156  11.950  17.971  0.00  0.00    +0.000 N 
ATOM     25  H   UNL     1      -0.811  11.196  17.375  0.00  0.00    +0.000 HD
BRANCH  24  32
ATOM     26  C   UNL     1       4.124  14.514  18.296  0.00  0.00    +0.000 C 
ATOM     27  C   UNL     1       2.720  14.944  18.628  0.00  0.00    +0.000 C 
ATOM     28  O   UNL     1       2.500  16.122  18.922  0.00  0.00    +0.000 OA
ATOM     29  N   UNL     1       1.722  13.983  18.593  0.00  0.00    +0.000 N 
ATOM     30  C   UNL     1       0.343  14.421  18.786  0.00  0.00    +0.000 C 
ATOM     31  C   UNL     1      -0.374  13.495  19.755  0.00  0.00    +0.000 C 
ATOM     32  C   UNL     1      -0.384  12.054  19.224  0.00  0.00    +0.000 C 
ATOM     33  C   UNL     1       1.075  11.615  18.980  0.00  0.00    +0.000 C 
ATOM     34  C   UNL     1       1.871  12.605  18.119  0.00  0.00    +0.000 C 
ENDBRANCH  24  32
ENDBRANCH   1  24
TORSDOF 3
ENDMDL
MODEL 6
REMARK VINA RESULT:      -7.7      4.134     11.135
REMARK  Name = 
REMARK  5 active torsions:
REMARK  status: ('A' for Active; 'I' for Inactive)
REMARK    1  A    between atoms: C_1  and  C_2
REMARK    2  A    between atoms: C_7  and  N_8
REMARK    3  A    between atoms: N_8  and  C_9
REMARK    4  A    between atoms: C_12  and  C_13
REMARK    5  A    between atoms: C_28  and  C_29
REMARK                            x       y       z     vdW  Elec       q    Type
REMARK                         _______ _______ _______ _____ _____    ______ ____
ROOT
ATOM      1  C   UNL     1       0.821  12.844  19.781  0.00  0.00    +0.000 A 
ATOM      2  N   UNL     1      -0.292  13.394  20.313  0.00  0.00    +0.000 NA
ATOM      3  C   UNL     1      -0.638  14.664  19.956  0.00  0.00    +0.000 A 
ATOM      4  C   UNL     1      -1.840  15.277  20.384  0.00  0.00    +0.000 A 
ATOM      5  C   UNL     1      -2.159  16.581  19.967  0.00  0.00    +0.000 A 
ATOM      6  C   UNL     1      -1.295  17.295  19.148  0.00  0.00    +0.000 A 
ATOM      7  C   UNL     1      -0.116  16.698  18.727  0.00  0.00    +0.000 A 
ATOM      8  C   UNL     1       0.209  15.402  19.095  0.00  0.00    +0.000 A 
ATOM      9  N   UNL     1       1.330  14.879  18.585  0.00  0.00    +0.000 NA
ATOM     10  C   UNL     1       1.616  13.591  18.900  0.00  0.00    +0.000 A 
ATOM     11  C   UNL     1       2.860  13.043  18.273  0.00  0.00    +0.000 C 
ENDROOT
BRANCH   4  12
ATOM     12  C   UNL     1      -2.804  14.569  21.246  0.00  0.00    +0.000 A 
ATOM     13  C   UNL     1      -4.184  14.466  21.159  0.00  0.00    +0.000 A 
ATOM     14  C   UNL     1      -4.635  13.635  22.217  0.00  0.00    +0.000 A 
ATOM     15  C   UNL     1      -3.517  13.283  22.942  0.00  0.00    +0.000 A 
ATOM     16  N   UNL     1      -2.417  13.822  22.341  0.00  0.00    +0.000 N 
ATOM     17  C   UNL     1      -3.527  12.395  24.132  0.00  0.00    +0.000 C 
ATOM     18  C   UNL     1      -4.967  12.340  24.693  0.00  0.00    +0.000 C 
ATOM     19  N   UNL     1      -6.015  12.343  23.673  0.00  0.00    +0.000 N 
ATOM     20  C   UNL     1      -5.965  13.149  22.551  0.00  0.00    +0.000 C 
ATOM     21  O   UNL     1      -6.967  13.401  21.897  0.00  0.00    +0.000 OA
ATOM     22  H   UNL     1      -1.448  13.675  22.601  0.00  0.00    +0.000 HD
ATOM     23  H   UNL     1      -6.960  12.095  23.936  0.00  0.00    +0.000 HD
ENDBRANCH   4  12
BRANCH   1  24
ATOM     24  N   UNL     1       1.134  11.500  20.070  0.00  0.00    +0.000 N 
ATOM     25  H   UNL     1       2.085  11.351  19.728  0.00  0.00    +0.000 HD
BRANCH  24  32
ATOM     26  C   UNL     1       2.888   6.251  18.088  0.00  0.00    +0.000 C 
ATOM     27  C   UNL     1       2.303   6.748  19.384  0.00  0.00    +0.000 C 
ATOM     28  O   UNL     1       2.256   5.993  20.357  0.00  0.00    +0.000 OA
ATOM     29  N   UNL     1       1.830   8.050  19.424  0.00  0.00    +0.000 N 
ATOM     30  C   UNL     1       1.384   8.578  20.710  0.00  0.00    +0.000 C 
ATOM     31  C   UNL     1       0.061   9.310  20.550  0.00  0.00    +0.000 C 
ATOM     32  C   UNL     1       0.203  10.476  19.561  0.00  0.00    +0.000 C 
ATOM     33  C   UNL     1       0.718   9.917  18.218  0.00  0.00    +0.000 C 
ATOM     34  C   UNL     1       1.976   9.051  18.365  0.00  0.00    +0.000 C 
ENDBRANCH  24  32
ENDBRANCH   1  24
TORSDOF 3
ENDMDL
MODEL 7
REMARK VINA RESULT:      -7.6      6.161      9.961
REMARK  Name = 
REMARK  5 active torsions:
REMARK  status: ('A' for Active; 'I' for Inactive)
REMARK    1  A    between atoms: C_1  and  C_2
REMARK    2  A    between atoms: C_7  and  N_8
REMARK    3  A    between atoms: N_8  and  C_9
REMARK    4  A    between atoms: C_12  and  C_13
REMARK    5  A    between atoms: C_28  and  C_29
REMARK                            x       y       z     vdW  Elec       q    Type
REMARK                         _______ _______ _______ _____ _____    ______ ____
ROOT
ATOM      1  C   UNL     1      -3.244  11.565  17.691  0.00  0.00    +0.000 A 
ATOM      2  N   UNL     1      -2.607  11.723  18.872  0.00  0.00    +0.000 NA
ATOM      3  C   UNL     1      -1.430  11.066  19.082  0.00  0.00    +0.000 A 
ATOM      4  C   UNL     1      -0.647  11.256  20.246  0.00  0.00    +0.000 A 
ATOM      5  C   UNL     1       0.570  10.570  20.402  0.00  0.00    +0.000 A 
ATOM      6  C   UNL     1       1.013   9.682  19.431  0.00  0.00    +0.000 A 
ATOM      7  C   UNL     1       0.249   9.493  18.289  0.00  0.00    +0.000 A 
ATOM      8  C   UNL     1      -0.938  10.181  18.093  0.00  0.00    +0.000 A 
ATOM      9  N   UNL     1      -1.576   9.993  16.932  0.00  0.00    +0.000 NA
ATOM     10  C   UNL     1      -2.707  10.710  16.718  0.00  0.00    +0.000 A 
ATOM     11  C   UNL     1      -3.359  10.490  15.388  0.00  0.00    +0.000 C 
ENDROOT
BRANCH   4  12
ATOM     12  C   UNL     1      -1.058  12.191  21.310  0.00  0.00    +0.000 A 
ATOM     13  C   UNL     1      -0.346  13.191  21.954  0.00  0.00    +0.000 A 
ATOM     14  C   UNL     1      -1.214  13.830  22.876  0.00  0.00    +0.000 A 
ATOM     15  C   UNL     1      -2.424  13.177  22.793  0.00  0.00    +0.000 A 
ATOM     16  N   UNL     1      -2.335  12.211  21.833  0.00  0.00    +0.000 N 
ATOM     17  C   UNL     1      -3.634  13.537  23.575  0.00  0.00    +0.000 C 
ATOM     18  C   UNL     1      -3.200  14.388  24.789  0.00  0.00    +0.000 C 
ATOM     19  N   UNL     1      -2.103  15.316  24.518  0.00  0.00    +0.000 N 
ATOM     20  C   UNL     1      -1.004  14.973  23.753  0.00  0.00    +0.000 C 
ATOM     21  O   UNL     1       0.041  15.606  23.810  0.00  0.00    +0.000 OA
ATOM     22  H   UNL     1      -3.086  11.618  21.494  0.00  0.00    +0.000 HD
ATOM     23  H   UNL     1      -1.903  16.051  25.183  0.00  0.00    +0.000 HD
ENDBRANCH   4  12
BRANCH   1  24
ATOM     24  N   UNL     1      -4.409  12.313  17.428  0.00  0.00    +0.000 N 
ATOM     25  H   UNL     1      -4.172  13.286  17.630  0.00  0.00    +0.000 HD
BRANCH  24  32
ATOM     26  C   UNL     1      -6.816  15.367  21.837  0.00  0.00    +0.000 C 
ATOM     27  C   UNL     1      -7.099  15.240  20.364  0.00  0.00    +0.000 C 
ATOM     28  O   UNL     1      -7.916  15.998  19.836  0.00  0.00    +0.000 OA
ATOM     29  N   UNL     1      -6.423  14.259  19.655  0.00  0.00    +0.000 N 
ATOM     30  C   UNL     1      -6.595  14.218  18.207  0.00  0.00    +0.000 C 
ATOM     31  C   UNL     1      -6.828  12.789  17.743  0.00  0.00    +0.000 C 
ATOM     32  C   UNL     1      -5.640  11.894  18.124  0.00  0.00    +0.000 C 
ATOM     33  C   UNL     1      -5.436  11.978  19.651  0.00  0.00    +0.000 C 
ATOM     34  C   UNL     1      -5.340  13.418  20.172  0.00  0.00    +0.000 C 
ENDBRANCH  24  32
ENDBRANCH   1  24
TORSDOF 3
ENDMDL
MODEL 8
REMARK VINA RESULT:      -7.6      6.791     11.122
REMARK  Name = 
REMARK  5 active torsions:
REMARK  status: ('A' for Active; 'I' for Inactive)
REMARK    1  A    between atoms: C_1  and  C_2
REMARK    2  A    between atoms: C_7  and  N_8
REMARK    3  A    between atoms: N_8  and  C_9
REMARK    4  A    between atoms: C_12  and  C_13
REMARK    5  A    between atoms: C_28  and  C_29
REMARK                            x       y       z     vdW  Elec       q    Type
REMARK                         _______ _______ _______ _____ _____    ______ ____
ROOT
ATOM      1  C   UNL     1      -2.732  11.547  18.040  0.00  0.00    +0.000 A 
ATOM      2  N   UNL     1      -3.446  12.169  19.004  0.00  0.00    +0.000 NA
ATOM      3  C   UNL     1      -4.786  12.349  18.821  0.00  0.00    +0.000 A 
ATOM      4  C   UNL     1      -5.626  12.896  19.821  0.00  0.00    +0.000 A 
ATOM      5  C   UNL     1      -7.005  13.038  19.588  0.00  0.00    +0.000 A 
ATOM      6  C   UNL     1      -7.562  12.667  18.372  0.00  0.00    +0.000 A 
ATOM      7  C   UNL     1      -6.743  12.130  17.390  0.00  0.00    +0.000 A 
ATOM      8  C   UNL     1      -5.385  11.947  17.603  0.00  0.00    +0.000 A 
ATOM      9  N   UNL     1      -4.682  11.357  16.630  0.00  0.00    +0.000 NA
ATOM     10  C   UNL     1      -3.366  11.127  16.863  0.00  0.00    +0.000 A 
ATOM     11  C   UNL     1      -2.636  10.430  15.757  0.00  0.00    +0.000 C 
ENDROOT
BRANCH   4  12
ATOM     12  C   UNL     1      -5.099  13.302  21.137  0.00  0.00    +0.000 A 
ATOM     13  C   UNL     1      -5.152  12.662  22.365  0.00  0.00    +0.000 A 
ATOM     14  C   UNL     1      -4.457  13.458  23.311  0.00  0.00    +0.000 A 
ATOM     15  C   UNL     1      -4.029  14.582  22.638  0.00  0.00    +0.000 A 
ATOM     16  N   UNL     1      -4.392  14.472  21.327  0.00  0.00    +0.000 N 
ATOM     17  C   UNL     1      -3.235  15.680  23.246  0.00  0.00    +0.000 C 
ATOM     18  C   UNL     1      -3.388  15.605  24.783  0.00  0.00    +0.000 C 
ATOM     19  N   UNL     1      -3.442  14.247  25.321  0.00  0.00    +0.000 N 
ATOM     20  C   UNL     1      -4.154  13.229  24.716  0.00  0.00    +0.000 C 
ATOM     21  O   UNL     1      -4.475  12.219  25.326  0.00  0.00    +0.000 OA
ATOM     22  H   UNL     1      -4.151  15.108  20.574  0.00  0.00    +0.000 HD
ATOM     23  H   UNL     1      -3.325  14.106  26.316  0.00  0.00    +0.000 HD
ENDBRANCH   4  12
BRANCH   1  24
ATOM     24  N   UNL     1      -1.368  11.271  18.261  0.00  0.00    +0.000 N 
ATOM     25  H   UNL     1      -1.266  10.259  18.177  0.00  0.00    +0.000 HD
BRANCH  24  32
ATOM     26  C   UNL     1       3.732  14.187  18.490  0.00  0.00    +0.000 C 
ATOM     27  C   UNL     1       2.282  14.593  18.506  0.00  0.00    +0.000 C 
ATOM     28  O   UNL     1       1.987  15.788  18.419  0.00  0.00    +0.000 OA
ATOM     29  N   UNL     1       1.329  13.594  18.625  0.00  0.00    +0.000 N 
ATOM     30  C   UNL     1      -0.076  13.970  18.510  0.00  0.00    +0.000 C 
ATOM     31  C   UNL     1      -0.892  13.306  19.608  0.00  0.00    +0.000 C 
ATOM     32  C   UNL     1      -0.782  11.777  19.517  0.00  0.00    +0.000 C 
ATOM     33  C   UNL     1       0.710  11.391  19.594  0.00  0.00    +0.000 C 
ATOM     34  C   UNL     1       1.587  12.153  18.591  0.00  0.00    +0.000 C 
ENDBRANCH  24  32
ENDBRANCH   1  24
TORSDOF 3
ENDMDL
MODEL 9
REMARK VINA RESULT:      -7.5      5.993      9.725
REMARK  Name = 
REMARK  5 active torsions:
REMARK  status: ('A' for Active; 'I' for Inactive)
REMARK    1  A    between atoms: C_1  and  C_2
REMARK    2  A    between atoms: C_7  and  N_8
REMARK    3  A    between atoms: N_8  and  C_9
REMARK    4  A    between atoms: C_12  and  C_13
REMARK    5  A    between atoms: C_28  and  C_29
REMARK                            x       y       z     vdW  Elec       q    Type
REMARK                         _______ _______ _______ _____ _____    ______ ____
ROOT
ATOM      1  C   UNL     1      -4.855  13.296  22.119  0.00  0.00    +0.000 A 
ATOM      2  N   UNL     1      -4.166  12.741  21.098  0.00  0.00    +0.000 NA
ATOM      3  C   UNL     1      -4.853  12.253  20.025  0.00  0.00    +0.000 A 
ATOM      4  C   UNL     1      -4.207  11.750  18.870  0.00  0.00    +0.000 A 
ATOM      5  C   UNL     1      -4.964  11.280  17.783  0.00  0.00    +0.000 A 
ATOM      6  C   UNL     1      -6.351  11.281  17.830  0.00  0.00    +0.000 A 
ATOM      7  C   UNL     1      -6.987  11.773  18.960  0.00  0.00    +0.000 A 
ATOM      8  C   UNL     1      -6.268  12.274  20.034  0.00  0.00    +0.000 A 
ATOM      9  N   UNL     1      -6.962  12.795  21.052  0.00  0.00    +0.000 NA
ATOM     10  C   UNL     1      -6.255  13.336  22.076  0.00  0.00    +0.000 A 
ATOM     11  C   UNL     1      -7.080  13.939  23.171  0.00  0.00    +0.000 C 
ENDROOT
BRANCH   4  12
ATOM     12  C   UNL     1      -2.737  11.729  18.753  0.00  0.00    +0.000 A 
ATOM     13  C   UNL     1      -1.865  10.671  18.551  0.00  0.00    +0.000 A 
ATOM     14  C   UNL     1      -0.547  11.191  18.475  0.00  0.00    +0.000 A 
ATOM     15  C   UNL     1      -0.650  12.552  18.669  0.00  0.00    +0.000 A 
ATOM     16  N   UNL     1      -1.969  12.875  18.809  0.00  0.00    +0.000 N 
ATOM     17  C   UNL     1       0.494  13.498  18.646  0.00  0.00    +0.000 C 
ATOM     18  C   UNL     1       1.799  12.697  18.857  0.00  0.00    +0.000 C 
ATOM     19  N   UNL     1       1.817  11.386  18.212  0.00  0.00    +0.000 N 
ATOM     20  C   UNL     1       0.726  10.537  18.211  0.00  0.00    +0.000 C 
ATOM     21  O   UNL     1       0.843   9.341  17.983  0.00  0.00    +0.000 OA
ATOM     22  H   UNL     1      -2.362  13.807  18.890  0.00  0.00    +0.000 HD
ATOM     23  H   UNL     1       2.696  10.894  18.118  0.00  0.00    +0.000 HD
ENDBRANCH   4  12
BRANCH   1  24
ATOM     24  N   UNL     1      -4.150  13.889  23.186  0.00  0.00    +0.000 N 
ATOM     25  H   UNL     1      -4.648  13.621  24.037  0.00  0.00    +0.000 HD
BRANCH  24  32
ATOM     26  C   UNL     1      -0.681  16.822  26.917  0.00  0.00    +0.000 C 
ATOM     27  C   UNL     1      -0.519  16.300  25.514  0.00  0.00    +0.000 C 
ATOM     28  O   UNL     1       0.593  16.330  24.981  0.00  0.00    +0.000 OA
ATOM     29  N   UNL     1      -1.644  15.807  24.872  0.00  0.00    +0.000 N 
ATOM     30  C   UNL     1      -1.467  15.182  23.565  0.00  0.00    +0.000 C 
ATOM     31  C   UNL     1      -2.528  15.677  22.595  0.00  0.00    +0.000 C 
ATOM     32  C   UNL     1      -3.935  15.346  23.114  0.00  0.00    +0.000 C 
ATOM     33  C   UNL     1      -4.098  15.973  24.514  0.00  0.00    +0.000 C 
ATOM     34  C   UNL     1      -2.962  15.606  25.479  0.00  0.00    +0.000 C 
ENDBRANCH  24  32
ENDBRANCH   1  24
TORSDOF 3
ENDMDL
