MODEL 1
REMARK VINA RESULT:      -8.3      0.000      0.000
REMARK  Name = 
REMARK  6 active torsions:
REMARK  status: ('A' for Active; 'I' for Inactive)
REMARK    1  A    between atoms: N_1  and  C_2
REMARK    2  A    between atoms: C_5  and  C_6
REMARK    3  A    between atoms: C_8  and  N_9
REMARK    4  A    between atoms: C_11  and  N_12
REMARK    5  A    between atoms: C_29  and  O_30
REMARK    6  A    between atoms: O_30  and  C_31
REMARK                            x       y       z     vdW  Elec       q    Type
REMARK                         _______ _______ _______ _____ _____    ______ ____
ROOT
ATOM      1  C   UNL     1       4.297   5.981  17.352  0.00  0.00    +0.000 A 
ATOM      2  C   UNL     1       3.564   7.142  17.244  0.00  0.00    +0.000 A 
ATOM      3  C   UNL     1       2.591   7.374  18.185  0.00  0.00    +0.000 A 
ATOM      4  N   UNL     1       2.327   6.480  19.149  0.00  0.00    +0.000 NA
ATOM      5  C   UNL     1       3.074   5.363  19.206  0.00  0.00    +0.000 A 
ATOM      6  N   UNL     1       2.818   4.481  20.227  0.00  0.00    +0.000 N 
ATOM      7  C   UNL     1       3.565   3.241  20.366  0.00  0.00    +0.000 C 
ATOM      8  C   UNL     1       2.843   2.543  21.517  0.00  0.00    +0.000 C 
ATOM      9  C   UNL     1       1.396   2.858  21.208  0.00  0.00    +0.000 C 
ATOM     10  F   UNL     1       0.621   2.754  22.307  0.00  0.00    +0.000 F 
ATOM     11  F   UNL     1       0.921   1.981  20.290  0.00  0.00    +0.000 F 
ATOM     12  C   UNL     1       1.422   4.283  20.637  0.00  0.00    +0.000 C 
ATOM     13  N   UNL     1       4.069   5.097  18.345  0.00  0.00    +0.000 NA
ENDROOT
BRANCH   1  17
ATOM     14  C   UNL     1       7.424   5.252  14.559  0.00  0.00    +0.000 A 
ATOM     15  N   UNL     1       7.560   6.239  15.463  0.00  0.00    +0.000 NA
ATOM     16  C   UNL     1       6.562   6.416  16.371  0.00  0.00    +0.000 A 
ATOM     17  C   UNL     1       5.387   5.680  16.412  0.00  0.00    +0.000 A 
ATOM     18  C   UNL     1       5.290   4.653  15.463  0.00  0.00    +0.000 A 
ATOM     19  C   UNL     1       6.311   4.408  14.536  0.00  0.00    +0.000 A 
BRANCH  14  20
ATOM     20  N   UNL     1       8.480   5.154  13.650  0.00  0.00    +0.000 N 
ATOM     21  H   UNL     1       8.418   4.203  13.283  0.00  0.00    +0.000 HD
ATOM     22  H   UNL     1       8.320   5.808  12.885  0.00  0.00    +0.000 HD
ENDBRANCH  14  20
BRANCH  19  23
ATOM     23  O   UNL     1       6.031   3.372  13.694  0.00  0.00    +0.000 OA
BRANCH  23  24
ATOM     24  C   UNL     1       5.932   3.642  12.311  0.00  0.00    +0.000 C 
ATOM     25  F   UNL     1       6.718   2.789  11.602  0.00  0.00    +0.000 F 
ATOM     26  F   UNL     1       4.654   3.355  11.949  0.00  0.00    +0.000 F 
ENDBRANCH  23  24
ENDBRANCH  19  23
ENDBRANCH   1  17
BRANCH   3  27
ATOM     27  N   UNL     1       1.904   8.605  18.135  0.00  0.00    +0.000 N 
ATOM     28  C   UNL     1       2.275   9.839  18.745  0.00  0.00    +0.000 C 
ATOM     29  C   UNL     1       0.807  10.072  19.127  0.00  0.00    +0.000 C 
ATOM     30  C   UNL     1       0.500   8.791  18.343  0.00  0.00    +0.000 C 
BRANCH  29  31
ATOM     31  N   UNL     1       0.525   9.918  20.531  0.00  0.00    +0.000 N 
ATOM     32  C   UNL     1       1.115   9.034  21.404  0.00  0.00    +0.000 A 
ATOM     33  C   UNL     1       0.561   9.280  22.635  0.00  0.00    +0.000 A 
ATOM     34  C   UNL     1      -0.381  10.298  22.405  0.00  0.00    +0.000 A 
ATOM     35  N   UNL     1      -0.409  10.687  21.129  0.00  0.00    +0.000 NA
ENDBRANCH  29  31
ENDBRANCH   3  27
TORSDOF 6
ENDMDL
MODEL 2
REMARK VINA RESULT:      -7.5      4.814      7.705
REMARK  Name = 
REMARK  6 active torsions:
REMARK  status: ('A' for Active; 'I' for Inactive)
REMARK    1  A    between atoms: N_1  and  C_2
REMARK    2  A    between atoms: C_5  and  C_6
REMARK    3  A    between atoms: C_8  and  N_9
REMARK    4  A    between atoms: C_11  and  N_12
REMARK    5  A    between atoms: C_29  and  O_30
REMARK    6  A    between atoms: O_30  and  C_31
REMARK                            x       y       z     vdW  Elec       q    Type
REMARK                         _______ _______ _______ _____ _____    ______ ____
ROOT
ATOM      1  C   UNL     1       0.952   9.474  18.545  0.00  0.00    +0.000 A 
ATOM      2  C   UNL     1      -0.202   9.357  17.802  0.00  0.00    +0.000 A 
ATOM      3  C   UNL     1      -1.037  10.444  17.741  0.00  0.00    +0.000 A 
ATOM      4  N   UNL     1      -0.767  11.569  18.419  0.00  0.00    +0.000 NA
ATOM      5  C   UNL     1       0.374  11.628  19.129  0.00  0.00    +0.000 A 
ATOM      6  N   UNL     1       0.655  12.804  19.781  0.00  0.00    +0.000 N 
ATOM      7  C   UNL     1       1.857  12.960  20.582  0.00  0.00    +0.000 C 
ATOM      8  C   UNL     1       1.663  14.337  21.214  0.00  0.00    +0.000 C 
ATOM      9  C   UNL     1       0.186  14.317  21.544  0.00  0.00    +0.000 C 
ATOM     10  F   UNL     1      -0.310  15.564  21.674  0.00  0.00    +0.000 F 
ATOM     11  F   UNL     1      -0.012  13.675  22.722  0.00  0.00    +0.000 F 
ATOM     12  C   UNL     1      -0.460  13.542  20.387  0.00  0.00    +0.000 C 
ATOM     13  N   UNL     1       1.255  10.617  19.194  0.00  0.00    +0.000 NA
ENDROOT
BRANCH   1  17
ATOM     14  C   UNL     1       3.698   6.224  18.633  0.00  0.00    +0.000 A 
ATOM     15  N   UNL     1       3.822   7.170  17.684  0.00  0.00    +0.000 NA
ATOM     16  C   UNL     1       2.956   8.220  17.712  0.00  0.00    +0.000 A 
ATOM     17  C   UNL     1       1.922   8.370  18.624  0.00  0.00    +0.000 A 
ATOM     18  C   UNL     1       1.835   7.372  19.603  0.00  0.00    +0.000 A 
ATOM     19  C   UNL     1       2.730   6.296  19.638  0.00  0.00    +0.000 A 
BRANCH  14  20
ATOM     20  N   UNL     1       4.609   5.172  18.519  0.00  0.00    +0.000 N 
ATOM     21  H   UNL     1       5.293   5.495  17.833  0.00  0.00    +0.000 HD
ATOM     22  H   UNL     1       5.082   5.044  19.413  0.00  0.00    +0.000 HD
ENDBRANCH  14  20
BRANCH  19  23
ATOM     23  O   UNL     1       2.483   5.427  20.660  0.00  0.00    +0.000 OA
BRANCH  23  24
ATOM     24  C   UNL     1       1.338   4.603  20.576  0.00  0.00    +0.000 C 
ATOM     25  F   UNL     1       1.289   3.977  19.371  0.00  0.00    +0.000 F 
ATOM     26  F   UNL     1       1.500   3.618  21.499  0.00  0.00    +0.000 F 
ENDBRANCH  23  24
ENDBRANCH  19  23
ENDBRANCH   1  17
BRANCH   3  27
ATOM     27  N   UNL     1      -2.171  10.362  16.904  0.00  0.00    +0.000 N 
ATOM     28  C   UNL     1      -2.759  11.399  16.124  0.00  0.00    +0.000 C 
ATOM     29  C   UNL     1      -4.149  10.893  16.530  0.00  0.00    +0.000 C 
ATOM     30  C   UNL     1      -3.418   9.747  17.241  0.00  0.00    +0.000 C 
BRANCH  29  31
ATOM     31  N   UNL     1      -4.843  11.742  17.465  0.00  0.00    +0.000 N 
ATOM     32  C   UNL     1      -5.966  12.499  17.224  0.00  0.00    +0.000 A 
ATOM     33  C   UNL     1      -6.287  13.101  18.414  0.00  0.00    +0.000 A 
ATOM     34  C   UNL     1      -5.283  12.687  19.306  0.00  0.00    +0.000 A 
ATOM     35  N   UNL     1      -4.402  11.863  18.735  0.00  0.00    +0.000 NA
ENDBRANCH  29  31
ENDBRANCH   3  27
TORSDOF 6
ENDMDL
MODEL 3
REMARK VINA RESULT:      -7.4      4.804      7.700
REMARK  Name = 
REMARK  6 active torsions:
REMARK  status: ('A' for Active; 'I' for Inactive)
REMARK    1  A    between atoms: N_1  and  C_2
REMARK    2  A    between atoms: C_5  and  C_6
REMARK    3  A    between atoms: C_8  and  N_9
REMARK    4  A    between atoms: C_11  and  N_12
REMARK    5  A    between atoms: C_29  and  O_30
REMARK    6  A    between atoms: O_30  and  C_31
REMARK                            x       y       z     vdW  Elec       q    Type
REMARK                         _______ _______ _______ _____ _____    ______ ____
ROOT
ATOM      1  C   UNL     1       1.007   9.834  19.033  0.00  0.00    +0.000 A 
ATOM      2  C   UNL     1       1.493  10.975  19.630  0.00  0.00    +0.000 A 
ATOM      3  C   UNL     1       0.624  12.023  19.811  0.00  0.00    +0.000 A 
ATOM      4  N   UNL     1      -0.644  11.959  19.380  0.00  0.00    +0.000 NA
ATOM      5  C   UNL     1      -1.065  10.820  18.802  0.00  0.00    +0.000 A 
ATOM      6  N   UNL     1      -2.379  10.757  18.407  0.00  0.00    +0.000 N 
ATOM      7  C   UNL     1      -2.924   9.572  17.765  0.00  0.00    +0.000 C 
ATOM      8  C   UNL     1      -4.334  10.018  17.381  0.00  0.00    +0.000 C 
ATOM      9  C   UNL     1      -4.090  11.437  16.915  0.00  0.00    +0.000 C 
ATOM     10  F   UNL     1      -5.217  12.176  16.970  0.00  0.00    +0.000 F 
ATOM     11  F   UNL     1      -3.670  11.431  15.626  0.00  0.00    +0.000 F 
ATOM     12  C   UNL     1      -2.990  11.968  17.845  0.00  0.00    +0.000 C 
ATOM     13  N   UNL     1      -0.279   9.743  18.636  0.00  0.00    +0.000 NA
ENDROOT
BRANCH   1  17
ATOM     14  C   UNL     1       3.387   6.371  18.357  0.00  0.00    +0.000 A 
ATOM     15  N   UNL     1       3.428   7.386  17.474  0.00  0.00    +0.000 NA
ATOM     16  C   UNL     1       2.691   8.498  17.743  0.00  0.00    +0.000 A 
ATOM     17  C   UNL     1       1.861   8.651  18.844  0.00  0.00    +0.000 A 
ATOM     18  C   UNL     1       1.856   7.578  19.746  0.00  0.00    +0.000 A 
ATOM     19  C   UNL     1       2.631   6.432  19.531  0.00  0.00    +0.000 A 
BRANCH  14  20
ATOM     20  N   UNL     1       4.153   5.262  17.994  0.00  0.00    +0.000 N 
ATOM     21  H   UNL     1       4.306   4.755  18.868  0.00  0.00    +0.000 HD
ATOM     22  H   UNL     1       3.605   4.671  17.369  0.00  0.00    +0.000 HD
ENDBRANCH  14  20
BRANCH  19  23
ATOM     23  O   UNL     1       2.490   5.498  20.514  0.00  0.00    +0.000 OA
BRANCH  23  24
ATOM     24  C   UNL     1       1.300   4.738  20.550  0.00  0.00    +0.000 C 
ATOM     25  F   UNL     1       1.111   4.091  19.369  0.00  0.00    +0.000 F 
ATOM     26  F   UNL     1       1.487   3.764  21.479  0.00  0.00    +0.000 F 
ENDBRANCH  23  24
ENDBRANCH  19  23
ENDBRANCH   1  17
BRANCH   3  27
ATOM     27  N   UNL     1       1.092  13.157  20.509  0.00  0.00    +0.000 N 
ATOM     28  C   UNL     1       0.631  14.501  20.402  0.00  0.00    +0.000 C 
ATOM     29  C   UNL     1       2.085  14.988  20.466  0.00  0.00    +0.000 C 
ATOM     30  C   UNL     1       2.464  13.519  20.695  0.00  0.00    +0.000 C 
BRANCH  29  31
ATOM     31  N   UNL     1       2.603  15.483  19.217  0.00  0.00    +0.000 N 
ATOM     32  C   UNL     1       3.449  14.830  18.351  0.00  0.00    +0.000 A 
ATOM     33  C   UNL     1       3.632  15.672  17.283  0.00  0.00    +0.000 A 
ATOM     34  C   UNL     1       2.895  16.824  17.606  0.00  0.00    +0.000 A 
ATOM     35  N   UNL     1       2.270  16.716  18.781  0.00  0.00    +0.000 NA
ENDBRANCH  29  31
ENDBRANCH   3  27
TORSDOF 6
ENDMDL
MODEL 4
REMARK VINA RESULT:      -7.4      3.333      8.030
REMARK  Name = 
REMARK  6 active torsions:
REMARK  status: ('A' for Active; 'I' for Inactive)
REMARK    1  A    between atoms: N_1  and  C_2
REMARK    2  A    between atoms: C_5  and  C_6
REMARK    3  A    between atoms: C_8  and  N_9
REMARK    4  A    between atoms: C_11  and  N_12
REMARK    5  A    between atoms: C_29  and  O_30
REMARK    6  A    between atoms: O_30  and  C_31
REMARK                            x       y       z     vdW  Elec       q    Type
REMARK                         _______ _______ _______ _____ _____    ______ ____
ROOT
ATOM      1  C   UNL     1       2.870   7.303  18.459  0.00  0.00    +0.000 A 
ATOM      2  C   UNL     1       4.212   7.302  18.152  0.00  0.00    +0.000 A 
ATOM      3  C   UNL     1       4.823   6.088  17.954  0.00  0.00    +0.000 A 
ATOM      4  N   UNL     1       4.149   4.938  18.101  0.00  0.00    +0.000 NA
ATOM      5  C   UNL     1       2.840   4.998  18.402  0.00  0.00    +0.000 A 
ATOM      6  N   UNL     1       2.158   3.811  18.505  0.00  0.00    +0.000 N 
ATOM      7  C   UNL     1       0.743   3.774  18.837  0.00  0.00    +0.000 C 
ATOM      8  C   UNL     1       0.473   2.277  18.983  0.00  0.00    +0.000 C 
ATOM      9  C   UNL     1       1.723   1.809  19.696  0.00  0.00    +0.000 C 
ATOM     10  F   UNL     1       1.927   0.487  19.520  0.00  0.00    +0.000 F 
ATOM     11  F   UNL     1       1.602   2.029  21.028  0.00  0.00    +0.000 F 
ATOM     12  C   UNL     1       2.851   2.664  19.103  0.00  0.00    +0.000 C 
ATOM     13  N   UNL     1       2.173   6.153  18.565  0.00  0.00    +0.000 NA
ENDROOT
BRANCH   1  17
ATOM     14  C   UNL     1       0.877  11.022  19.015  0.00  0.00    +0.000 A 
ATOM     15  N   UNL     1       1.678  10.853  17.947  0.00  0.00    +0.000 NA
ATOM     16  C   UNL     1       2.264   9.637  17.774  0.00  0.00    +0.000 A 
ATOM     17  C   UNL     1       2.132   8.563  18.642  0.00  0.00    +0.000 A 
ATOM     18  C   UNL     1       1.279   8.775  19.733  0.00  0.00    +0.000 A 
ATOM     19  C   UNL     1       0.622   9.996  19.929  0.00  0.00    +0.000 A 
BRANCH  14  20
ATOM     20  N   UNL     1       0.335  12.304  19.131  0.00  0.00    +0.000 N 
ATOM     21  H   UNL     1       0.429  12.537  20.121  0.00  0.00    +0.000 HD
ATOM     22  H   UNL     1       0.904  12.955  18.590  0.00  0.00    +0.000 HD
ENDBRANCH  14  20
BRANCH  19  23
ATOM     23  O   UNL     1      -0.158  10.011  21.046  0.00  0.00    +0.000 OA
BRANCH  23  24
ATOM     24  C   UNL     1       0.104   9.063  22.060  0.00  0.00    +0.000 C 
ATOM     25  F   UNL     1       0.065   9.652  23.284  0.00  0.00    +0.000 F 
ATOM     26  F   UNL     1      -0.928   8.178  22.042  0.00  0.00    +0.000 F 
ENDBRANCH  23  24
ENDBRANCH  19  23
ENDBRANCH   1  17
BRANCH   3  27
ATOM     27  N   UNL     1       6.173   6.086  17.545  0.00  0.00    +0.000 N 
ATOM     28  C   UNL     1       6.770   6.841  16.494  0.00  0.00    +0.000 C 
ATOM     29  C   UNL     1       7.594   5.609  16.100  0.00  0.00    +0.000 C 
ATOM     30  C   UNL     1       6.982   4.925  17.328  0.00  0.00    +0.000 C 
BRANCH  29  31
ATOM     31  N   UNL     1       7.173   4.978  14.874  0.00  0.00    +0.000 N 
ATOM     32  C   UNL     1       6.242   3.977  14.733  0.00  0.00    +0.000 A 
ATOM     33  C   UNL     1       6.142   3.730  13.388  0.00  0.00    +0.000 A 
ATOM     34  C   UNL     1       7.077   4.596  12.795  0.00  0.00    +0.000 A 
ATOM     35  N   UNL     1       7.708   5.355  13.694  0.00  0.00    +0.000 NA
ENDBRANCH  29  31
ENDBRANCH   3  27
TORSDOF 6
ENDMDL
MODEL 5
REMARK VINA RESULT:      -7.3      5.934     10.144
REMARK  Name = 
REMARK  6 active torsions:
REMARK  status: ('A' for Active; 'I' for Inactive)
REMARK    1  A    between atoms: N_1  and  C_2
REMARK    2  A    between atoms: C_5  and  C_6
REMARK    3  A    between atoms: C_8  and  N_9
REMARK    4  A    between atoms: C_11  and  N_12
REMARK    5  A    between atoms: C_29  and  O_30
REMARK    6  A    between atoms: O_30  and  C_31
REMARK                            x       y       z     vdW  Elec       q    Type
REMARK                         _______ _______ _______ _____ _____    ______ ____
ROOT
ATOM      1  C   UNL     1      -1.556  11.880  19.398  0.00  0.00    +0.000 A 
ATOM      2  C   UNL     1      -1.137  10.769  20.095  0.00  0.00    +0.000 A 
ATOM      3  C   UNL     1       0.094  10.821  20.702  0.00  0.00    +0.000 A 
ATOM      4  N   UNL     1       0.884  11.897  20.583  0.00  0.00    +0.000 NA
ATOM      5  C   UNL     1       0.424  12.954  19.889  0.00  0.00    +0.000 A 
ATOM      6  N   UNL     1       1.230  14.063  19.815  0.00  0.00    +0.000 N 
ATOM      7  C   UNL     1       0.824  15.250  19.080  0.00  0.00    +0.000 C 
ATOM      8  C   UNL     1       2.071  16.130  19.150  0.00  0.00    +0.000 C 
ATOM      9  C   UNL     1       3.176  15.113  18.960  0.00  0.00    +0.000 C 
ATOM     10  F   UNL     1       4.351  15.564  19.442  0.00  0.00    +0.000 F 
ATOM     11  F   UNL     1       3.346  14.863  17.639  0.00  0.00    +0.000 F 
ATOM     12  C   UNL     1       2.679  13.859  19.692  0.00  0.00    +0.000 C 
ATOM     13  N   UNL     1      -0.787  12.985  19.310  0.00  0.00    +0.000 NA
ENDROOT
BRANCH   1  17
ATOM     14  C   UNL     1      -5.440  11.895  17.658  0.00  0.00    +0.000 A 
ATOM     15  N   UNL     1      -5.261  12.423  18.883  0.00  0.00    +0.000 NA
ATOM     16  C   UNL     1      -3.999  12.444  19.392  0.00  0.00    +0.000 A 
ATOM     17  C   UNL     1      -2.880  11.922  18.758  0.00  0.00    +0.000 A 
ATOM     18  C   UNL     1      -3.106  11.395  17.480  0.00  0.00    +0.000 A 
ATOM     19  C   UNL     1      -4.381  11.390  16.900  0.00  0.00    +0.000 A 
BRANCH  14  20
ATOM     20  N   UNL     1      -6.766  11.891  17.222  0.00  0.00    +0.000 N 
ATOM     21  H   UNL     1      -7.296  12.291  17.999  0.00  0.00    +0.000 HD
ATOM     22  H   UNL     1      -6.853  12.513  16.418  0.00  0.00    +0.000 HD
ENDBRANCH  14  20
BRANCH  19  23
ATOM     23  O   UNL     1      -4.401  10.832  15.656  0.00  0.00    +0.000 OA
BRANCH  23  24
ATOM     24  C   UNL     1      -3.171  10.468  15.065  0.00  0.00    +0.000 C 
ATOM     25  F   UNL     1      -2.806   9.218  15.456  0.00  0.00    +0.000 F 
ATOM     26  F   UNL     1      -3.391  10.387  13.726  0.00  0.00    +0.000 F 
ENDBRANCH  23  24
ENDBRANCH  19  23
ENDBRANCH   1  17
BRANCH   3  27
ATOM     27  N   UNL     1       0.486   9.723  21.497  0.00  0.00    +0.000 N 
ATOM     28  C   UNL     1       1.809   9.282  21.787  0.00  0.00    +0.000 C 
ATOM     29  C   UNL     1       1.345   7.829  21.616  0.00  0.00    +0.000 C 
ATOM     30  C   UNL     1      -0.065   8.403  21.434  0.00  0.00    +0.000 C 
BRANCH  29  31
ATOM     31  N   UNL     1       1.819   7.190  20.415  0.00  0.00    +0.000 N 
ATOM     32  C   UNL     1       2.151   7.797  19.227  0.00  0.00    +0.000 A 
ATOM     33  C   UNL     1       2.588   6.799  18.393  0.00  0.00    +0.000 A 
ATOM     34  C   UNL     1       2.447   5.619  19.144  0.00  0.00    +0.000 A 
ATOM     35  N   UNL     1       1.978   5.850  20.372  0.00  0.00    +0.000 NA
ENDBRANCH  29  31
ENDBRANCH   3  27
TORSDOF 6
ENDMDL
MODEL 6
REMARK VINA RESULT:      -7.3      4.835      7.653
REMARK  Name = 
REMARK  6 active torsions:
REMARK  status: ('A' for Active; 'I' for Inactive)
REMARK    1  A    between atoms: N_1  and  C_2
REMARK    2  A    between atoms: C_5  and  C_6
REMARK    3  A    between atoms: C_8  and  N_9
REMARK    4  A    between atoms: C_11  and  N_12
REMARK    5  A    between atoms: C_29  and  O_30
REMARK    6  A    between atoms: O_30  and  C_31
REMARK                            x       y       z     vdW  Elec       q    Type
REMARK                         _______ _______ _______ _____ _____    ______ ____
ROOT
ATOM      1  C   UNL     1       1.125   9.730  19.014  0.00  0.00    +0.000 A 
ATOM      2  C   UNL     1       1.638  10.862  19.606  0.00  0.00    +0.000 A 
ATOM      3  C   UNL     1       0.796  11.934  19.773  0.00  0.00    +0.000 A 
ATOM      4  N   UNL     1      -0.470  11.901  19.333  0.00  0.00    +0.000 NA
ATOM      5  C   UNL     1      -0.918  10.769  18.761  0.00  0.00    +0.000 A 
ATOM      6  N   UNL     1      -2.230  10.739  18.356  0.00  0.00    +0.000 N 
ATOM      7  C   UNL     1      -2.802   9.565  17.719  0.00  0.00    +0.000 C 
ATOM      8  C   UNL     1      -4.197  10.045  17.322  0.00  0.00    +0.000 C 
ATOM      9  C   UNL     1      -3.912  11.454  16.847  0.00  0.00    +0.000 C 
ATOM     10  F   UNL     1      -5.018  12.224  16.889  0.00  0.00    +0.000 F 
ATOM     11  F   UNL     1      -3.482  11.427  15.562  0.00  0.00    +0.000 F 
ATOM     12  C   UNL     1      -2.804  11.962  17.781  0.00  0.00    +0.000 C 
ATOM     13  N   UNL     1      -0.160   9.671  18.608  0.00  0.00    +0.000 NA
ENDROOT
BRANCH   1  17
ATOM     14  C   UNL     1       3.417   6.200  18.379  0.00  0.00    +0.000 A 
ATOM     15  N   UNL     1       3.502   7.213  17.497  0.00  0.00    +0.000 NA
ATOM     16  C   UNL     1       2.793   8.345  17.753  0.00  0.00    +0.000 A 
ATOM     17  C   UNL     1       1.948   8.523  18.840  0.00  0.00    +0.000 A 
ATOM     18  C   UNL     1       1.898   7.451  19.742  0.00  0.00    +0.000 A 
ATOM     19  C   UNL     1       2.643   6.283  19.540  0.00  0.00    +0.000 A 
BRANCH  14  20
ATOM     20  N   UNL     1       4.157   5.069  18.030  0.00  0.00    +0.000 N 
ATOM     21  H   UNL     1       4.909   5.028  18.719  0.00  0.00    +0.000 HD
ATOM     22  H   UNL     1       3.571   4.242  18.140  0.00  0.00    +0.000 HD
ENDBRANCH  14  20
BRANCH  19  23
ATOM     23  O   UNL     1       2.458   5.354  20.520  0.00  0.00    +0.000 OA
BRANCH  23  24
ATOM     24  C   UNL     1       1.253   4.618  20.527  0.00  0.00    +0.000 C 
ATOM     25  F   UNL     1       1.043   4.036  19.317  0.00  0.00    +0.000 F 
ATOM     26  F   UNL     1       1.427   3.594  21.405  0.00  0.00    +0.000 F 
ENDBRANCH  23  24
ENDBRANCH  19  23
ENDBRANCH   1  17
BRANCH   3  27
ATOM     27  N   UNL     1       1.290  13.061  20.465  0.00  0.00    +0.000 N 
ATOM     28  C   UNL     1       0.543  14.063  21.150  0.00  0.00    +0.000 C 
ATOM     29  C   UNL     1       1.488  15.130  20.583  0.00  0.00    +0.000 C 
ATOM     30  C   UNL     1       2.289  13.967  19.987  0.00  0.00    +0.000 C 
BRANCH  29  31
ATOM     31  N   UNL     1       0.906  15.957  19.557  0.00  0.00    +0.000 N 
ATOM     32  C   UNL     1      -0.407  15.973  19.149  0.00  0.00    +0.000 A 
ATOM     33  C   UNL     1      -0.499  16.945  18.185  0.00  0.00    +0.000 A 
ATOM     34  C   UNL     1       0.811  17.434  18.045  0.00  0.00    +0.000 A 
ATOM     35  N   UNL     1       1.670  16.836  18.874  0.00  0.00    +0.000 NA
ENDBRANCH  29  31
ENDBRANCH   3  27
TORSDOF 6
ENDMDL
MODEL 7
REMARK VINA RESULT:      -7.3      4.699      7.314
REMARK  Name = 
REMARK  6 active torsions:
REMARK  status: ('A' for Active; 'I' for Inactive)
REMARK    1  A    between atoms: N_1  and  C_2
REMARK    2  A    between atoms: C_5  and  C_6
REMARK    3  A    between atoms: C_8  and  N_9
REMARK    4  A    between atoms: C_11  and  N_12
REMARK    5  A    between atoms: C_29  and  O_30
REMARK    6  A    between atoms: O_30  and  C_31
REMARK                            x       y       z     vdW  Elec       q    Type
REMARK                         _______ _______ _______ _____ _____    ______ ____
ROOT
ATOM      1  C   UNL     1       1.700   9.456  18.238  0.00  0.00    +0.000 A 
ATOM      2  C   UNL     1       2.408  10.603  18.517  0.00  0.00    +0.000 A 
ATOM      3  C   UNL     1       1.700  11.768  18.680  0.00  0.00    +0.000 A 
ATOM      4  N   UNL     1       0.369  11.802  18.527  0.00  0.00    +0.000 NA
ATOM      5  C   UNL     1      -0.272  10.652  18.254  0.00  0.00    +0.000 A 
ATOM      6  N   UNL     1      -1.640  10.698  18.144  0.00  0.00    +0.000 N 
ATOM      7  C   UNL     1      -2.419   9.509  17.841  0.00  0.00    +0.000 C 
ATOM      8  C   UNL     1      -3.831  10.068  17.672  0.00  0.00    +0.000 C 
ATOM      9  C   UNL     1      -3.563  11.357  16.926  0.00  0.00    +0.000 C 
ATOM     10  F   UNL     1      -4.577  12.234  17.073  0.00  0.00    +0.000 F 
ATOM     11  F   UNL     1      -3.435  11.101  15.600  0.00  0.00    +0.000 F 
ATOM     12  C   UNL     1      -2.243  11.878  17.511  0.00  0.00    +0.000 C 
ATOM     13  N   UNL     1       0.355   9.471  18.126  0.00  0.00    +0.000 NA
ENDROOT
BRANCH   1  17
ATOM     14  C   UNL     1       3.630   5.707  17.663  0.00  0.00    +0.000 A 
ATOM     15  N   UNL     1       4.174   6.819  17.137  0.00  0.00    +0.000 NA
ATOM     16  C   UNL     1       3.557   8.008  17.379  0.00  0.00    +0.000 A 
ATOM     17  C   UNL     1       2.378   8.158  18.094  0.00  0.00    +0.000 A 
ATOM     18  C   UNL     1       1.851   6.978  18.636  0.00  0.00    +0.000 A 
ATOM     19  C   UNL     1       2.475   5.739  18.449  0.00  0.00    +0.000 A 
BRANCH  14  20
ATOM     20  N   UNL     1       4.311   4.529  17.348  0.00  0.00    +0.000 N 
ATOM     21  H   UNL     1       3.625   3.786  17.491  0.00  0.00    +0.000 HD
ATOM     22  H   UNL     1       4.567   4.548  16.361  0.00  0.00    +0.000 HD
ENDBRANCH  14  20
BRANCH  19  23
ATOM     23  O   UNL     1       1.810   4.709  19.047  0.00  0.00    +0.000 OA
BRANCH  23  24
ATOM     24  C   UNL     1       1.457   4.840  20.408  0.00  0.00    +0.000 C 
ATOM     25  F   UNL     1       0.746   3.759  20.822  0.00  0.00    +0.000 F 
ATOM     26  F   UNL     1       2.617   4.814  21.116  0.00  0.00    +0.000 F 
ENDBRANCH  23  24
ENDBRANCH  19  23
ENDBRANCH   1  17
BRANCH   3  27
ATOM     27  N   UNL     1       2.412  12.926  19.061  0.00  0.00    +0.000 N 
ATOM     28  C   UNL     1       2.149  13.792  20.162  0.00  0.00    +0.000 C 
ATOM     29  C   UNL     1       2.460  14.998  19.266  0.00  0.00    +0.000 C 
ATOM     30  C   UNL     1       2.834  13.976  18.185  0.00  0.00    +0.000 C 
BRANCH  29  31
ATOM     31  N   UNL     1       1.306  15.774  18.889  0.00  0.00    +0.000 N 
ATOM     32  C   UNL     1      -0.013  15.473  19.133  0.00  0.00    +0.000 A 
ATOM     33  C   UNL     1      -0.746  16.518  18.631  0.00  0.00    +0.000 A 
ATOM     34  C   UNL     1       0.207  17.383  18.065  0.00  0.00    +0.000 A 
ATOM     35  N   UNL     1       1.455  16.935  18.216  0.00  0.00    +0.000 NA
ENDBRANCH  29  31
ENDBRANCH   3  27
TORSDOF 6
ENDMDL
MODEL 8
REMARK VINA RESULT:      -7.2      6.679     12.196
REMARK  Name = 
REMARK  6 active torsions:
REMARK  status: ('A' for Active; 'I' for Inactive)
REMARK    1  A    between atoms: N_1  and  C_2
REMARK    2  A    between atoms: C_5  and  C_6
REMARK    3  A    between atoms: C_8  and  N_9
REMARK    4  A    between atoms: C_11  and  N_12
REMARK    5  A    between atoms: C_29  and  O_30
REMARK    6  A    between atoms: O_30  and  C_31
REMARK                            x       y       z     vdW  Elec       q    Type
REMARK                         _______ _______ _______ _____ _____    ______ ____
ROOT
ATOM      1  C   UNL     1      -1.745  12.930  22.298  0.00  0.00    +0.000 A 
ATOM      2  C   UNL     1      -1.428  11.592  22.356  0.00  0.00    +0.000 A 
ATOM      3  C   UNL     1      -0.157  11.219  21.994  0.00  0.00    +0.000 A 
ATOM      4  N   UNL     1       0.734  12.118  21.553  0.00  0.00    +0.000 NA
ATOM      5  C   UNL     1       0.371  13.412  21.516  0.00  0.00    +0.000 A 
ATOM      6  N   UNL     1       1.311  14.324  21.103  0.00  0.00    +0.000 N 
ATOM      7  C   UNL     1       1.009  15.743  21.020  0.00  0.00    +0.000 C 
ATOM      8  C   UNL     1       2.274  16.319  20.386  0.00  0.00    +0.000 C 
ATOM      9  C   UNL     1       2.607  15.262  19.355  0.00  0.00    +0.000 C 
ATOM     10  F   UNL     1       3.907  15.309  19.000  0.00  0.00    +0.000 F 
ATOM     11  F   UNL     1       1.872  15.466  18.234  0.00  0.00    +0.000 F 
ATOM     12  C   UNL     1       2.225  13.934  20.022  0.00  0.00    +0.000 C 
ATOM     13  N   UNL     1      -0.841  13.849  21.898  0.00  0.00    +0.000 NA
ENDROOT
BRANCH   1  17
ATOM     14  C   UNL     1      -5.527  14.335  23.650  0.00  0.00    +0.000 A 
ATOM     15  N   UNL     1      -4.444  15.124  23.775  0.00  0.00    +0.000 NA
ATOM     16  C   UNL     1      -3.259  14.664  23.291  0.00  0.00    +0.000 A 
ATOM     17  C   UNL     1      -3.070  13.418  22.712  0.00  0.00    +0.000 A 
ATOM     18  C   UNL     1      -4.224  12.633  22.587  0.00  0.00    +0.000 A 
ATOM     19  C   UNL     1      -5.472  13.083  23.034  0.00  0.00    +0.000 A 
BRANCH  14  20
ATOM     20  N   UNL     1      -6.696  14.873  24.193  0.00  0.00    +0.000 N 
ATOM     21  H   UNL     1      -7.148  14.087  24.664  0.00  0.00    +0.000 HD
ATOM     22  H   UNL     1      -6.446  15.570  24.894  0.00  0.00    +0.000 HD
ENDBRANCH  14  20
BRANCH  19  23
ATOM     23  O   UNL     1      -6.472  12.178  22.831  0.00  0.00    +0.000 OA
BRANCH  23  24
ATOM     24  C   UNL     1      -7.204  12.247  21.626  0.00  0.00    +0.000 C 
ATOM     25  F   UNL     1      -6.912  13.393  20.956  0.00  0.00    +0.000 F 
ATOM     26  F   UNL     1      -6.756  11.233  20.839  0.00  0.00    +0.000 F 
ENDBRANCH  23  24
ENDBRANCH  19  23
ENDBRANCH   1  17
BRANCH   3  27
ATOM     27  N   UNL     1       0.202   9.862  22.144  0.00  0.00    +0.000 N 
ATOM     28  C   UNL     1       1.512   9.307  22.225  0.00  0.00    +0.000 C 
ATOM     29  C   UNL     1       1.058   8.147  21.329  0.00  0.00    +0.000 C 
ATOM     30  C   UNL     1      -0.344   8.764  21.404  0.00  0.00    +0.000 C 
BRANCH  29  31
ATOM     31  N   UNL     1       1.586   8.188  19.989  0.00  0.00    +0.000 N 
ATOM     32  C   UNL     1       1.415   9.186  19.059  0.00  0.00    +0.000 A 
ATOM     33  C   UNL     1       2.132   8.809  17.952  0.00  0.00    +0.000 A 
ATOM     34  C   UNL     1       2.670   7.554  18.286  0.00  0.00    +0.000 A 
ATOM     35  N   UNL     1       2.340   7.171  19.521  0.00  0.00    +0.000 NA
ENDBRANCH  29  31
ENDBRANCH   3  27
TORSDOF 6
ENDMDL
MODEL 9
REMARK VINA RESULT:      -7.2      3.645      7.599
REMARK  Name = 
REMARK  6 active torsions:
REMARK  status: ('A' for Active; 'I' for Inactive)
REMARK    1  A    between atoms: N_1  and  C_2
REMARK    2  A    between atoms: C_5  and  C_6
REMARK    3  A    between atoms: C_8  and  N_9
REMARK    4  A    between atoms: C_11  and  N_12
REMARK    5  A    between atoms: C_29  and  O_30
REMARK    6  A    between atoms: O_30  and  C_31
REMARK                            x       y       z     vdW  Elec       q    Type
REMARK                         _______ _______ _______ _____ _____    ______ ____
ROOT
ATOM      1  C   UNL     1       2.827   7.597  18.464  0.00  0.00    +0.000 A 
ATOM      2  C   UNL     1       4.154   7.530  18.103  0.00  0.00    +0.000 A 
ATOM      3  C   UNL     1       4.790   6.319  18.227  0.00  0.00    +0.000 A 
ATOM      4  N   UNL     1       4.158   5.248  18.726  0.00  0.00    +0.000 NA
ATOM      5  C   UNL     1       2.862   5.371  19.064  0.00  0.00    +0.000 A 
ATOM      6  N   UNL     1       2.219   4.251  19.532  0.00  0.00    +0.000 N 
ATOM      7  C   UNL     1       0.822   4.288  19.931  0.00  0.00    +0.000 C 
ATOM      8  C   UNL     1       0.602   2.891  20.509  0.00  0.00    +0.000 C 
ATOM      9  C   UNL     1       1.895   2.663  21.261  0.00  0.00    +0.000 C 
ATOM     10  F   UNL     1       2.129   1.350  21.457  0.00  0.00    +0.000 F 
ATOM     11  F   UNL     1       1.826   3.251  22.481  0.00  0.00    +0.000 F 
ATOM     12  C   UNL     1       2.971   3.332  20.395  0.00  0.00    +0.000 C 
ATOM     13  N   UNL     1       2.169   6.514  18.926  0.00  0.00    +0.000 NA
ENDROOT
BRANCH   1  17
ATOM     14  C   UNL     1       0.689  11.266  18.176  0.00  0.00    +0.000 A 
ATOM     15  N   UNL     1       2.015  11.252  17.948  0.00  0.00    +0.000 NA
ATOM     16  C   UNL     1       2.661  10.056  18.002  0.00  0.00    +0.000 A 
ATOM     17  C   UNL     1       2.062   8.845  18.319  0.00  0.00    +0.000 A 
ATOM     18  C   UNL     1       0.678   8.900  18.537  0.00  0.00    +0.000 A 
ATOM     19  C   UNL     1      -0.034  10.102  18.450  0.00  0.00    +0.000 A 
BRANCH  14  20
ATOM     20  N   UNL     1       0.109  12.535  18.124  0.00  0.00    +0.000 N 
ATOM     21  H   UNL     1       0.816  13.159  18.516  0.00  0.00    +0.000 HD
ATOM     22  H   UNL     1      -0.044  12.790  17.149  0.00  0.00    +0.000 HD
ENDBRANCH  14  20
BRANCH  19  23
ATOM     23  O   UNL     1      -1.367   9.954  18.699  0.00  0.00    +0.000 OA
BRANCH  23  24
ATOM     24  C   UNL     1      -2.265  10.043  17.613  0.00  0.00    +0.000 C 
ATOM     25  F   UNL     1      -1.710   9.514  16.491  0.00  0.00    +0.000 F 
ATOM     26  F   UNL     1      -3.322   9.244  17.915  0.00  0.00    +0.000 F 
ENDBRANCH  23  24
ENDBRANCH  19  23
ENDBRANCH   1  17
BRANCH   3  27
ATOM     27  N   UNL     1       6.121   6.222  17.768  0.00  0.00    +0.000 N 
ATOM     28  C   UNL     1       6.720   6.906  16.670  0.00  0.00    +0.000 C 
ATOM     29  C   UNL     1       7.453   5.614  16.287  0.00  0.00    +0.000 C 
ATOM     30  C   UNL     1       6.850   5.008  17.560  0.00  0.00    +0.000 C 
BRANCH  29  31
ATOM     31  N   UNL     1       6.948   4.971  15.100  0.00  0.00    +0.000 N 
ATOM     32  C   UNL     1       5.873   4.119  15.012  0.00  0.00    +0.000 A 
ATOM     33  C   UNL     1       5.745   3.797  13.685  0.00  0.00    +0.000 A 
ATOM     34  C   UNL     1       6.807   4.465  13.051  0.00  0.00    +0.000 A 
ATOM     35  N   UNL     1       7.542   5.178  13.907  0.00  0.00    +0.000 NA
ENDBRANCH  29  31
ENDBRANCH   3  27
TORSDOF 6
ENDMDL
