MODEL 1
REMARK VINA RESULT:      -7.3      0.000      0.000
REMARK  Name = 
REMARK  4 active torsions:
REMARK  status: ('A' for Active; 'I' for Inactive)
REMARK    1  A    between atoms: O_1  and  N_2
REMARK    2  A    between atoms: C_3  and  C_4
REMARK    3  A    between atoms: C_5  and  C_6
REMARK    4  A    between atoms: C_7  and  C_8
REMARK                            x       y       z     vdW  Elec       q    Type
REMARK                         _______ _______ _______ _____ _____    ______ ____
ROOT
ATOM      1  C   UNL     1       6.403   5.277  17.862  0.00  0.00    +0.000 C 
ATOM      2  C   UNL     1       5.244   5.804  17.400  0.00  0.00    +0.000 C 
ATOM      3  C   UNL     1       4.880   5.670  15.926  0.00  0.00    +0.000 C 
ATOM      4  C   UNL     1       5.679   4.610  15.170  0.00  0.00    +0.000 C 
ATOM      5  C   UNL     1       7.158   4.754  15.473  0.00  0.00    +0.000 C 
ATOM      6  C   UNL     1       7.415   4.587  16.968  0.00  0.00    +0.000 C 
ENDROOT
BRANCH   1   8
ATOM      7  N   UNL     1       8.070   5.161  19.657  0.00  0.00    +0.000 NA
ATOM      8  C   UNL     1       6.846   5.375  19.290  0.00  0.00    +0.000 C 
BRANCH   7   9
ATOM      9  O   UNL     1       8.182   5.343  21.040  0.00  0.00    +0.000 OA
ATOM     10  H   UNL     1       8.352   6.302  21.106  0.00  0.00    +0.000 HD
ENDBRANCH   7   9
ENDBRANCH   1   8
BRANCH   2  11
ATOM     11  C   UNL     1       4.263   6.509  18.233  0.00  0.00    +0.000 C 
ATOM     12  C   UNL     1       3.239   7.235  17.746  0.00  0.00    +0.000 C 
BRANCH  12  13
ATOM     13  C   UNL     1       2.291   8.043  18.533  0.00  0.00    +0.000 A 
ATOM     14  C   UNL     1       1.619   9.087  17.877  0.00  0.00    +0.000 A 
ATOM     15  C   UNL     1       0.713   9.902  18.558  0.00  0.00    +0.000 A 
ATOM     16  C   UNL     1       0.453   9.675  19.908  0.00  0.00    +0.000 A 
ATOM     17  C   UNL     1       1.091   8.626  20.565  0.00  0.00    +0.000 A 
ATOM     18  C   UNL     1       2.001   7.809  19.883  0.00  0.00    +0.000 A 
ENDBRANCH  12  13
ENDBRANCH   2  11
TORSDOF 4
ENDMDL
MODEL 2
REMARK VINA RESULT:      -7.3      0.182      1.179
REMARK  Name = 
REMARK  4 active torsions:
REMARK  status: ('A' for Active; 'I' for Inactive)
REMARK    1  A    between atoms: O_1  and  N_2
REMARK    2  A    between atoms: C_3  and  C_4
REMARK    3  A    between atoms: C_5  and  C_6
REMARK    4  A    between atoms: C_7  and  C_8
REMARK                            x       y       z     vdW  Elec       q    Type
REMARK                         _______ _______ _______ _____ _____    ______ ____
ROOT
ATOM      1  C   UNL     1       6.413   5.277  17.856  0.00  0.00    +0.000 C 
ATOM      2  C   UNL     1       5.271   5.851  17.407  0.00  0.00    +0.000 C 
ATOM      3  C   UNL     1       4.911   5.775  15.927  0.00  0.00    +0.000 C 
ATOM      4  C   UNL     1       5.683   4.717  15.141  0.00  0.00    +0.000 C 
ATOM      5  C   UNL     1       7.164   4.807  15.455  0.00  0.00    +0.000 C 
ATOM      6  C   UNL     1       7.408   4.586  16.945  0.00  0.00    +0.000 C 
ENDROOT
BRANCH   1   8
ATOM      7  N   UNL     1       8.099   5.312  19.637  0.00  0.00    +0.000 NA
ATOM      8  C   UNL     1       6.851   5.317  19.288  0.00  0.00    +0.000 C 
BRANCH   7   9
ATOM      9  O   UNL     1       8.196   5.374  21.031  0.00  0.00    +0.000 OA
ATOM     10  H   UNL     1       7.295   5.651  21.286  0.00  0.00    +0.000 HD
ENDBRANCH   7   9
ENDBRANCH   1   8
BRANCH   2  11
ATOM     11  C   UNL     1       4.307   6.559  18.258  0.00  0.00    +0.000 C 
ATOM     12  C   UNL     1       3.209   7.187  17.796  0.00  0.00    +0.000 C 
BRANCH  12  13
ATOM     13  C   UNL     1       2.268   7.995  18.591  0.00  0.00    +0.000 A 
ATOM     14  C   UNL     1       2.085   7.649  19.939  0.00  0.00    +0.000 A 
ATOM     15  C   UNL     1       1.203   8.362  20.754  0.00  0.00    +0.000 A 
ATOM     16  C   UNL     1       0.499   9.446  20.233  0.00  0.00    +0.000 A 
ATOM     17  C   UNL     1       0.691   9.818  18.905  0.00  0.00    +0.000 A 
ATOM     18  C   UNL     1       1.574   9.102  18.087  0.00  0.00    +0.000 A 
ENDBRANCH  12  13
ENDBRANCH   2  11
TORSDOF 4
ENDMDL
MODEL 3
REMARK VINA RESULT:      -7.1      3.272      3.926
REMARK  Name = 
REMARK  4 active torsions:
REMARK  status: ('A' for Active; 'I' for Inactive)
REMARK    1  A    between atoms: O_1  and  N_2
REMARK    2  A    between atoms: C_3  and  C_4
REMARK    3  A    between atoms: C_5  and  C_6
REMARK    4  A    between atoms: C_7  and  C_8
REMARK                            x       y       z     vdW  Elec       q    Type
REMARK                         _______ _______ _______ _____ _____    ______ ____
ROOT
ATOM      1  C   UNL     1       6.601   5.068  16.550  0.00  0.00    +0.000 C 
ATOM      2  C   UNL     1       5.321   4.664  16.363  0.00  0.00    +0.000 C 
ATOM      3  C   UNL     1       4.857   4.217  14.981  0.00  0.00    +0.000 C 
ATOM      4  C   UNL     1       5.989   3.896  14.006  0.00  0.00    +0.000 C 
ATOM      5  C   UNL     1       7.028   5.001  14.027  0.00  0.00    +0.000 C 
ATOM      6  C   UNL     1       7.616   5.154  15.427  0.00  0.00    +0.000 C 
ENDROOT
BRANCH   1   8
ATOM      7  N   UNL     1       7.821   4.769  18.656  0.00  0.00    +0.000 NA
ATOM      8  C   UNL     1       7.135   5.537  17.868  0.00  0.00    +0.000 C 
BRANCH   7   9
ATOM      9  O   UNL     1       8.197   5.486  19.797  0.00  0.00    +0.000 OA
ATOM     10  H   UNL     1       9.155   5.607  19.656  0.00  0.00    +0.000 HD
ENDBRANCH   7   9
ENDBRANCH   1   8
BRANCH   2  11
ATOM     11  C   UNL     1       4.306   4.606  17.421  0.00  0.00    +0.000 C 
ATOM     12  C   UNL     1       4.157   3.572  18.271  0.00  0.00    +0.000 C 
BRANCH  12  13
ATOM     13  C   UNL     1       3.095   3.418  19.280  0.00  0.00    +0.000 A 
ATOM     14  C   UNL     1       3.423   2.775  20.483  0.00  0.00    +0.000 A 
ATOM     15  C   UNL     1       2.467   2.584  21.483  0.00  0.00    +0.000 A 
ATOM     16  C   UNL     1       1.167   3.050  21.299  0.00  0.00    +0.000 A 
ATOM     17  C   UNL     1       0.833   3.715  20.122  0.00  0.00    +0.000 A 
ATOM     18  C   UNL     1       1.791   3.905  19.118  0.00  0.00    +0.000 A 
ENDBRANCH  12  13
ENDBRANCH   2  11
TORSDOF 4
ENDMDL
MODEL 4
REMARK VINA RESULT:      -7.1      3.073      6.400
REMARK  Name = 
REMARK  4 active torsions:
REMARK  status: ('A' for Active; 'I' for Inactive)
REMARK    1  A    between atoms: O_1  and  N_2
REMARK    2  A    between atoms: C_3  and  C_4
REMARK    3  A    between atoms: C_5  and  C_6
REMARK    4  A    between atoms: C_7  and  C_8
REMARK                            x       y       z     vdW  Elec       q    Type
REMARK                         _______ _______ _______ _____ _____    ______ ____
ROOT
ATOM      1  C   UNL     1       4.168   4.791  18.804  0.00  0.00    +0.000 C 
ATOM      2  C   UNL     1       3.856   4.095  17.684  0.00  0.00    +0.000 C 
ATOM      3  C   UNL     1       2.465   3.493  17.524  0.00  0.00    +0.000 C 
ATOM      4  C   UNL     1       1.415   4.060  18.478  0.00  0.00    +0.000 C 
ATOM      5  C   UNL     1       1.959   4.097  19.894  0.00  0.00    +0.000 C 
ATOM      6  C   UNL     1       3.208   4.970  19.963  0.00  0.00    +0.000 C 
ENDROOT
BRANCH   1   8
ATOM      7  N   UNL     1       6.462   4.774  19.670  0.00  0.00    +0.000 NA
ATOM      8  C   UNL     1       5.514   5.402  19.049  0.00  0.00    +0.000 C 
BRANCH   7   9
ATOM      9  O   UNL     1       7.599   5.587  19.731  0.00  0.00    +0.000 OA
ATOM     10  H   UNL     1       7.216   6.457  19.952  0.00  0.00    +0.000 HD
ENDBRANCH   7   9
ENDBRANCH   1   8
BRANCH   2  11
ATOM     11  C   UNL     1       4.775   3.872  16.562  0.00  0.00    +0.000 C 
ATOM     12  C   UNL     1       4.979   4.754  15.565  0.00  0.00    +0.000 C 
BRANCH  12  13
ATOM     13  C   UNL     1       5.809   4.538  14.367  0.00  0.00    +0.000 A 
ATOM     14  C   UNL     1       5.329   3.656  13.387  0.00  0.00    +0.000 A 
ATOM     15  C   UNL     1       6.063   3.393  12.229  0.00  0.00    +0.000 A 
ATOM     16  C   UNL     1       7.288   4.025  12.026  0.00  0.00    +0.000 A 
ATOM     17  C   UNL     1       7.766   4.925  12.976  0.00  0.00    +0.000 A 
ATOM     18  C   UNL     1       7.030   5.187  14.139  0.00  0.00    +0.000 A 
ENDBRANCH  12  13
ENDBRANCH   2  11
TORSDOF 4
ENDMDL
MODEL 5
REMARK VINA RESULT:      -7.0      2.749      3.482
REMARK  Name = 
REMARK  4 active torsions:
REMARK  status: ('A' for Active; 'I' for Inactive)
REMARK    1  A    between atoms: O_1  and  N_2
REMARK    2  A    between atoms: C_3  and  C_4
REMARK    3  A    between atoms: C_5  and  C_6
REMARK    4  A    between atoms: C_7  and  C_8
REMARK                            x       y       z     vdW  Elec       q    Type
REMARK                         _______ _______ _______ _____ _____    ______ ____
ROOT
ATOM      1  C   UNL     1       6.698   4.800  16.023  0.00  0.00    +0.000 C 
ATOM      2  C   UNL     1       5.532   4.160  15.764  0.00  0.00    +0.000 C 
ATOM      3  C   UNL     1       5.177   3.772  14.334  0.00  0.00    +0.000 C 
ATOM      4  C   UNL     1       6.354   3.795  13.361  0.00  0.00    +0.000 C 
ATOM      5  C   UNL     1       7.139   5.084  13.518  0.00  0.00    +0.000 C 
ATOM      6  C   UNL     1       7.676   5.210  14.941  0.00  0.00    +0.000 C 
ENDROOT
BRANCH   1   8
ATOM      7  N   UNL     1       7.814   4.473  18.182  0.00  0.00    +0.000 NA
ATOM      8  C   UNL     1       7.118   5.232  17.395  0.00  0.00    +0.000 C 
BRANCH   7   9
ATOM      9  O   UNL     1       8.067   5.150  19.380  0.00  0.00    +0.000 OA
ATOM     10  H   UNL     1       7.896   6.078  19.130  0.00  0.00    +0.000 HD
ENDBRANCH   7   9
ENDBRANCH   1   8
BRANCH   2  11
ATOM     11  C   UNL     1       4.548   3.784  16.786  0.00  0.00    +0.000 C 
ATOM     12  C   UNL     1       3.587   4.605  17.250  0.00  0.00    +0.000 C 
BRANCH  12  13
ATOM     13  C   UNL     1       2.643   4.313  18.343  0.00  0.00    +0.000 A 
ATOM     14  C   UNL     1       2.582   5.217  19.414  0.00  0.00    +0.000 A 
ATOM     15  C   UNL     1       1.719   5.003  20.491  0.00  0.00    +0.000 A 
ATOM     16  C   UNL     1       0.889   3.884  20.504  0.00  0.00    +0.000 A 
ATOM     17  C   UNL     1       0.918   2.992  19.434  0.00  0.00    +0.000 A 
ATOM     18  C   UNL     1       1.785   3.205  18.355  0.00  0.00    +0.000 A 
ENDBRANCH  12  13
ENDBRANCH   2  11
TORSDOF 4
ENDMDL
MODEL 6
REMARK VINA RESULT:      -7.0      3.106      6.405
REMARK  Name = 
REMARK  4 active torsions:
REMARK  status: ('A' for Active; 'I' for Inactive)
REMARK    1  A    between atoms: O_1  and  N_2
REMARK    2  A    between atoms: C_3  and  C_4
REMARK    3  A    between atoms: C_5  and  C_6
REMARK    4  A    between atoms: C_7  and  C_8
REMARK                            x       y       z     vdW  Elec       q    Type
REMARK                         _______ _______ _______ _____ _____    ______ ____
ROOT
ATOM      1  C   UNL     1       4.211   4.740  18.781  0.00  0.00    +0.000 C 
ATOM      2  C   UNL     1       3.851   4.045  17.674  0.00  0.00    +0.000 C 
ATOM      3  C   UNL     1       2.446   3.466  17.562  0.00  0.00    +0.000 C 
ATOM      4  C   UNL     1       1.438   4.054  18.548  0.00  0.00    +0.000 C 
ATOM      5  C   UNL     1       2.027   4.085  19.945  0.00  0.00    +0.000 C 
ATOM      6  C   UNL     1       3.293   4.938  19.970  0.00  0.00    +0.000 C 
ENDROOT
BRANCH   1   8
ATOM      7  N   UNL     1       6.452   4.804  19.776  0.00  0.00    +0.000 NA
ATOM      8  C   UNL     1       5.574   5.330  18.981  0.00  0.00    +0.000 C 
BRANCH   7   9
ATOM      9  O   UNL     1       7.627   5.561  19.741  0.00  0.00    +0.000 OA
ATOM     10  H   UNL     1       8.252   4.991  20.229  0.00  0.00    +0.000 HD
ENDBRANCH   7   9
ENDBRANCH   1   8
BRANCH   2  11
ATOM     11  C   UNL     1       4.730   3.804  16.524  0.00  0.00    +0.000 C 
ATOM     12  C   UNL     1       4.985   4.713  15.564  0.00  0.00    +0.000 C 
BRANCH  12  13
ATOM     13  C   UNL     1       5.774   4.490  14.340  0.00  0.00    +0.000 A 
ATOM     14  C   UNL     1       6.983   5.191  14.202  0.00  0.00    +0.000 A 
ATOM     15  C   UNL     1       7.780   5.039  13.066  0.00  0.00    +0.000 A 
ATOM     16  C   UNL     1       7.386   4.168  12.053  0.00  0.00    +0.000 A 
ATOM     17  C   UNL     1       6.204   3.444  12.187  0.00  0.00    +0.000 A 
ATOM     18  C   UNL     1       5.402   3.598  13.325  0.00  0.00    +0.000 A 
ENDBRANCH  12  13
ENDBRANCH   2  11
TORSDOF 4
ENDMDL
MODEL 7
REMARK VINA RESULT:      -7.0      2.831      3.567
REMARK  Name = 
REMARK  4 active torsions:
REMARK  status: ('A' for Active; 'I' for Inactive)
REMARK    1  A    between atoms: O_1  and  N_2
REMARK    2  A    between atoms: C_3  and  C_4
REMARK    3  A    between atoms: C_5  and  C_6
REMARK    4  A    between atoms: C_7  and  C_8
REMARK                            x       y       z     vdW  Elec       q    Type
REMARK                         _______ _______ _______ _____ _____    ______ ____
ROOT
ATOM      1  C   UNL     1       6.670   4.729  16.159  0.00  0.00    +0.000 C 
ATOM      2  C   UNL     1       5.492   4.106  15.911  0.00  0.00    +0.000 C 
ATOM      3  C   UNL     1       5.112   3.737  14.482  0.00  0.00    +0.000 C 
ATOM      4  C   UNL     1       6.275   3.756  13.492  0.00  0.00    +0.000 C 
ATOM      5  C   UNL     1       7.078   5.033  13.651  0.00  0.00    +0.000 C 
ATOM      6  C   UNL     1       7.637   5.139  15.067  0.00  0.00    +0.000 C 
ENDROOT
BRANCH   1   8
ATOM      7  N   UNL     1       7.956   4.445  18.228  0.00  0.00    +0.000 NA
ATOM      8  C   UNL     1       7.115   5.141  17.529  0.00  0.00    +0.000 C 
BRANCH   7   9
ATOM      9  O   UNL     1       8.192   5.086  19.449  0.00  0.00    +0.000 OA
ATOM     10  H   UNL     1       7.290   5.165  19.815  0.00  0.00    +0.000 HD
ENDBRANCH   7   9
ENDBRANCH   1   8
BRANCH   2  11
ATOM     11  C   UNL     1       4.518   3.731  16.943  0.00  0.00    +0.000 C 
ATOM     12  C   UNL     1       3.483   4.504  17.323  0.00  0.00    +0.000 C 
BRANCH  12  13
ATOM     13  C   UNL     1       2.541   4.222  18.419  0.00  0.00    +0.000 A 
ATOM     14  C   UNL     1       1.795   3.034  18.353  0.00  0.00    +0.000 A 
ATOM     15  C   UNL     1       0.876   2.703  19.350  0.00  0.00    +0.000 A 
ATOM     16  C   UNL     1       0.698   3.551  20.440  0.00  0.00    +0.000 A 
ATOM     17  C   UNL     1       1.450   4.719  20.535  0.00  0.00    +0.000 A 
ATOM     18  C   UNL     1       2.371   5.054  19.534  0.00  0.00    +0.000 A 
ENDBRANCH  12  13
ENDBRANCH   2  11
TORSDOF 4
ENDMDL
MODEL 8
REMARK VINA RESULT:      -6.9      3.426      3.872
REMARK  Name = 
REMARK  4 active torsions:
REMARK  status: ('A' for Active; 'I' for Inactive)
REMARK    1  A    between atoms: O_1  and  N_2
REMARK    2  A    between atoms: C_3  and  C_4
REMARK    3  A    between atoms: C_5  and  C_6
REMARK    4  A    between atoms: C_7  and  C_8
REMARK                            x       y       z     vdW  Elec       q    Type
REMARK                         _______ _______ _______ _____ _____    ______ ____
ROOT
ATOM      1  C   UNL     1       6.735   4.659  16.719  0.00  0.00    +0.000 C 
ATOM      2  C   UNL     1       5.391   4.558  16.574  0.00  0.00    +0.000 C 
ATOM      3  C   UNL     1       4.777   4.507  15.180  0.00  0.00    +0.000 C 
ATOM      4  C   UNL     1       5.767   4.183  14.063  0.00  0.00    +0.000 C 
ATOM      5  C   UNL     1       7.013   5.037  14.203  0.00  0.00    +0.000 C 
ATOM      6  C   UNL     1       7.688   4.779  15.547  0.00  0.00    +0.000 C 
ENDROOT
BRANCH   1   8
ATOM      7  N   UNL     1       7.639   5.852  18.662  0.00  0.00    +0.000 NA
ATOM      8  C   UNL     1       7.420   4.731  18.049  0.00  0.00    +0.000 C 
BRANCH   7   9
ATOM      9  O   UNL     1       8.275   5.601  19.882  0.00  0.00    +0.000 OA
ATOM     10  H   UNL     1       8.852   4.845  19.660  0.00  0.00    +0.000 HD
ENDBRANCH   7   9
ENDBRANCH   1   8
BRANCH   2  11
ATOM     11  C   UNL     1       4.440   4.479  17.689  0.00  0.00    +0.000 C 
ATOM     12  C   UNL     1       4.163   3.349  18.368  0.00  0.00    +0.000 C 
BRANCH  12  13
ATOM     13  C   UNL     1       3.147   3.193  19.422  0.00  0.00    +0.000 A 
ATOM     14  C   UNL     1       1.828   3.566  19.121  0.00  0.00    +0.000 A 
ATOM     15  C   UNL     1       0.811   3.455  20.072  0.00  0.00    +0.000 A 
ATOM     16  C   UNL     1       1.098   2.954  21.340  0.00  0.00    +0.000 A 
ATOM     17  C   UNL     1       2.396   2.554  21.645  0.00  0.00    +0.000 A 
ATOM     18  C   UNL     1       3.417   2.666  20.693  0.00  0.00    +0.000 A 
ENDBRANCH  12  13
ENDBRANCH   2  11
TORSDOF 4
ENDMDL
MODEL 9
REMARK VINA RESULT:      -6.9      2.815      2.943
REMARK  Name = 
REMARK  4 active torsions:
REMARK  status: ('A' for Active; 'I' for Inactive)
REMARK    1  A    between atoms: O_1  and  N_2
REMARK    2  A    between atoms: C_3  and  C_4
REMARK    3  A    between atoms: C_5  and  C_6
REMARK    4  A    between atoms: C_7  and  C_8
REMARK                            x       y       z     vdW  Elec       q    Type
REMARK                         _______ _______ _______ _____ _____    ______ ____
ROOT
ATOM      1  C   UNL     1       4.203   4.111  17.077  0.00  0.00    +0.000 C 
ATOM      2  C   UNL     1       4.091   5.458  17.177  0.00  0.00    +0.000 C 
ATOM      3  C   UNL     1       4.995   6.362  16.346  0.00  0.00    +0.000 C 
ATOM      4  C   UNL     1       5.688   5.663  15.178  0.00  0.00    +0.000 C 
ATOM      5  C   UNL     1       6.308   4.358  15.641  0.00  0.00    +0.000 C 
ATOM      6  C   UNL     1       5.235   3.428  16.202  0.00  0.00    +0.000 C 
ENDROOT
BRANCH   1   8
ATOM      7  N   UNL     1       2.314   2.577  17.376  0.00  0.00    +0.000 NA
ATOM      8  C   UNL     1       3.368   3.151  17.866  0.00  0.00    +0.000 C 
BRANCH   7   9
ATOM      9  O   UNL     1       1.756   1.726  18.336  0.00  0.00    +0.000 OA
ATOM     10  H   UNL     1       2.159   0.866  18.107  0.00  0.00    +0.000 HD
ENDBRANCH   7   9
ENDBRANCH   1   8
BRANCH   2  11
ATOM     11  C   UNL     1       3.128   6.148  18.042  0.00  0.00    +0.000 C 
ATOM     12  C   UNL     1       2.886   7.472  17.999  0.00  0.00    +0.000 C 
BRANCH  12  13
ATOM     13  C   UNL     1       2.009   8.228  18.910  0.00  0.00    +0.000 A 
ATOM     14  C   UNL     1       1.334   9.345  18.393  0.00  0.00    +0.000 A 
ATOM     15  C   UNL     1       0.493  10.116  19.198  0.00  0.00    +0.000 A 
ATOM     16  C   UNL     1       0.302   9.772  20.534  0.00  0.00    +0.000 A 
ATOM     17  C   UNL     1       0.943   8.650  21.055  0.00  0.00    +0.000 A 
ATOM     18  C   UNL     1       1.788   7.877  20.249  0.00  0.00    +0.000 A 
ENDBRANCH  12  13
ENDBRANCH   2  11
TORSDOF 4
ENDMDL
