MODEL 1
REMARK VINA RESULT:      -8.2      0.000      0.000
REMARK  Name = 
REMARK  9 active torsions:
REMARK  status: ('A' for Active; 'I' for Inactive)
REMARK    1  A    between atoms: C_1  and  C_2
REMARK    2  A    between atoms: C_2  and  C_4
REMARK    3  A    between atoms: C_7  and  N_8
REMARK    4  A    between atoms: C_9  and  C_11
REMARK    5  A    between atoms: C_11  and  S_12
REMARK    6  A    between atoms: S_12  and  C_13
REMARK    7  A    between atoms: C_16  and  C_17
REMARK    8  A    between atoms: C_19  and  C_20
REMARK    9  A    between atoms: C_22  and  C_23
REMARK                            x       y       z     vdW  Elec       q    Type
REMARK                         _______ _______ _______ _____ _____    ______ ____
ROOT
ATOM      1  C   UNL     1       2.299   3.584  21.733  0.00  0.00    +0.000 C 
ENDROOT
BRANCH   1   3
ATOM      2  N   UNL     1       2.392   5.878  20.885  0.00  0.00    +0.000 N 
ATOM      3  C   UNL     1       1.643   4.707  20.941  0.00  0.00    +0.000 C 
ATOM      4  O   UNL     1       0.562   4.524  20.384  0.00  0.00    +0.000 OA
ATOM      5  H   UNL     1       3.337   5.838  21.247  0.00  0.00    +0.000 HD
BRANCH   2   9
ATOM      6  C   UNL     1       1.138   9.593  19.287  0.00  0.00    +0.000 A 
ATOM      7  C   UNL     1       1.896   8.720  18.504  0.00  0.00    +0.000 A 
ATOM      8  C   UNL     1       2.310   7.488  19.022  0.00  0.00    +0.000 A 
ATOM      9  C   UNL     1       1.978   7.104  20.321  0.00  0.00    +0.000 A 
ATOM     10  C   UNL     1       1.183   7.959  21.092  0.00  0.00    +0.000 A 
ATOM     11  C   UNL     1       0.779   9.204  20.583  0.00  0.00    +0.000 A 
BRANCH   6  13
ATOM     12  C   UNL     1      -0.711  11.377  19.024  0.00  0.00    +0.000 C 
ATOM     13  C   UNL     1       0.707  10.928  18.776  0.00  0.00    +0.000 C 
ATOM     14  O   UNL     1       1.505  11.638  18.169  0.00  0.00    +0.000 OA
ENDBRANCH   6  13
ENDBRANCH   2   9
ENDBRANCH   1   3
BRANCH   1  15
ATOM     15  S   UNL     1       2.652   2.199  20.605  0.00  0.00    +0.000 S 
BRANCH  15  16
ATOM     16  C   UNL     1       3.576   3.015  19.324  0.00  0.00    +0.000 A 
ATOM     17  C   UNL     1       2.969   3.204  18.094  0.00  0.00    +0.000 A 
ATOM     18  C   UNL     1       3.703   3.763  17.049  0.00  0.00    +0.000 A 
ATOM     19  C   UNL     1       5.023   4.121  17.265  0.00  0.00    +0.000 A 
ATOM     20  N   UNL     1       5.585   3.945  18.483  0.00  0.00    +0.000 NA
ATOM     21  N   UNL     1       4.855   3.389  19.523  0.00  0.00    +0.000 NA
BRANCH  19  22
ATOM     22  C   UNL     1       5.909   4.615  16.206  0.00  0.00    +0.000 A 
ATOM     23  S   UNL     1       5.766   4.040  14.586  0.00  0.00    +0.000 S 
ATOM     24  C   UNL     1       7.124   4.967  14.121  0.00  0.00    +0.000 A 
ATOM     25  C   UNL     1       7.657   4.896  12.732  0.00  0.00    +0.000 C 
ATOM     26  N   UNL     1       7.647   5.710  15.069  0.00  0.00    +0.000 NA
ATOM     27  C   UNL     1       6.957   5.527  16.262  0.00  0.00    +0.000 A 
ATOM     28  C   UNL     1       7.441   6.271  17.457  0.00  0.00    +0.000 C 
ENDBRANCH  19  22
ENDBRANCH  15  16
ENDBRANCH   1  15
TORSDOF 6
ENDMDL
MODEL 2
REMARK VINA RESULT:      -8.1      3.575      7.969
REMARK  Name = 
REMARK  9 active torsions:
REMARK  status: ('A' for Active; 'I' for Inactive)
REMARK    1  A    between atoms: C_1  and  C_2
REMARK    2  A    between atoms: C_2  and  C_4
REMARK    3  A    between atoms: C_7  and  N_8
REMARK    4  A    between atoms: C_9  and  C_11
REMARK    5  A    between atoms: C_11  and  S_12
REMARK    6  A    between atoms: S_12  and  C_13
REMARK    7  A    between atoms: C_16  and  C_17
REMARK    8  A    between atoms: C_19  and  C_20
REMARK    9  A    between atoms: C_22  and  C_23
REMARK                            x       y       z     vdW  Elec       q    Type
REMARK                         _______ _______ _______ _____ _____    ______ ____
ROOT
ATOM      1  C   UNL     1       1.180   4.482  19.742  0.00  0.00    +0.000 C 
ENDROOT
BRANCH   1   3
ATOM      2  N   UNL     1       3.263   4.547  18.459  0.00  0.00    +0.000 N 
ATOM      3  C   UNL     1       1.892   4.317  18.406  0.00  0.00    +0.000 C 
ATOM      4  O   UNL     1       1.265   3.967  17.408  0.00  0.00    +0.000 OA
ATOM      5  H   UNL     1       3.676   4.666  19.377  0.00  0.00    +0.000 HD
BRANCH   2   9
ATOM      6  C   UNL     1       5.939   4.728  15.183  0.00  0.00    +0.000 A 
ATOM      7  C   UNL     1       5.471   3.491  15.630  0.00  0.00    +0.000 A 
ATOM      8  C   UNL     1       4.583   3.421  16.708  0.00  0.00    +0.000 A 
ATOM      9  C   UNL     1       4.145   4.577  17.357  0.00  0.00    +0.000 A 
ATOM     10  C   UNL     1       4.579   5.819  16.882  0.00  0.00    +0.000 A 
ATOM     11  C   UNL     1       5.484   5.893  15.811  0.00  0.00    +0.000 A 
BRANCH   6  13
ATOM     12  C   UNL     1       6.703   3.978  12.832  0.00  0.00    +0.000 C 
ATOM     13  C   UNL     1       6.912   4.834  14.055  0.00  0.00    +0.000 C 
ATOM     14  O   UNL     1       7.860   5.612  14.136  0.00  0.00    +0.000 OA
ENDBRANCH   6  13
ENDBRANCH   2   9
ENDBRANCH   1   3
BRANCH   1  15
ATOM     15  S   UNL     1       2.237   5.462  20.854  0.00  0.00    +0.000 S 
BRANCH  15  16
ATOM     16  C   UNL     1       1.763   7.119  20.419  0.00  0.00    +0.000 A 
ATOM     17  C   UNL     1       0.965   7.827  21.301  0.00  0.00    +0.000 A 
ATOM     18  C   UNL     1       0.510   9.095  20.942  0.00  0.00    +0.000 A 
ATOM     19  C   UNL     1       0.869   9.621  19.713  0.00  0.00    +0.000 A 
ATOM     20  N   UNL     1       1.669   8.916  18.880  0.00  0.00    +0.000 NA
ATOM     21  N   UNL     1       2.122   7.655  19.236  0.00  0.00    +0.000 NA
BRANCH  19  22
ATOM     22  C   UNL     1       0.357  10.895  19.199  0.00  0.00    +0.000 A 
ATOM     23  S   UNL     1       1.169  12.381  19.534  0.00  0.00    +0.000 S 
ATOM     24  C   UNL     1      -0.064  13.252  18.732  0.00  0.00    +0.000 A 
ATOM     25  C   UNL     1      -0.039  14.741  18.686  0.00  0.00    +0.000 C 
ATOM     26  N   UNL     1      -1.008  12.517  18.191  0.00  0.00    +0.000 NA
ATOM     27  C   UNL     1      -0.776  11.170  18.440  0.00  0.00    +0.000 A 
ATOM     28  C   UNL     1      -1.774  10.193  17.925  0.00  0.00    +0.000 C 
ENDBRANCH  19  22
ENDBRANCH  15  16
ENDBRANCH   1  15
TORSDOF 6
ENDMDL
MODEL 3
REMARK VINA RESULT:      -7.8      0.648      1.185
REMARK  Name = 
REMARK  9 active torsions:
REMARK  status: ('A' for Active; 'I' for Inactive)
REMARK    1  A    between atoms: C_1  and  C_2
REMARK    2  A    between atoms: C_2  and  C_4
REMARK    3  A    between atoms: C_7  and  N_8
REMARK    4  A    between atoms: C_9  and  C_11
REMARK    5  A    between atoms: C_11  and  S_12
REMARK    6  A    between atoms: S_12  and  C_13
REMARK    7  A    between atoms: C_16  and  C_17
REMARK    8  A    between atoms: C_19  and  C_20
REMARK    9  A    between atoms: C_22  and  C_23
REMARK                            x       y       z     vdW  Elec       q    Type
REMARK                         _______ _______ _______ _____ _____    ______ ____
ROOT
ATOM      1  C   UNL     1       2.373   3.816  21.526  0.00  0.00    +0.000 C 
ENDROOT
BRANCH   1   3
ATOM      2  N   UNL     1       2.368   6.154  20.803  0.00  0.00    +0.000 N 
ATOM      3  C   UNL     1       1.629   4.978  20.882  0.00  0.00    +0.000 C 
ATOM      4  O   UNL     1       0.489   4.820  20.448  0.00  0.00    +0.000 OA
ATOM      5  H   UNL     1       3.350   6.099  21.048  0.00  0.00    +0.000 HD
BRANCH   2   9
ATOM      6  C   UNL     1       0.948   9.881  19.382  0.00  0.00    +0.000 A 
ATOM      7  C   UNL     1       0.670   9.485  20.692  0.00  0.00    +0.000 A 
ATOM      8  C   UNL     1       1.138   8.258  21.172  0.00  0.00    +0.000 A 
ATOM      9  C   UNL     1       1.892   7.407  20.362  0.00  0.00    +0.000 A 
ATOM     10  C   UNL     1       2.208   7.823  19.064  0.00  0.00    +0.000 A 
ATOM     11  C   UNL     1       1.725   9.046  18.572  0.00  0.00    +0.000 A 
BRANCH   6  13
ATOM     12  C   UNL     1       1.424  12.172  18.288  0.00  0.00    +0.000 C 
ATOM     13  C   UNL     1       0.436  11.170  18.830  0.00  0.00    +0.000 C 
ATOM     14  O   UNL     1      -0.772  11.395  18.820  0.00  0.00    +0.000 OA
ENDBRANCH   6  13
ENDBRANCH   2   9
ENDBRANCH   1   3
BRANCH   1  15
ATOM     15  S   UNL     1       2.450   2.437  20.340  0.00  0.00    +0.000 S 
BRANCH  15  16
ATOM     16  C   UNL     1       3.393   3.164  19.019  0.00  0.00    +0.000 A 
ATOM     17  C   UNL     1       2.861   3.140  17.741  0.00  0.00    +0.000 A 
ATOM     18  C   UNL     1       3.619   3.625  16.676  0.00  0.00    +0.000 A 
ATOM     19  C   UNL     1       4.887   4.124  16.921  0.00  0.00    +0.000 A 
ATOM     20  N   UNL     1       5.374   4.156  18.183  0.00  0.00    +0.000 NA
ATOM     21  N   UNL     1       4.620   3.673  19.242  0.00  0.00    +0.000 NA
BRANCH  19  22
ATOM     22  C   UNL     1       5.802   4.557  15.860  0.00  0.00    +0.000 A 
ATOM     23  S   UNL     1       5.639   3.966  14.247  0.00  0.00    +0.000 S 
ATOM     24  C   UNL     1       7.045   4.816  13.777  0.00  0.00    +0.000 A 
ATOM     25  C   UNL     1       7.580   4.697  12.392  0.00  0.00    +0.000 C 
ATOM     26  N   UNL     1       7.599   5.546  14.718  0.00  0.00    +0.000 NA
ATOM     27  C   UNL     1       6.895   5.416  15.909  0.00  0.00    +0.000 A 
ATOM     28  C   UNL     1       7.409   6.153  17.095  0.00  0.00    +0.000 C 
ENDBRANCH  19  22
ENDBRANCH  15  16
ENDBRANCH   1  15
TORSDOF 6
ENDMDL
MODEL 4
REMARK VINA RESULT:      -7.5      0.968      1.112
REMARK  Name = 
REMARK  9 active torsions:
REMARK  status: ('A' for Active; 'I' for Inactive)
REMARK    1  A    between atoms: C_1  and  C_2
REMARK    2  A    between atoms: C_2  and  C_4
REMARK    3  A    between atoms: C_7  and  N_8
REMARK    4  A    between atoms: C_9  and  C_11
REMARK    5  A    between atoms: C_11  and  S_12
REMARK    6  A    between atoms: S_12  and  C_13
REMARK    7  A    between atoms: C_16  and  C_17
REMARK    8  A    between atoms: C_19  and  C_20
REMARK    9  A    between atoms: C_22  and  C_23
REMARK                            x       y       z     vdW  Elec       q    Type
REMARK                         _______ _______ _______ _____ _____    ______ ____
ROOT
ATOM      1  C   UNL     1       2.298   3.965  21.505  0.00  0.00    +0.000 C 
ENDROOT
BRANCH   1   3
ATOM      2  N   UNL     1       2.121   6.341  20.945  0.00  0.00    +0.000 N 
ATOM      3  C   UNL     1       1.549   5.082  20.790  0.00  0.00    +0.000 C 
ATOM      4  O   UNL     1       0.555   4.828  20.113  0.00  0.00    +0.000 OA
ATOM      5  H   UNL     1       3.030   6.383  21.390  0.00  0.00    +0.000 HD
BRANCH   2   9
ATOM      6  C   UNL     1       0.476  10.031  19.679  0.00  0.00    +0.000 A 
ATOM      7  C   UNL     1       1.338   9.329  18.835  0.00  0.00    +0.000 A 
ATOM      8  C   UNL     1       1.883   8.107  19.243  0.00  0.00    +0.000 A 
ATOM      9  C   UNL     1       1.579   7.562  20.491  0.00  0.00    +0.000 A 
ATOM     10  C   UNL     1       0.681   8.244  21.319  0.00  0.00    +0.000 A 
ATOM     11  C   UNL     1       0.145   9.480  20.922  0.00  0.00    +0.000 A 
BRANCH   6  13
ATOM     12  C   UNL     1      -1.143  11.399  18.202  0.00  0.00    +0.000 C 
ATOM     13  C   UNL     1      -0.097  11.353  19.287  0.00  0.00    +0.000 C 
ATOM     14  O   UNL     1       0.285  12.377  19.850  0.00  0.00    +0.000 OA
ENDBRANCH   6  13
ENDBRANCH   2   9
ENDBRANCH   1   3
BRANCH   1  15
ATOM     15  S   UNL     1       2.340   2.501  20.424  0.00  0.00    +0.000 S 
BRANCH  15  16
ATOM     16  C   UNL     1       3.502   3.015  19.181  0.00  0.00    +0.000 A 
ATOM     17  C   UNL     1       4.633   3.704  19.583  0.00  0.00    +0.000 A 
ATOM     18  C   UNL     1       5.514   4.192  18.619  0.00  0.00    +0.000 A 
ATOM     19  C   UNL     1       5.240   3.973  17.279  0.00  0.00    +0.000 A 
ATOM     20  N   UNL     1       4.139   3.278  16.915  0.00  0.00    +0.000 NA
ATOM     21  N   UNL     1       3.262   2.792  17.874  0.00  0.00    +0.000 NA
BRANCH  19  22
ATOM     22  C   UNL     1       6.044   4.536  16.189  0.00  0.00    +0.000 A 
ATOM     23  S   UNL     1       5.918   3.921  14.582  0.00  0.00    +0.000 S 
ATOM     24  C   UNL     1       7.163   4.972  14.066  0.00  0.00    +0.000 A 
ATOM     25  C   UNL     1       7.664   4.931  12.664  0.00  0.00    +0.000 C 
ATOM     26  N   UNL     1       7.631   5.781  14.989  0.00  0.00    +0.000 NA
ATOM     27  C   UNL     1       6.995   5.551  16.203  0.00  0.00    +0.000 A 
ATOM     28  C   UNL     1       7.431   6.361  17.372  0.00  0.00    +0.000 C 
ENDBRANCH  19  22
ENDBRANCH  15  16
ENDBRANCH   1  15
TORSDOF 6
ENDMDL
MODEL 5
REMARK VINA RESULT:      -7.4      3.651      8.122
REMARK  Name = 
REMARK  9 active torsions:
REMARK  status: ('A' for Active; 'I' for Inactive)
REMARK    1  A    between atoms: C_1  and  C_2
REMARK    2  A    between atoms: C_2  and  C_4
REMARK    3  A    between atoms: C_7  and  N_8
REMARK    4  A    between atoms: C_9  and  C_11
REMARK    5  A    between atoms: C_11  and  S_12
REMARK    6  A    between atoms: S_12  and  C_13
REMARK    7  A    between atoms: C_16  and  C_17
REMARK    8  A    between atoms: C_19  and  C_20
REMARK    9  A    between atoms: C_22  and  C_23
REMARK                            x       y       z     vdW  Elec       q    Type
REMARK                         _______ _______ _______ _____ _____    ______ ____
ROOT
ATOM      1  C   UNL     1       1.391   4.580  19.455  0.00  0.00    +0.000 C 
ENDROOT
BRANCH   1   3
ATOM      2  N   UNL     1       3.440   4.756  18.128  0.00  0.00    +0.000 N 
ATOM      3  C   UNL     1       2.111   4.344  18.134  0.00  0.00    +0.000 C 
ATOM      4  O   UNL     1       1.530   3.794  17.200  0.00  0.00    +0.000 OA
ATOM      5  H   UNL     1       3.838   5.041  19.015  0.00  0.00    +0.000 HD
BRANCH   2   9
ATOM      6  C   UNL     1       6.009   4.678  14.763  0.00  0.00    +0.000 A 
ATOM      7  C   UNL     1       5.496   5.894  15.218  0.00  0.00    +0.000 A 
ATOM      8  C   UNL     1       4.650   5.931  16.331  0.00  0.00    +0.000 A 
ATOM      9  C   UNL     1       4.304   4.763  17.012  0.00  0.00    +0.000 A 
ATOM     10  C   UNL     1       4.852   3.549  16.584  0.00  0.00    +0.000 A 
ATOM     11  C   UNL     1       5.687   3.505  15.456  0.00  0.00    +0.000 A 
BRANCH   6  13
ATOM     12  C   UNL     1       8.049   5.558  13.445  0.00  0.00    +0.000 C 
ATOM     13  C   UNL     1       6.888   4.601  13.559  0.00  0.00    +0.000 C 
ATOM     14  O   UNL     1       6.660   3.766  12.687  0.00  0.00    +0.000 OA
ENDBRANCH   6  13
ENDBRANCH   2   9
ENDBRANCH   1   3
BRANCH   1  15
ATOM     15  S   UNL     1       2.472   5.556  20.547  0.00  0.00    +0.000 S 
BRANCH  15  16
ATOM     16  C   UNL     1       1.948   7.213  20.171  0.00  0.00    +0.000 A 
ATOM     17  C   UNL     1       1.243   7.914  21.135  0.00  0.00    +0.000 A 
ATOM     18  C   UNL     1       0.748   9.181  20.831  0.00  0.00    +0.000 A 
ATOM     19  C   UNL     1       0.973   9.713  19.573  0.00  0.00    +0.000 A 
ATOM     20  N   UNL     1       1.684   9.014  18.658  0.00  0.00    +0.000 NA
ATOM     21  N   UNL     1       2.177   7.754  18.959  0.00  0.00    +0.000 NA
BRANCH  19  22
ATOM     22  C   UNL     1       0.404  10.986  19.121  0.00  0.00    +0.000 A 
ATOM     23  S   UNL     1       1.128  12.490  19.559  0.00  0.00    +0.000 S 
ATOM     24  C   UNL     1      -0.132  13.341  18.780  0.00  0.00    +0.000 A 
ATOM     25  C   UNL     1      -0.186  14.829  18.820  0.00  0.00    +0.000 C 
ATOM     26  N   UNL     1      -1.024  12.591  18.176  0.00  0.00    +0.000 NA
ATOM     27  C   UNL     1      -0.726  11.245  18.353  0.00  0.00    +0.000 A 
ATOM     28  C   UNL     1      -1.660  10.250  17.760  0.00  0.00    +0.000 C 
ENDBRANCH  19  22
ENDBRANCH  15  16
ENDBRANCH   1  15
TORSDOF 6
ENDMDL
MODEL 6
REMARK VINA RESULT:      -7.2      3.706      8.221
REMARK  Name = 
REMARK  9 active torsions:
REMARK  status: ('A' for Active; 'I' for Inactive)
REMARK    1  A    between atoms: C_1  and  C_2
REMARK    2  A    between atoms: C_2  and  C_4
REMARK    3  A    between atoms: C_7  and  N_8
REMARK    4  A    between atoms: C_9  and  C_11
REMARK    5  A    between atoms: C_11  and  S_12
REMARK    6  A    between atoms: S_12  and  C_13
REMARK    7  A    between atoms: C_16  and  C_17
REMARK    8  A    between atoms: C_19  and  C_20
REMARK    9  A    between atoms: C_22  and  C_23
REMARK                            x       y       z     vdW  Elec       q    Type
REMARK                         _______ _______ _______ _____ _____    ______ ____
ROOT
ATOM      1  C   UNL     1       1.892   4.565  19.330  0.00  0.00    +0.000 C 
ENDROOT
BRANCH   1   3
ATOM      2  N   UNL     1       3.852   4.795  17.883  0.00  0.00    +0.000 N 
ATOM      3  C   UNL     1       2.557   4.298  17.986  0.00  0.00    +0.000 C 
ATOM      4  O   UNL     1       1.967   3.656  17.119  0.00  0.00    +0.000 OA
ATOM      5  H   UNL     1       4.276   5.158  18.728  0.00  0.00    +0.000 HD
BRANCH   2   9
ATOM      6  C   UNL     1       6.238   4.684  14.386  0.00  0.00    +0.000 A 
ATOM      7  C   UNL     1       5.716   5.900  14.833  0.00  0.00    +0.000 A 
ATOM      8  C   UNL     1       4.931   5.947  15.990  0.00  0.00    +0.000 A 
ATOM      9  C   UNL     1       4.654   4.791  16.721  0.00  0.00    +0.000 A 
ATOM     10  C   UNL     1       5.212   3.580  16.298  0.00  0.00    +0.000 A 
ATOM     11  C   UNL     1       5.987   3.524  15.128  0.00  0.00    +0.000 A 
BRANCH   6  13
ATOM     12  C   UNL     1       8.210   5.545  12.956  0.00  0.00    +0.000 C 
ATOM     13  C   UNL     1       7.053   4.595  13.138  0.00  0.00    +0.000 C 
ATOM     14  O   UNL     1       6.776   3.755  12.285  0.00  0.00    +0.000 OA
ENDBRANCH   6  13
ENDBRANCH   2   9
ENDBRANCH   1   3
BRANCH   1  15
ATOM     15  S   UNL     1       2.895   5.774  20.251  0.00  0.00    +0.000 S 
BRANCH  15  16
ATOM     16  C   UNL     1       2.104   7.301  19.801  0.00  0.00    +0.000 A 
ATOM     17  C   UNL     1       2.276   7.776  18.512  0.00  0.00    +0.000 A 
ATOM     18  C   UNL     1       1.737   9.013  18.162  0.00  0.00    +0.000 A 
ATOM     19  C   UNL     1       1.039   9.740  19.111  0.00  0.00    +0.000 A 
ATOM     20  N   UNL     1       0.868   9.243  20.357  0.00  0.00    +0.000 NA
ATOM     21  N   UNL     1       1.403   8.012  20.705  0.00  0.00    +0.000 NA
BRANCH  19  22
ATOM     22  C   UNL     1       0.528  11.094  18.875  0.00  0.00    +0.000 A 
ATOM     23  S   UNL     1       1.510  12.481  19.178  0.00  0.00    +0.000 S 
ATOM     24  C   UNL     1       0.203  13.510  18.785  0.00  0.00    +0.000 A 
ATOM     25  C   UNL     1       0.336  14.989  18.902  0.00  0.00    +0.000 C 
ATOM     26  N   UNL     1      -0.893  12.900  18.398  0.00  0.00    +0.000 NA
ATOM     27  C   UNL     1      -0.720  11.521  18.435  0.00  0.00    +0.000 A 
ATOM     28  C   UNL     1      -1.882  10.672  18.059  0.00  0.00    +0.000 C 
ENDBRANCH  19  22
ENDBRANCH  15  16
ENDBRANCH   1  15
TORSDOF 6
ENDMDL
MODEL 7
REMARK VINA RESULT:      -7.2      0.933      1.401
REMARK  Name = 
REMARK  9 active torsions:
REMARK  status: ('A' for Active; 'I' for Inactive)
REMARK    1  A    between atoms: C_1  and  C_2
REMARK    2  A    between atoms: C_2  and  C_4
REMARK    3  A    between atoms: C_7  and  N_8
REMARK    4  A    between atoms: C_9  and  C_11
REMARK    5  A    between atoms: C_11  and  S_12
REMARK    6  A    between atoms: S_12  and  C_13
REMARK    7  A    between atoms: C_16  and  C_17
REMARK    8  A    between atoms: C_19  and  C_20
REMARK    9  A    between atoms: C_22  and  C_23
REMARK                            x       y       z     vdW  Elec       q    Type
REMARK                         _______ _______ _______ _____ _____    ______ ____
ROOT
ATOM      1  C   UNL     1       1.768   3.146  21.417  0.00  0.00    +0.000 C 
ENDROOT
BRANCH   1   3
ATOM      2  N   UNL     1       2.102   5.519  20.922  0.00  0.00    +0.000 N 
ATOM      3  C   UNL     1       1.362   4.380  20.623  0.00  0.00    +0.000 C 
ATOM      4  O   UNL     1       0.476   4.307  19.773  0.00  0.00    +0.000 OA
ATOM      5  H   UNL     1       2.910   5.400  21.521  0.00  0.00    +0.000 HD
BRANCH   2   9
ATOM      6  C   UNL     1       1.408   9.383  19.335  0.00  0.00    +0.000 A 
ATOM      7  C   UNL     1       0.924   9.055  20.602  0.00  0.00    +0.000 A 
ATOM      8  C   UNL     1       1.152   7.783  21.137  0.00  0.00    +0.000 A 
ATOM      9  C   UNL     1       1.866   6.819  20.424  0.00  0.00    +0.000 A 
ATOM     10  C   UNL     1       2.390   7.161  19.173  0.00  0.00    +0.000 A 
ATOM     11  C   UNL     1       2.148   8.430  18.624  0.00  0.00    +0.000 A 
BRANCH   6  13
ATOM     12  C   UNL     1      -0.264  11.223  18.637  0.00  0.00    +0.000 C 
ATOM     13  C   UNL     1       1.155  10.721  18.722  0.00  0.00    +0.000 C 
ATOM     14  O   UNL     1       2.096  11.390  18.303  0.00  0.00    +0.000 OA
ENDBRANCH   6  13
ENDBRANCH   2   9
ENDBRANCH   1   3
BRANCH   1  15
ATOM     15  S   UNL     1       1.996   1.754  20.265  0.00  0.00    +0.000 S 
BRANCH  15  16
ATOM     16  C   UNL     1       3.175   2.434  19.121  0.00  0.00    +0.000 A 
ATOM     17  C   UNL     1       4.378   2.904  19.620  0.00  0.00    +0.000 A 
ATOM     18  C   UNL     1       5.282   3.520  18.755  0.00  0.00    +0.000 A 
ATOM     19  C   UNL     1       4.958   3.645  17.414  0.00  0.00    +0.000 A 
ATOM     20  N   UNL     1       3.784   3.157  16.950  0.00  0.00    +0.000 NA
ATOM     21  N   UNL     1       2.886   2.545  17.810  0.00  0.00    +0.000 NA
BRANCH  19  22
ATOM     22  C   UNL     1       5.789   4.369  16.447  0.00  0.00    +0.000 A 
ATOM     23  S   UNL     1       5.864   3.879  14.795  0.00  0.00    +0.000 S 
ATOM     24  C   UNL     1       7.034   5.083  14.475  0.00  0.00    +0.000 A 
ATOM     25  C   UNL     1       7.654   5.205  13.126  0.00  0.00    +0.000 C 
ATOM     26  N   UNL     1       7.336   5.855  15.494  0.00  0.00    +0.000 NA
ATOM     27  C   UNL     1       6.626   5.466  16.623  0.00  0.00    +0.000 A 
ATOM     28  C   UNL     1       6.876   6.216  17.884  0.00  0.00    +0.000 C 
ENDBRANCH  19  22
ENDBRANCH  15  16
ENDBRANCH   1  15
TORSDOF 6
ENDMDL
MODEL 8
REMARK VINA RESULT:      -7.1      3.939      6.141
REMARK  Name = 
REMARK  9 active torsions:
REMARK  status: ('A' for Active; 'I' for Inactive)
REMARK    1  A    between atoms: C_1  and  C_2
REMARK    2  A    between atoms: C_2  and  C_4
REMARK    3  A    between atoms: C_7  and  N_8
REMARK    4  A    between atoms: C_9  and  C_11
REMARK    5  A    between atoms: C_11  and  S_12
REMARK    6  A    between atoms: S_12  and  C_13
REMARK    7  A    between atoms: C_16  and  C_17
REMARK    8  A    between atoms: C_19  and  C_20
REMARK    9  A    between atoms: C_22  and  C_23
REMARK                            x       y       z     vdW  Elec       q    Type
REMARK                         _______ _______ _______ _____ _____    ______ ____
ROOT
ATOM      1  C   UNL     1      -0.961  10.248  19.420  0.00  0.00    +0.000 C 
ENDROOT
BRANCH   1   3
ATOM      2  N   UNL     1       0.222  12.389  19.368  0.00  0.00    +0.000 N 
ATOM      3  C   UNL     1      -0.779  11.620  18.784  0.00  0.00    +0.000 C 
ATOM      4  O   UNL     1      -1.458  11.949  17.813  0.00  0.00    +0.000 OA
ATOM      5  H   UNL     1       0.815  11.934  20.051  0.00  0.00    +0.000 HD
BRANCH   2   9
ATOM      6  C   UNL     1       1.058  16.448  18.496  0.00  0.00    +0.000 A 
ATOM      7  C   UNL     1       2.044  15.478  18.303  0.00  0.00    +0.000 A 
ATOM      8  C   UNL     1       1.776  14.135  18.583  0.00  0.00    +0.000 A 
ATOM      9  C   UNL     1       0.526  13.733  19.057  0.00  0.00    +0.000 A 
ATOM     10  C   UNL     1      -0.476  14.697  19.210  0.00  0.00    +0.000 A 
ATOM     11  C   UNL     1      -0.206  16.050  18.947  0.00  0.00    +0.000 A 
BRANCH   6  13
ATOM     12  C   UNL     1       1.156  18.423  16.834  0.00  0.00    +0.000 C 
ATOM     13  C   UNL     1       1.322  17.895  18.237  0.00  0.00    +0.000 C 
ATOM     14  O   UNL     1       1.666  18.629  19.160  0.00  0.00    +0.000 OA
ENDBRANCH   6  13
ENDBRANCH   2   9
ENDBRANCH   1   3
BRANCH   1  15
ATOM     15  S   UNL     1       0.362   9.988  20.644  0.00  0.00    +0.000 S 
BRANCH  15  16
ATOM     16  C   UNL     1       1.387   8.801  19.806  0.00  0.00    +0.000 A 
ATOM     17  C   UNL     1       1.715   9.034  18.482  0.00  0.00    +0.000 A 
ATOM     18  C   UNL     1       2.445   8.076  17.780  0.00  0.00    +0.000 A 
ATOM     19  C   UNL     1       2.830   6.913  18.425  0.00  0.00    +0.000 A 
ATOM     20  N   UNL     1       2.515   6.721  19.727  0.00  0.00    +0.000 NA
ATOM     21  N   UNL     1       1.789   7.674  20.425  0.00  0.00    +0.000 NA
BRANCH  19  22
ATOM     22  C   UNL     1       3.505   5.800  17.749  0.00  0.00    +0.000 A 
ATOM     23  S   UNL     1       5.049   6.013  17.009  0.00  0.00    +0.000 S 
ATOM     24  C   UNL     1       5.009   4.406  16.429  0.00  0.00    +0.000 A 
ATOM     25  C   UNL     1       6.105   3.879  15.569  0.00  0.00    +0.000 C 
ATOM     26  N   UNL     1       3.956   3.707  16.786  0.00  0.00    +0.000 NA
ATOM     27  C   UNL     1       3.094   4.487  17.548  0.00  0.00    +0.000 A 
ATOM     28  C   UNL     1       1.826   3.859  18.010  0.00  0.00    +0.000 C 
ENDBRANCH  19  22
ENDBRANCH  15  16
ENDBRANCH   1  15
TORSDOF 6
ENDMDL
MODEL 9
REMARK VINA RESULT:      -7.1      4.488      5.957
REMARK  Name = 
REMARK  9 active torsions:
REMARK  status: ('A' for Active; 'I' for Inactive)
REMARK    1  A    between atoms: C_1  and  C_2
REMARK    2  A    between atoms: C_2  and  C_4
REMARK    3  A    between atoms: C_7  and  N_8
REMARK    4  A    between atoms: C_9  and  C_11
REMARK    5  A    between atoms: C_11  and  S_12
REMARK    6  A    between atoms: S_12  and  C_13
REMARK    7  A    between atoms: C_16  and  C_17
REMARK    8  A    between atoms: C_19  and  C_20
REMARK    9  A    between atoms: C_22  and  C_23
REMARK                            x       y       z     vdW  Elec       q    Type
REMARK                         _______ _______ _______ _____ _____    ______ ____
ROOT
ATOM      1  C   UNL     1       0.492   8.919  21.862  0.00  0.00    +0.000 C 
ENDROOT
BRANCH   1   3
ATOM      2  N   UNL     1      -0.936  10.875  22.205  0.00  0.00    +0.000 N 
ATOM      3  C   UNL     1      -0.123   9.929  22.820  0.00  0.00    +0.000 C 
ATOM      4  O   UNL     1       0.082   9.842  24.029  0.00  0.00    +0.000 OA
ATOM      5  H   UNL     1      -1.151  10.732  21.225  0.00  0.00    +0.000 HD
BRANCH   2   9
ATOM      6  C   UNL     1      -2.678  14.277  24.028  0.00  0.00    +0.000 A 
ATOM      7  C   UNL     1      -3.369  13.064  24.017  0.00  0.00    +0.000 A 
ATOM      8  C   UNL     1      -2.800  11.934  23.421  0.00  0.00    +0.000 A 
ATOM      9  C   UNL     1      -1.537  11.989  22.831  0.00  0.00    +0.000 A 
ATOM     10  C   UNL     1      -0.825  13.192  22.880  0.00  0.00    +0.000 A 
ATOM     11  C   UNL     1      -1.399  14.334  23.461  0.00  0.00    +0.000 A 
BRANCH   6  13
ATOM     12  C   UNL     1      -4.688  15.881  24.273  0.00  0.00    +0.000 C 
ATOM     13  C   UNL     1      -3.270  15.510  24.628  0.00  0.00    +0.000 C 
ATOM     14  O   UNL     1      -2.603  16.198  25.397  0.00  0.00    +0.000 OA
ENDBRANCH   6  13
ENDBRANCH   2   9
ENDBRANCH   1   3
BRANCH   1  15
ATOM     15  S   UNL     1       0.547   9.648  20.194  0.00  0.00    +0.000 S 
BRANCH  15  16
ATOM     16  C   UNL     1       1.690   8.562  19.373  0.00  0.00    +0.000 A 
ATOM     17  C   UNL     1       2.109   8.893  18.096  0.00  0.00    +0.000 A 
ATOM     18  C   UNL     1       2.936   8.013  17.400  0.00  0.00    +0.000 A 
ATOM     19  C   UNL     1       3.323   6.827  18.002  0.00  0.00    +0.000 A 
ATOM     20  N   UNL     1       2.916   6.539  19.259  0.00  0.00    +0.000 NA
ATOM     21  N   UNL     1       2.093   7.414  19.952  0.00  0.00    +0.000 NA
BRANCH  19  22
ATOM     22  C   UNL     1       4.100   5.790  17.316  0.00  0.00    +0.000 A 
ATOM     23  S   UNL     1       5.243   6.198  16.089  0.00  0.00    +0.000 S 
ATOM     24  C   UNL     1       5.548   4.542  15.801  0.00  0.00    +0.000 A 
ATOM     25  C   UNL     1       6.478   4.115  14.719  0.00  0.00    +0.000 C 
ATOM     26  N   UNL     1       4.900   3.709  16.583  0.00  0.00    +0.000 NA
ATOM     27  C   UNL     1       4.078   4.407  17.459  0.00  0.00    +0.000 A 
ATOM     28  C   UNL     1       3.241   3.611  18.397  0.00  0.00    +0.000 C 
ENDBRANCH  19  22
ENDBRANCH  15  16
ENDBRANCH   1  15
TORSDOF 6
ENDMDL
