MODEL 1
REMARK VINA RESULT:      -7.2      0.000      0.000
REMARK  Name = 
REMARK  16 active torsions:
REMARK  status: ('A' for Active; 'I' for Inactive)
REMARK    1  A    between atoms: C_1  and  C_2
REMARK    2  A    between atoms: C_2  and  C_3
REMARK    3  A    between atoms: C_3  and  C_4
REMARK    4  A    between atoms: C_4  and  C_5
REMARK    5  A    between atoms: C_5  and  C_6
REMARK    6  A    between atoms: C_6  and  C_7
REMARK    7  A    between atoms: C_7  and  C_8
REMARK    8  A    between atoms: C_8  and  N_9
REMARK    9  A    between atoms: N_9  and  C_10
REMARK   10  A    between atoms: N_9  and  C_11
REMARK   11  A    between atoms: N_9  and  C_12
REMARK   12  A    between atoms: C_12  and  C_13
REMARK   13  A    between atoms: N_15  and  C_16
REMARK   14  A    between atoms: C_19  and  C_20
REMARK   15  A    between atoms: C_20  and  C_22
REMARK   16  A    between atoms: C_23  and  C_24
REMARK                            x       y       z     vdW  Elec       q    Type
REMARK                         _______ _______ _______ _____ _____    ______ ____
ROOT
ATOM      1  C   UNL     1       2.226   6.864  20.079  0.00  0.00    +0.000 A 
ATOM      2  C   UNL     1       2.388   7.434  18.814  0.00  0.00    +0.000 A 
ATOM      3  C   UNL     1       1.825   8.679  18.514  0.00  0.00    +0.000 A 
ATOM      4  C   UNL     1       1.119   9.386  19.492  0.00  0.00    +0.000 A 
ATOM      5  C   UNL     1       0.946   8.812  20.759  0.00  0.00    +0.000 A 
ATOM      6  C   UNL     1       1.472   7.543  21.041  0.00  0.00    +0.000 A 
ENDROOT
BRANCH   1   9
ATOM      7  C   UNL     1       2.059   4.451  20.492  0.00  0.00    +0.000 C 
ATOM      8  O   UNL     1       0.877   4.363  20.169  0.00  0.00    +0.000 OA
ATOM      9  N   UNL     1       2.807   5.613  20.406  0.00  0.00    +0.000 N 
ATOM     10  H   UNL     1       3.812   5.527  20.317  0.00  0.00    +0.000 HD
BRANCH   7  11
ATOM     11  C   UNL     1       2.846   3.205  20.939  0.00  0.00    +0.000 C 
BRANCH  11  12
ATOM     12  N   UNL     1       3.768   2.557  19.845  0.00  0.00    +0.000 N 
ATOM     13  C   UNL     1       2.885   1.856  18.821  0.00  0.00    +0.000 C 
ATOM     14  C   UNL     1       4.719   1.539  20.498  0.00  0.00    +0.000 C 
BRANCH  12  15
ATOM     15  C   UNL     1       4.589   3.689  19.192  0.00  0.00    +0.000 C 
BRANCH  15  16
ATOM     16  C   UNL     1       4.654   3.538  17.673  0.00  0.00    +0.000 C 
BRANCH  16  17
ATOM     17  C   UNL     1       4.067   4.718  16.914  0.00  0.00    +0.000 C 
BRANCH  17  18
ATOM     18  C   UNL     1       5.053   5.115  15.814  0.00  0.00    +0.000 C 
BRANCH  18  19
ATOM     19  C   UNL     1       5.371   6.599  15.864  0.00  0.00    +0.000 C 
BRANCH  19  20
ATOM     20  C   UNL     1       5.811   7.013  17.267  0.00  0.00    +0.000 C 
BRANCH  20  22
ATOM     21  C   UNL     1       7.701   6.113  18.711  0.00  0.00    +0.000 C 
ATOM     22  C   UNL     1       7.321   6.893  17.462  0.00  0.00    +0.000 C 
ENDBRANCH  20  22
ENDBRANCH  19  20
ENDBRANCH  18  19
ENDBRANCH  17  18
ENDBRANCH  16  17
ENDBRANCH  15  16
ENDBRANCH  12  15
ENDBRANCH  11  12
ENDBRANCH   7  11
ENDBRANCH   1   9
BRANCH   4  23
ATOM     23  C   UNL     1       0.558  10.718  19.128  0.00  0.00    +0.000 C 
ATOM     24  O   UNL     1       1.172  11.458  18.370  0.00  0.00    +0.000 OA
BRANCH  23  25
ATOM     25  C   UNL     1      -0.729  11.125  19.764  0.00  0.00    +0.000 C 
ATOM     26  C   UNL     1      -0.744  11.852  20.889  0.00  0.00    +0.000 C 
BRANCH  26  27
ATOM     27  C   UNL     1      -1.994  12.229  21.573  0.00  0.00    +0.000 A 
ATOM     28  C   UNL     1      -2.136  11.991  22.943  0.00  0.00    +0.000 A 
ATOM     29  C   UNL     1      -3.318  12.341  23.606  0.00  0.00    +0.000 A 
ATOM     30  C   UNL     1      -4.370  12.928  22.905  0.00  0.00    +0.000 A 
ATOM     31  C   UNL     1      -4.242  13.147  21.537  0.00  0.00    +0.000 A 
ATOM     32 CL   UNL     1      -5.532  13.866  20.654  0.00  0.00    +0.000 Cl
ATOM     33  C   UNL     1      -3.071  12.792  20.871  0.00  0.00    +0.000 A 
ENDBRANCH  26  27
ENDBRANCH  23  25
ENDBRANCH   4  23
TORSDOF 13
ENDMDL
MODEL 2
REMARK VINA RESULT:      -7.0      1.750      2.244
REMARK  Name = 
REMARK  16 active torsions:
REMARK  status: ('A' for Active; 'I' for Inactive)
REMARK    1  A    between atoms: C_1  and  C_2
REMARK    2  A    between atoms: C_2  and  C_3
REMARK    3  A    between atoms: C_3  and  C_4
REMARK    4  A    between atoms: C_4  and  C_5
REMARK    5  A    between atoms: C_5  and  C_6
REMARK    6  A    between atoms: C_6  and  C_7
REMARK    7  A    between atoms: C_7  and  C_8
REMARK    8  A    between atoms: C_8  and  N_9
REMARK    9  A    between atoms: N_9  and  C_10
REMARK   10  A    between atoms: N_9  and  C_11
REMARK   11  A    between atoms: N_9  and  C_12
REMARK   12  A    between atoms: C_12  and  C_13
REMARK   13  A    between atoms: N_15  and  C_16
REMARK   14  A    between atoms: C_19  and  C_20
REMARK   15  A    between atoms: C_20  and  C_22
REMARK   16  A    between atoms: C_23  and  C_24
REMARK                            x       y       z     vdW  Elec       q    Type
REMARK                         _______ _______ _______ _____ _____    ______ ____
ROOT
ATOM      1  C   UNL     1       1.992   7.664  19.857  0.00  0.00    +0.000 A 
ATOM      2  C   UNL     1       1.882   8.292  18.613  0.00  0.00    +0.000 A 
ATOM      3  C   UNL     1       1.250   9.535  18.494  0.00  0.00    +0.000 A 
ATOM      4  C   UNL     1       0.751  10.181  19.629  0.00  0.00    +0.000 A 
ATOM      5  C   UNL     1       0.851   9.549  20.876  0.00  0.00    +0.000 A 
ATOM      6  C   UNL     1       1.444   8.282  20.983  0.00  0.00    +0.000 A 
ENDROOT
BRANCH   1   9
ATOM      7  C   UNL     1       1.972   5.265  20.369  0.00  0.00    +0.000 C 
ATOM      8  O   UNL     1       0.751   5.183  20.475  0.00  0.00    +0.000 OA
ATOM      9  N   UNL     1       2.647   6.415  19.998  0.00  0.00    +0.000 N 
ATOM     10  H   UNL     1       3.559   6.314  19.569  0.00  0.00    +0.000 HD
BRANCH   7  11
ATOM     11  C   UNL     1       2.862   4.021  20.552  0.00  0.00    +0.000 C 
BRANCH  11  12
ATOM     12  N   UNL     1       2.786   2.957  19.398  0.00  0.00    +0.000 N 
ATOM     13  C   UNL     1       1.591   2.049  19.654  0.00  0.00    +0.000 C 
ATOM     14  C   UNL     1       4.079   2.124  19.369  0.00  0.00    +0.000 C 
BRANCH  12  15
ATOM     15  C   UNL     1       2.631   3.721  18.066  0.00  0.00    +0.000 C 
BRANCH  15  16
ATOM     16  C   UNL     1       3.823   3.490  17.139  0.00  0.00    +0.000 C 
BRANCH  16  17
ATOM     17  C   UNL     1       4.636   4.745  16.859  0.00  0.00    +0.000 C 
BRANCH  17  18
ATOM     18  C   UNL     1       5.927   4.329  16.153  0.00  0.00    +0.000 C 
BRANCH  18  19
ATOM     19  C   UNL     1       6.896   5.493  16.039  0.00  0.00    +0.000 C 
BRANCH  19  20
ATOM     20  C   UNL     1       6.510   6.617  16.999  0.00  0.00    +0.000 C 
BRANCH  20  22
ATOM     21  C   UNL     1       7.984   8.523  17.815  0.00  0.00    +0.000 C 
ATOM     22  C   UNL     1       7.671   7.037  17.899  0.00  0.00    +0.000 C 
ENDBRANCH  20  22
ENDBRANCH  19  20
ENDBRANCH  18  19
ENDBRANCH  17  18
ENDBRANCH  16  17
ENDBRANCH  15  16
ENDBRANCH  12  15
ENDBRANCH  11  12
ENDBRANCH   7  11
ENDBRANCH   1   9
BRANCH   4  23
ATOM     23  C   UNL     1       0.106  11.514  19.451  0.00  0.00    +0.000 C 
ATOM     24  O   UNL     1       0.792  12.503  19.227  0.00  0.00    +0.000 OA
BRANCH  23  25
ATOM     25  C   UNL     1      -1.374  11.594  19.615  0.00  0.00    +0.000 C 
ATOM     26  C   UNL     1      -2.189  11.566  18.552  0.00  0.00    +0.000 C 
BRANCH  26  27
ATOM     27  C   UNL     1      -3.652  11.692  18.670  0.00  0.00    +0.000 A 
ATOM     28  C   UNL     1      -4.482  11.071  17.731  0.00  0.00    +0.000 A 
ATOM     29  C   UNL     1      -5.874  11.185  17.828  0.00  0.00    +0.000 A 
ATOM     30  C   UNL     1      -6.448  11.926  18.860  0.00  0.00    +0.000 A 
ATOM     31  C   UNL     1      -5.626  12.565  19.783  0.00  0.00    +0.000 A 
ATOM     32 CL   UNL     1      -6.318  13.487  21.061  0.00  0.00    +0.000 Cl
ATOM     33  C   UNL     1      -4.240  12.462  19.686  0.00  0.00    +0.000 A 
ENDBRANCH  26  27
ENDBRANCH  23  25
ENDBRANCH   4  23
TORSDOF 13
ENDMDL
MODEL 3
REMARK VINA RESULT:      -7.0      2.554      3.753
REMARK  Name = 
REMARK  16 active torsions:
REMARK  status: ('A' for Active; 'I' for Inactive)
REMARK    1  A    between atoms: C_1  and  C_2
REMARK    2  A    between atoms: C_2  and  C_3
REMARK    3  A    between atoms: C_3  and  C_4
REMARK    4  A    between atoms: C_4  and  C_5
REMARK    5  A    between atoms: C_5  and  C_6
REMARK    6  A    between atoms: C_6  and  C_7
REMARK    7  A    between atoms: C_7  and  C_8
REMARK    8  A    between atoms: C_8  and  N_9
REMARK    9  A    between atoms: N_9  and  C_10
REMARK   10  A    between atoms: N_9  and  C_11
REMARK   11  A    between atoms: N_9  and  C_12
REMARK   12  A    between atoms: C_12  and  C_13
REMARK   13  A    between atoms: N_15  and  C_16
REMARK   14  A    between atoms: C_19  and  C_20
REMARK   15  A    between atoms: C_20  and  C_22
REMARK   16  A    between atoms: C_23  and  C_24
REMARK                            x       y       z     vdW  Elec       q    Type
REMARK                         _______ _______ _______ _____ _____    ______ ____
ROOT
ATOM      1  C   UNL     1       2.147   6.945  20.167  0.00  0.00    +0.000 A 
ATOM      2  C   UNL     1       1.512   7.465  21.299  0.00  0.00    +0.000 A 
ATOM      3  C   UNL     1       0.948   8.745  21.278  0.00  0.00    +0.000 A 
ATOM      4  C   UNL     1       0.983   9.509  20.107  0.00  0.00    +0.000 A 
ATOM      5  C   UNL     1       1.628   8.995  18.974  0.00  0.00    +0.000 A 
ATOM      6  C   UNL     1       2.232   7.729  19.014  0.00  0.00    +0.000 A 
ENDROOT
BRANCH   1   9
ATOM      7  C   UNL     1       1.921   4.502  20.106  0.00  0.00    +0.000 C 
ATOM      8  O   UNL     1       0.707   4.506  19.915  0.00  0.00    +0.000 OA
ATOM      9  N   UNL     1       2.705   5.642  20.166  0.00  0.00    +0.000 N 
ATOM     10  H   UNL     1       3.689   5.555  19.941  0.00  0.00    +0.000 HD
BRANCH   7  11
ATOM     11  C   UNL     1       2.697   3.176  20.197  0.00  0.00    +0.000 C 
BRANCH  11  12
ATOM     12  N   UNL     1       3.660   2.869  18.994  0.00  0.00    +0.000 N 
ATOM     13  C   UNL     1       3.603   1.377  18.696  0.00  0.00    +0.000 C 
ATOM     14  C   UNL     1       5.099   3.274  19.360  0.00  0.00    +0.000 C 
BRANCH  12  15
ATOM     15  C   UNL     1       3.179   3.699  17.785  0.00  0.00    +0.000 C 
BRANCH  15  16
ATOM     16  C   UNL     1       4.298   4.567  17.213  0.00  0.00    +0.000 C 
BRANCH  16  17
ATOM     17  C   UNL     1       4.649   4.241  15.769  0.00  0.00    +0.000 C 
BRANCH  17  18
ATOM     18  C   UNL     1       6.169   4.097  15.668  0.00  0.00    +0.000 C 
BRANCH  18  19
ATOM     19  C   UNL     1       6.635   4.139  14.224  0.00  0.00    +0.000 C 
BRANCH  19  20
ATOM     20  C   UNL     1       5.443   4.130  13.268  0.00  0.00    +0.000 C 
BRANCH  20  22
ATOM     21  C   UNL     1       7.043   3.018  11.634  0.00  0.00    +0.000 C 
ATOM     22  C   UNL     1       5.612   3.116  12.139  0.00  0.00    +0.000 C 
ENDBRANCH  20  22
ENDBRANCH  19  20
ENDBRANCH  18  19
ENDBRANCH  17  18
ENDBRANCH  16  17
ENDBRANCH  15  16
ENDBRANCH  12  15
ENDBRANCH  11  12
ENDBRANCH   7  11
ENDBRANCH   1   9
BRANCH   4  23
ATOM     23  C   UNL     1       0.349  10.858  20.130  0.00  0.00    +0.000 C 
ATOM     24  O   UNL     1       0.610  11.645  21.031  0.00  0.00    +0.000 OA
BRANCH  23  25
ATOM     25  C   UNL     1      -0.643  11.174  19.062  0.00  0.00    +0.000 C 
ATOM     26  C   UNL     1      -1.545  10.267  18.666  0.00  0.00    +0.000 C 
BRANCH  26  27
ATOM     27  C   UNL     1      -2.508  10.525  17.580  0.00  0.00    +0.000 A 
ATOM     28  C   UNL     1      -2.299   9.963  16.317  0.00  0.00    +0.000 A 
ATOM     29  C   UNL     1      -3.202  10.202  15.275  0.00  0.00    +0.000 A 
ATOM     30  C   UNL     1      -4.319  11.010  15.484  0.00  0.00    +0.000 A 
ATOM     31  C   UNL     1      -4.519  11.590  16.733  0.00  0.00    +0.000 A 
ATOM     32 CL   UNL     1      -5.889  12.595  17.008  0.00  0.00    +0.000 Cl
ATOM     33  C   UNL     1      -3.618  11.363  17.771  0.00  0.00    +0.000 A 
ENDBRANCH  26  27
ENDBRANCH  23  25
ENDBRANCH   4  23
TORSDOF 13
ENDMDL
MODEL 4
REMARK VINA RESULT:      -7.0      2.103      3.150
REMARK  Name = 
REMARK  16 active torsions:
REMARK  status: ('A' for Active; 'I' for Inactive)
REMARK    1  A    between atoms: C_1  and  C_2
REMARK    2  A    between atoms: C_2  and  C_3
REMARK    3  A    between atoms: C_3  and  C_4
REMARK    4  A    between atoms: C_4  and  C_5
REMARK    5  A    between atoms: C_5  and  C_6
REMARK    6  A    between atoms: C_6  and  C_7
REMARK    7  A    between atoms: C_7  and  C_8
REMARK    8  A    between atoms: C_8  and  N_9
REMARK    9  A    between atoms: N_9  and  C_10
REMARK   10  A    between atoms: N_9  and  C_11
REMARK   11  A    between atoms: N_9  and  C_12
REMARK   12  A    between atoms: C_12  and  C_13
REMARK   13  A    between atoms: N_15  and  C_16
REMARK   14  A    between atoms: C_19  and  C_20
REMARK   15  A    between atoms: C_20  and  C_22
REMARK   16  A    between atoms: C_23  and  C_24
REMARK                            x       y       z     vdW  Elec       q    Type
REMARK                         _______ _______ _______ _____ _____    ______ ____
ROOT
ATOM      1  C   UNL     1       2.125   7.320  19.916  0.00  0.00    +0.000 A 
ATOM      2  C   UNL     1       1.487   8.099  20.886  0.00  0.00    +0.000 A 
ATOM      3  C   UNL     1       0.949   9.348  20.558  0.00  0.00    +0.000 A 
ATOM      4  C   UNL     1       1.014   9.819  19.243  0.00  0.00    +0.000 A 
ATOM      5  C   UNL     1       1.663   9.046  18.271  0.00  0.00    +0.000 A 
ATOM      6  C   UNL     1       2.242   7.815  18.614  0.00  0.00    +0.000 A 
ENDROOT
BRANCH   1   9
ATOM      7  C   UNL     1       1.850   4.944  20.461  0.00  0.00    +0.000 C 
ATOM      8  O   UNL     1       0.633   4.931  20.293  0.00  0.00    +0.000 OA
ATOM      9  N   UNL     1       2.657   6.044  20.226  0.00  0.00    +0.000 N 
ATOM     10  H   UNL     1       3.634   5.881  20.015  0.00  0.00    +0.000 HD
BRANCH   7  11
ATOM     11  C   UNL     1       2.601   3.661  20.863  0.00  0.00    +0.000 C 
BRANCH  11  12
ATOM     12  N   UNL     1       3.435   2.977  19.721  0.00  0.00    +0.000 N 
ATOM     13  C   UNL     1       2.480   2.209  18.818  0.00  0.00    +0.000 C 
ATOM     14  C   UNL     1       4.465   2.012  20.332  0.00  0.00    +0.000 C 
BRANCH  12  15
ATOM     15  C   UNL     1       4.165   4.091  18.942  0.00  0.00    +0.000 C 
BRANCH  15  16
ATOM     16  C   UNL     1       4.669   3.597  17.587  0.00  0.00    +0.000 C 
BRANCH  16  17
ATOM     17  C   UNL     1       4.579   4.638  16.481  0.00  0.00    +0.000 C 
BRANCH  17  18
ATOM     18  C   UNL     1       5.982   4.848  15.908  0.00  0.00    +0.000 C 
BRANCH  18  19
ATOM     19  C   UNL     1       6.323   3.785  14.879  0.00  0.00    +0.000 C 
BRANCH  19  20
ATOM     20  C   UNL     1       5.560   4.024  13.576  0.00  0.00    +0.000 C 
BRANCH  20  22
ATOM     21  C   UNL     1       5.475   2.414  11.609  0.00  0.00    +0.000 C 
ATOM     22  C   UNL     1       6.291   3.454  12.363  0.00  0.00    +0.000 C 
ENDBRANCH  20  22
ENDBRANCH  19  20
ENDBRANCH  18  19
ENDBRANCH  17  18
ENDBRANCH  16  17
ENDBRANCH  15  16
ENDBRANCH  12  15
ENDBRANCH  11  12
ENDBRANCH   7  11
ENDBRANCH   1   9
BRANCH   4  23
ATOM     23  C   UNL     1       0.407  11.147  18.942  0.00  0.00    +0.000 C 
ATOM     24  O   UNL     1       1.035  12.175  19.160  0.00  0.00    +0.000 OA
BRANCH  23  25
ATOM     25  C   UNL     1      -0.994  11.167  18.430  0.00  0.00    +0.000 C 
ATOM     26  C   UNL     1      -1.973  11.770  19.118  0.00  0.00    +0.000 C 
BRANCH  26  27
ATOM     27  C   UNL     1      -3.376  11.768  18.669  0.00  0.00    +0.000 A 
ATOM     28  C   UNL     1      -3.689  11.376  17.364  0.00  0.00    +0.000 A 
ATOM     29  C   UNL     1      -5.017  11.371  16.922  0.00  0.00    +0.000 A 
ATOM     30  C   UNL     1      -6.044  11.764  17.779  0.00  0.00    +0.000 A 
ATOM     31  C   UNL     1      -5.736  12.177  19.072  0.00  0.00    +0.000 A 
ATOM     32 CL   UNL     1      -6.991  12.670  20.142  0.00  0.00    +0.000 Cl
ATOM     33  C   UNL     1      -4.415  12.191  19.513  0.00  0.00    +0.000 A 
ENDBRANCH  26  27
ENDBRANCH  23  25
ENDBRANCH   4  23
TORSDOF 13
ENDMDL
MODEL 5
REMARK VINA RESULT:      -6.9      3.422      4.849
REMARK  Name = 
REMARK  16 active torsions:
REMARK  status: ('A' for Active; 'I' for Inactive)
REMARK    1  A    between atoms: C_1  and  C_2
REMARK    2  A    between atoms: C_2  and  C_3
REMARK    3  A    between atoms: C_3  and  C_4
REMARK    4  A    between atoms: C_4  and  C_5
REMARK    5  A    between atoms: C_5  and  C_6
REMARK    6  A    between atoms: C_6  and  C_7
REMARK    7  A    between atoms: C_7  and  C_8
REMARK    8  A    between atoms: C_8  and  N_9
REMARK    9  A    between atoms: N_9  and  C_10
REMARK   10  A    between atoms: N_9  and  C_11
REMARK   11  A    between atoms: N_9  and  C_12
REMARK   12  A    between atoms: C_12  and  C_13
REMARK   13  A    between atoms: N_15  and  C_16
REMARK   14  A    between atoms: C_19  and  C_20
REMARK   15  A    between atoms: C_20  and  C_22
REMARK   16  A    between atoms: C_23  and  C_24
REMARK                            x       y       z     vdW  Elec       q    Type
REMARK                         _______ _______ _______ _____ _____    ______ ____
ROOT
ATOM      1  C   UNL     1       2.754   7.057  18.472  0.00  0.00    +0.000 A 
ATOM      2  C   UNL     1       2.474   8.235  17.774  0.00  0.00    +0.000 A 
ATOM      3  C   UNL     1       1.764   9.275  18.382  0.00  0.00    +0.000 A 
ATOM      4  C   UNL     1       1.353   9.161  19.714  0.00  0.00    +0.000 A 
ATOM      5  C   UNL     1       1.623   7.977  20.414  0.00  0.00    +0.000 A 
ATOM      6  C   UNL     1       2.295   6.918  19.785  0.00  0.00    +0.000 A 
ENDROOT
BRANCH   1   9
ATOM      7  C   UNL     1       4.507   5.342  18.545  0.00  0.00    +0.000 C 
ATOM      8  O   UNL     1       4.775   5.506  19.733  0.00  0.00    +0.000 OA
ATOM      9  N   UNL     1       3.490   6.002  17.877  0.00  0.00    +0.000 N 
ATOM     10  H   UNL     1       3.091   5.557  17.059  0.00  0.00    +0.000 HD
BRANCH   7  11
ATOM     11  C   UNL     1       5.249   4.280  17.712  0.00  0.00    +0.000 C 
BRANCH  11  12
ATOM     12  N   UNL     1       6.437   4.815  16.835  0.00  0.00    +0.000 N 
ATOM     13  C   UNL     1       7.744   4.516  17.556  0.00  0.00    +0.000 C 
ATOM     14  C   UNL     1       6.291   6.332  16.626  0.00  0.00    +0.000 C 
BRANCH  12  15
ATOM     15  C   UNL     1       6.374   4.094  15.472  0.00  0.00    +0.000 C 
BRANCH  15  16
ATOM     16  C   UNL     1       7.382   4.672  14.479  0.00  0.00    +0.000 C 
BRANCH  16  17
ATOM     17  C   UNL     1       6.830   4.839  13.072  0.00  0.00    +0.000 C 
BRANCH  17  18
ATOM     18  C   UNL     1       6.245   3.496  12.627  0.00  0.00    +0.000 C 
BRANCH  18  19
ATOM     19  C   UNL     1       5.319   3.663  11.436  0.00  0.00    +0.000 C 
BRANCH  19  20
ATOM     20  C   UNL     1       4.139   2.696  11.525  0.00  0.00    +0.000 C 
BRANCH  20  22
ATOM     21  C   UNL     1       3.291   4.338   9.778  0.00  0.00    +0.000 C 
ATOM     22  C   UNL     1       3.017   3.059  10.555  0.00  0.00    +0.000 C 
ENDBRANCH  20  22
ENDBRANCH  19  20
ENDBRANCH  18  19
ENDBRANCH  17  18
ENDBRANCH  16  17
ENDBRANCH  15  16
ENDBRANCH  12  15
ENDBRANCH  11  12
ENDBRANCH   7  11
ENDBRANCH   1   9
BRANCH   4  23
ATOM     23  C   UNL     1       0.619  10.307  20.323  0.00  0.00    +0.000 C 
ATOM     24  O   UNL     1       1.019  10.809  21.365  0.00  0.00    +0.000 OA
BRANCH  23  25
ATOM     25  C   UNL     1      -0.632  10.763  19.650  0.00  0.00    +0.000 C 
ATOM     26  C   UNL     1      -1.088  10.149  18.550  0.00  0.00    +0.000 C 
BRANCH  26  27
ATOM     27  C   UNL     1      -2.291  10.601  17.829  0.00  0.00    +0.000 A 
ATOM     28  C   UNL     1      -3.215  11.432  18.471  0.00  0.00    +0.000 A 
ATOM     29  C   UNL     1      -4.364  11.867  17.801  0.00  0.00    +0.000 A 
ATOM     30  C   UNL     1      -4.603  11.472  16.485  0.00  0.00    +0.000 A 
ATOM     31  C   UNL     1      -3.698  10.627  15.850  0.00  0.00    +0.000 A 
ATOM     32 CL   UNL     1      -3.979  10.125  14.228  0.00  0.00    +0.000 Cl
ATOM     33  C   UNL     1      -2.558  10.184  16.516  0.00  0.00    +0.000 A 
ENDBRANCH  26  27
ENDBRANCH  23  25
ENDBRANCH   4  23
TORSDOF 13
ENDMDL
MODEL 6
REMARK VINA RESULT:      -6.9      3.057      3.962
REMARK  Name = 
REMARK  16 active torsions:
REMARK  status: ('A' for Active; 'I' for Inactive)
REMARK    1  A    between atoms: C_1  and  C_2
REMARK    2  A    between atoms: C_2  and  C_3
REMARK    3  A    between atoms: C_3  and  C_4
REMARK    4  A    between atoms: C_4  and  C_5
REMARK    5  A    between atoms: C_5  and  C_6
REMARK    6  A    between atoms: C_6  and  C_7
REMARK    7  A    between atoms: C_7  and  C_8
REMARK    8  A    between atoms: C_8  and  N_9
REMARK    9  A    between atoms: N_9  and  C_10
REMARK   10  A    between atoms: N_9  and  C_11
REMARK   11  A    between atoms: N_9  and  C_12
REMARK   12  A    between atoms: C_12  and  C_13
REMARK   13  A    between atoms: N_15  and  C_16
REMARK   14  A    between atoms: C_19  and  C_20
REMARK   15  A    between atoms: C_20  and  C_22
REMARK   16  A    between atoms: C_23  and  C_24
REMARK                            x       y       z     vdW  Elec       q    Type
REMARK                         _______ _______ _______ _____ _____    ______ ____
ROOT
ATOM      1  C   UNL     1       1.956   7.785  19.948  0.00  0.00    +0.000 A 
ATOM      2  C   UNL     1       1.830   8.580  18.805  0.00  0.00    +0.000 A 
ATOM      3  C   UNL     1       1.128   9.790  18.850  0.00  0.00    +0.000 A 
ATOM      4  C   UNL     1       0.572  10.236  20.052  0.00  0.00    +0.000 A 
ATOM      5  C   UNL     1       0.687   9.436  21.198  0.00  0.00    +0.000 A 
ATOM      6  C   UNL     1       1.351   8.202  21.137  0.00  0.00    +0.000 A 
ENDROOT
BRANCH   1   9
ATOM      7  C   UNL     1       2.118   5.365  20.316  0.00  0.00    +0.000 C 
ATOM      8  O   UNL     1       0.928   5.212  20.582  0.00  0.00    +0.000 OA
ATOM      9  N   UNL     1       2.681   6.568  19.925  0.00  0.00    +0.000 N 
ATOM     10  H   UNL     1       3.529   6.539  19.371  0.00  0.00    +0.000 HD
BRANCH   7  11
ATOM     11  C   UNL     1       3.081   4.163  20.303  0.00  0.00    +0.000 C 
BRANCH  11  12
ATOM     12  N   UNL     1       2.745   3.037  19.260  0.00  0.00    +0.000 N 
ATOM     13  C   UNL     1       1.474   2.327  19.706  0.00  0.00    +0.000 C 
ATOM     14  C   UNL     1       3.907   2.031  19.185  0.00  0.00    +0.000 C 
BRANCH  12  15
ATOM     15  C   UNL     1       2.554   3.713  17.885  0.00  0.00    +0.000 C 
BRANCH  15  16
ATOM     16  C   UNL     1       3.770   3.513  16.983  0.00  0.00    +0.000 C 
BRANCH  16  17
ATOM     17  C   UNL     1       4.623   4.763  16.818  0.00  0.00    +0.000 C 
BRANCH  17  18
ATOM     18  C   UNL     1       5.924   4.363  16.120  0.00  0.00    +0.000 C 
BRANCH  18  19
ATOM     19  C   UNL     1       6.879   5.539  16.011  0.00  0.00    +0.000 C 
BRANCH  19  20
ATOM     20  C   UNL     1       6.466   6.663  16.961  0.00  0.00    +0.000 C 
BRANCH  20  22
ATOM     21  C   UNL     1       7.910   6.111  18.980  0.00  0.00    +0.000 C 
ATOM     22  C   UNL     1       7.612   7.105  17.868  0.00  0.00    +0.000 C 
ENDBRANCH  20  22
ENDBRANCH  19  20
ENDBRANCH  18  19
ENDBRANCH  17  18
ENDBRANCH  16  17
ENDBRANCH  15  16
ENDBRANCH  12  15
ENDBRANCH  11  12
ENDBRANCH   7  11
ENDBRANCH   1   9
BRANCH   4  23
ATOM     23  C   UNL     1      -0.147  11.542  20.051  0.00  0.00    +0.000 C 
ATOM     24  O   UNL     1      -1.190  11.670  20.681  0.00  0.00    +0.000 OA
BRANCH  23  25
ATOM     25  C   UNL     1       0.418  12.642  19.218  0.00  0.00    +0.000 C 
ATOM     26  C   UNL     1       1.425  13.402  19.669  0.00  0.00    +0.000 C 
BRANCH  26  27
ATOM     27  C   UNL     1       1.977  14.529  18.896  0.00  0.00    +0.000 A 
ATOM     28  C   UNL     1       3.195  14.383  18.226  0.00  0.00    +0.000 A 
ATOM     29  C   UNL     1       3.734  15.445  17.490  0.00  0.00    +0.000 A 
ATOM     30  C   UNL     1       3.062  16.665  17.423  0.00  0.00    +0.000 A 
ATOM     31  C   UNL     1       1.861  16.823  18.107  0.00  0.00    +0.000 A 
ATOM     32 CL   UNL     1       1.021  18.324  18.040  0.00  0.00    +0.000 Cl
ATOM     33  C   UNL     1       1.326  15.771  18.848  0.00  0.00    +0.000 A 
ENDBRANCH  26  27
ENDBRANCH  23  25
ENDBRANCH   4  23
TORSDOF 13
ENDMDL
MODEL 7
REMARK VINA RESULT:      -6.9      3.354      4.393
REMARK  Name = 
REMARK  16 active torsions:
REMARK  status: ('A' for Active; 'I' for Inactive)
REMARK    1  A    between atoms: C_1  and  C_2
REMARK    2  A    between atoms: C_2  and  C_3
REMARK    3  A    between atoms: C_3  and  C_4
REMARK    4  A    between atoms: C_4  and  C_5
REMARK    5  A    between atoms: C_5  and  C_6
REMARK    6  A    between atoms: C_6  and  C_7
REMARK    7  A    between atoms: C_7  and  C_8
REMARK    8  A    between atoms: C_8  and  N_9
REMARK    9  A    between atoms: N_9  and  C_10
REMARK   10  A    between atoms: N_9  and  C_11
REMARK   11  A    between atoms: N_9  and  C_12
REMARK   12  A    between atoms: C_12  and  C_13
REMARK   13  A    between atoms: N_15  and  C_16
REMARK   14  A    between atoms: C_19  and  C_20
REMARK   15  A    between atoms: C_20  and  C_22
REMARK   16  A    between atoms: C_23  and  C_24
REMARK                            x       y       z     vdW  Elec       q    Type
REMARK                         _______ _______ _______ _____ _____    ______ ____
ROOT
ATOM      1  C   UNL     1       2.163   7.150  19.820  0.00  0.00    +0.000 A 
ATOM      2  C   UNL     1       1.445   7.868  20.780  0.00  0.00    +0.000 A 
ATOM      3  C   UNL     1       0.921   9.131  20.484  0.00  0.00    +0.000 A 
ATOM      4  C   UNL     1       1.082   9.677  19.207  0.00  0.00    +0.000 A 
ATOM      5  C   UNL     1       1.811   8.964  18.245  0.00  0.00    +0.000 A 
ATOM      6  C   UNL     1       2.374   7.719  18.561  0.00  0.00    +0.000 A 
ENDROOT
BRANCH   1   9
ATOM      7  C   UNL     1       2.170   4.716  19.512  0.00  0.00    +0.000 C 
ATOM      8  O   UNL     1       1.330   4.714  18.616  0.00  0.00    +0.000 OA
ATOM      9  N   UNL     1       2.683   5.861  20.097  0.00  0.00    +0.000 N 
ATOM     10  H   UNL     1       3.602   5.809  20.521  0.00  0.00    +0.000 HD
BRANCH   7  11
ATOM     11  C   UNL     1       2.807   3.400  19.995  0.00  0.00    +0.000 C 
BRANCH  11  12
ATOM     12  N   UNL     1       4.178   3.024  19.328  0.00  0.00    +0.000 N 
ATOM     13  C   UNL     1       4.769   1.833  20.071  0.00  0.00    +0.000 C 
ATOM     14  C   UNL     1       5.143   4.220  19.408  0.00  0.00    +0.000 C 
BRANCH  12  15
ATOM     15  C   UNL     1       3.901   2.679  17.850  0.00  0.00    +0.000 C 
BRANCH  15  16
ATOM     16  C   UNL     1       4.204   3.858  16.927  0.00  0.00    +0.000 C 
BRANCH  16  17
ATOM     17  C   UNL     1       5.412   3.639  16.028  0.00  0.00    +0.000 C 
BRANCH  17  18
ATOM     18  C   UNL     1       6.098   4.990  15.814  0.00  0.00    +0.000 C 
BRANCH  18  19
ATOM     19  C   UNL     1       5.138   6.142  16.051  0.00  0.00    +0.000 C 
BRANCH  19  20
ATOM     20  C   UNL     1       5.730   7.148  17.037  0.00  0.00    +0.000 C 
BRANCH  20  22
ATOM     21  C   UNL     1       7.968   8.093  17.790  0.00  0.00    +0.000 C 
ATOM     22  C   UNL     1       7.196   6.858  17.352  0.00  0.00    +0.000 C 
ENDBRANCH  20  22
ENDBRANCH  19  20
ENDBRANCH  18  19
ENDBRANCH  17  18
ENDBRANCH  16  17
ENDBRANCH  15  16
ENDBRANCH  12  15
ENDBRANCH  11  12
ENDBRANCH   7  11
ENDBRANCH   1   9
BRANCH   4  23
ATOM     23  C   UNL     1       0.486  11.016  18.935  0.00  0.00    +0.000 C 
ATOM     24  O   UNL     1      -0.730  11.159  18.938  0.00  0.00    +0.000 OA
BRANCH  23  25
ATOM     25  C   UNL     1       1.417  12.135  18.609  0.00  0.00    +0.000 C 
ATOM     26  C   UNL     1       1.179  13.380  19.044  0.00  0.00    +0.000 C 
BRANCH  26  27
ATOM     27  C   UNL     1       2.049  14.520  18.701  0.00  0.00    +0.000 A 
ATOM     28  C   UNL     1       1.513  15.809  18.642  0.00  0.00    +0.000 A 
ATOM     29  C   UNL     1       2.325  16.901  18.314  0.00  0.00    +0.000 A 
ATOM     30  C   UNL     1       3.679  16.713  18.037  0.00  0.00    +0.000 A 
ATOM     31  C   UNL     1       4.211  15.428  18.073  0.00  0.00    +0.000 A 
ATOM     32 CL   UNL     1       5.879  15.176  17.729  0.00  0.00    +0.000 Cl
ATOM     33  C   UNL     1       3.405  14.337  18.389  0.00  0.00    +0.000 A 
ENDBRANCH  26  27
ENDBRANCH  23  25
ENDBRANCH   4  23
TORSDOF 13
ENDMDL
MODEL 8
REMARK VINA RESULT:      -6.8      2.182      3.104
REMARK  Name = 
REMARK  16 active torsions:
REMARK  status: ('A' for Active; 'I' for Inactive)
REMARK    1  A    between atoms: C_1  and  C_2
REMARK    2  A    between atoms: C_2  and  C_3
REMARK    3  A    between atoms: C_3  and  C_4
REMARK    4  A    between atoms: C_4  and  C_5
REMARK    5  A    between atoms: C_5  and  C_6
REMARK    6  A    between atoms: C_6  and  C_7
REMARK    7  A    between atoms: C_7  and  C_8
REMARK    8  A    between atoms: C_8  and  N_9
REMARK    9  A    between atoms: N_9  and  C_10
REMARK   10  A    between atoms: N_9  and  C_11
REMARK   11  A    between atoms: N_9  and  C_12
REMARK   12  A    between atoms: C_12  and  C_13
REMARK   13  A    between atoms: N_15  and  C_16
REMARK   14  A    between atoms: C_19  and  C_20
REMARK   15  A    between atoms: C_20  and  C_22
REMARK   16  A    between atoms: C_23  and  C_24
REMARK                            x       y       z     vdW  Elec       q    Type
REMARK                         _______ _______ _______ _____ _____    ______ ____
ROOT
ATOM      1  C   UNL     1       2.147   7.121  19.845  0.00  0.00    +0.000 A 
ATOM      2  C   UNL     1       1.544   7.592  21.014  0.00  0.00    +0.000 A 
ATOM      3  C   UNL     1       1.004   8.882  21.070  0.00  0.00    +0.000 A 
ATOM      4  C   UNL     1       1.032   9.705  19.941  0.00  0.00    +0.000 A 
ATOM      5  C   UNL     1       1.646   9.239  18.770  0.00  0.00    +0.000 A 
ATOM      6  C   UNL     1       2.227   7.963  18.733  0.00  0.00    +0.000 A 
ENDROOT
BRANCH   1   9
ATOM      7  C   UNL     1       1.958   4.693  20.148  0.00  0.00    +0.000 C 
ATOM      8  O   UNL     1       0.768   4.711  20.456  0.00  0.00    +0.000 OA
ATOM      9  N   UNL     1       2.681   5.810  19.765  0.00  0.00    +0.000 N 
ATOM     10  H   UNL     1       3.495   5.672  19.179  0.00  0.00    +0.000 HD
BRANCH   7  11
ATOM     11  C   UNL     1       2.729   3.363  20.068  0.00  0.00    +0.000 C 
BRANCH  11  12
ATOM     12  N   UNL     1       2.498   2.522  18.761  0.00  0.00    +0.000 N 
ATOM     13  C   UNL     1       1.163   1.799  18.880  0.00  0.00    +0.000 C 
ATOM     14  C   UNL     1       3.633   1.499  18.591  0.00  0.00    +0.000 C 
BRANCH  12  15
ATOM     15  C   UNL     1       2.498   3.502  17.568  0.00  0.00    +0.000 C 
BRANCH  15  16
ATOM     16  C   UNL     1       3.858   3.547  16.874  0.00  0.00    +0.000 C 
BRANCH  16  17
ATOM     17  C   UNL     1       4.836   4.527  17.504  0.00  0.00    +0.000 C 
BRANCH  17  18
ATOM     18  C   UNL     1       5.188   5.587  16.458  0.00  0.00    +0.000 C 
BRANCH  18  19
ATOM     19  C   UNL     1       5.720   6.851  17.109  0.00  0.00    +0.000 C 
BRANCH  19  20
ATOM     20  C   UNL     1       7.242   6.794  17.242  0.00  0.00    +0.000 C 
BRANCH  20  22
ATOM     21  C   UNL     1       7.535   5.747  19.541  0.00  0.00    +0.000 C 
ATOM     22  C   UNL     1       7.709   5.578  18.039  0.00  0.00    +0.000 C 
ENDBRANCH  20  22
ENDBRANCH  19  20
ENDBRANCH  18  19
ENDBRANCH  17  18
ENDBRANCH  16  17
ENDBRANCH  15  16
ENDBRANCH  12  15
ENDBRANCH  11  12
ENDBRANCH   7  11
ENDBRANCH   1   9
BRANCH   4  23
ATOM     23  C   UNL     1       0.423  11.062  20.046  0.00  0.00    +0.000 C 
ATOM     24  O   UNL     1       0.833  11.856  20.883  0.00  0.00    +0.000 OA
BRANCH  23  25
ATOM     25  C   UNL     1      -0.722  11.379  19.144  0.00  0.00    +0.000 C 
ATOM     26  C   UNL     1      -1.362  10.411  18.475  0.00  0.00    +0.000 C 
BRANCH  26  27
ATOM     27  C   UNL     1      -2.465  10.690  17.538  0.00  0.00    +0.000 A 
ATOM     28  C   UNL     1      -2.388  10.234  16.218  0.00  0.00    +0.000 A 
ATOM     29  C   UNL     1      -3.425  10.493  15.315  0.00  0.00    +0.000 A 
ATOM     30  C   UNL     1      -4.546  11.216  15.721  0.00  0.00    +0.000 A 
ATOM     31  C   UNL     1      -4.618  11.691  17.027  0.00  0.00    +0.000 A 
ATOM     32 CL   UNL     1      -5.992  12.589  17.545  0.00  0.00    +0.000 Cl
ATOM     33  C   UNL     1      -3.583  11.443  17.927  0.00  0.00    +0.000 A 
ENDBRANCH  26  27
ENDBRANCH  23  25
ENDBRANCH   4  23
TORSDOF 13
ENDMDL
MODEL 9
REMARK VINA RESULT:      -6.7      2.094      3.160
REMARK  Name = 
REMARK  16 active torsions:
REMARK  status: ('A' for Active; 'I' for Inactive)
REMARK    1  A    between atoms: C_1  and  C_2
REMARK    2  A    between atoms: C_2  and  C_3
REMARK    3  A    between atoms: C_3  and  C_4
REMARK    4  A    between atoms: C_4  and  C_5
REMARK    5  A    between atoms: C_5  and  C_6
REMARK    6  A    between atoms: C_6  and  C_7
REMARK    7  A    between atoms: C_7  and  C_8
REMARK    8  A    between atoms: C_8  and  N_9
REMARK    9  A    between atoms: N_9  and  C_10
REMARK   10  A    between atoms: N_9  and  C_11
REMARK   11  A    between atoms: N_9  and  C_12
REMARK   12  A    between atoms: C_12  and  C_13
REMARK   13  A    between atoms: N_15  and  C_16
REMARK   14  A    between atoms: C_19  and  C_20
REMARK   15  A    between atoms: C_20  and  C_22
REMARK   16  A    between atoms: C_23  and  C_24
REMARK                            x       y       z     vdW  Elec       q    Type
REMARK                         _______ _______ _______ _____ _____    ______ ____
ROOT
ATOM      1  C   UNL     1       2.501   7.373  18.656  0.00  0.00    +0.000 A 
ATOM      2  C   UNL     1       1.956   7.585  19.925  0.00  0.00    +0.000 A 
ATOM      3  C   UNL     1       1.366   8.809  20.255  0.00  0.00    +0.000 A 
ATOM      4  C   UNL     1       1.283   9.829  19.302  0.00  0.00    +0.000 A 
ATOM      5  C   UNL     1       1.838   9.624  18.031  0.00  0.00    +0.000 A 
ATOM      6  C   UNL     1       2.470   8.411  17.720  0.00  0.00    +0.000 A 
ENDROOT
BRANCH   1   9
ATOM      7  C   UNL     1       2.325   5.049  17.889  0.00  0.00    +0.000 C 
ATOM      8  O   UNL     1       1.117   5.096  17.667  0.00  0.00    +0.000 OA
ATOM      9  N   UNL     1       3.084   6.132  18.299  0.00  0.00    +0.000 N 
ATOM     10  H   UNL     1       4.075   6.124  18.091  0.00  0.00    +0.000 HD
BRANCH   7  11
ATOM     11  C   UNL     1       3.124   3.761  17.621  0.00  0.00    +0.000 C 
BRANCH  11  12
ATOM     12  N   UNL     1       3.454   2.892  18.888  0.00  0.00    +0.000 N 
ATOM     13  C   UNL     1       3.645   1.447  18.447  0.00  0.00    +0.000 C 
ATOM     14  C   UNL     1       2.298   2.981  19.898  0.00  0.00    +0.000 C 
BRANCH  12  15
ATOM     15  C   UNL     1       4.743   3.457  19.521  0.00  0.00    +0.000 C 
BRANCH  15  16
ATOM     16  C   UNL     1       5.612   4.175  18.490  0.00  0.00    +0.000 C 
BRANCH  16  17
ATOM     17  C   UNL     1       6.524   5.235  19.089  0.00  0.00    +0.000 C 
BRANCH  17  18
ATOM     18  C   UNL     1       6.913   6.212  17.978  0.00  0.00    +0.000 C 
BRANCH  18  19
ATOM     19  C   UNL     1       6.317   5.799  16.644  0.00  0.00    +0.000 C 
BRANCH  19  20
ATOM     20  C   UNL     1       7.396   5.241  15.716  0.00  0.00    +0.000 C 
BRANCH  20  22
ATOM     21  C   UNL     1       5.287   4.380  14.585  0.00  0.00    +0.000 C 
ATOM     22  C   UNL     1       6.806   4.457  14.546  0.00  0.00    +0.000 C 
ENDBRANCH  20  22
ENDBRANCH  19  20
ENDBRANCH  18  19
ENDBRANCH  17  18
ENDBRANCH  16  17
ENDBRANCH  15  16
ENDBRANCH  12  15
ENDBRANCH  11  12
ENDBRANCH   7  11
ENDBRANCH   1   9
BRANCH   4  23
ATOM     23  C   UNL     1       0.624  11.107  19.697  0.00  0.00    +0.000 C 
ATOM     24  O   UNL     1       1.065  11.762  20.633  0.00  0.00    +0.000 OA
BRANCH  23  25
ATOM     25  C   UNL     1      -0.604  11.511  18.953  0.00  0.00    +0.000 C 
ATOM     26  C   UNL     1      -1.763  10.864  19.130  0.00  0.00    +0.000 C 
BRANCH  26  27
ATOM     27  C   UNL     1      -2.984  11.202  18.378  0.00  0.00    +0.000 A 
ATOM     28  C   UNL     1      -3.096  10.837  17.033  0.00  0.00    +0.000 A 
ATOM     29  C   UNL     1      -4.248  11.154  16.304  0.00  0.00    +0.000 A 
ATOM     30  C   UNL     1      -5.297  11.843  16.911  0.00  0.00    +0.000 A 
ATOM     31  C   UNL     1      -5.181  12.229  18.243  0.00  0.00    +0.000 A 
ATOM     32 CL   UNL     1      -6.463  13.085  19.008  0.00  0.00    +0.000 Cl
ATOM     33  C   UNL     1      -4.032  11.924  18.970  0.00  0.00    +0.000 A 
ENDBRANCH  26  27
ENDBRANCH  23  25
ENDBRANCH   4  23
TORSDOF 13
ENDMDL
