MODEL 1
REMARK VINA RESULT:      -7.4      0.000      0.000
REMARK  Name = 
REMARK  4 active torsions:
REMARK  status: ('A' for Active; 'I' for Inactive)
REMARK    1  A    between atoms: C_1  and  C_2
REMARK    2  A    between atoms: C_2  and  C_3
REMARK    3  A    between atoms: N_14  and  C_15
REMARK    4  A    between atoms: C_20  and  N_21
REMARK                            x       y       z     vdW  Elec       q    Type
REMARK                         _______ _______ _______ _____ _____    ______ ____
ROOT
ATOM      1  C   UNL     1       0.846   9.108  23.018  0.00  0.00    +0.000 C 
ATOM      2  C   UNL     1       0.580   9.279  21.507  0.00  0.00    +0.000 C 
ATOM      3  C   UNL     1      -0.328   8.110  21.059  0.00  0.00    +0.000 C 
ATOM      4  C   UNL     1      -0.205  10.611  21.303  0.00  0.00    +0.000 C 
ATOM      5  C   UNL     1       0.391  11.572  20.339  0.00  0.00    +0.000 A 
ATOM      6  N   UNL     1       0.291  12.926  20.501  0.00  0.00    +0.000 N 
ATOM      7  N   UNL     1       0.866  13.627  19.513  0.00  0.00    +0.000 NA
ATOM      8  C   UNL     1       1.335  12.687  18.692  0.00  0.00    +0.000 A 
ATOM      9  C   UNL     1       1.076  11.377  19.156  0.00  0.00    +0.000 A 
ATOM     10  C   UNL     1       1.404  10.104  18.466  0.00  0.00    +0.000 C 
ATOM     11  N   UNL     1       1.847   9.006  19.334  0.00  0.00    +0.000 N 
ATOM     12  C   UNL     1       1.964   7.775  18.684  0.00  0.00    +0.000 C 
ATOM     13  O   UNL     1       1.660   7.684  17.490  0.00  0.00    +0.000 OA
ATOM     14  N   UNL     1       2.375   6.706  19.443  0.00  0.00    +0.000 N 
ATOM     15  C   UNL     1       1.960   9.219  20.782  0.00  0.00    +0.000 C 
ATOM     16  H   UNL     1      -0.165  13.439  21.249  0.00  0.00    +0.000 HD
ATOM     17  H   UNL     1       2.058   6.719  20.395  0.00  0.00    +0.000 HD
ENDROOT
BRANCH  14  18
ATOM     18  C   UNL     1       2.515   5.397  18.893  0.00  0.00    +0.000 A 
ATOM     19  C   UNL     1       1.374   4.578  18.921  0.00  0.00    +0.000 A 
ATOM     20  C   UNL     1       1.398   3.304  18.353  0.00  0.00    +0.000 A 
ATOM     21  C   UNL     1       2.571   2.815  17.776  0.00  0.00    +0.000 A 
ATOM     22  C   UNL     1       3.717   3.609  17.762  0.00  0.00    +0.000 A 
ATOM     23  C   UNL     1       3.703   4.897  18.319  0.00  0.00    +0.000 A 
BRANCH  23  24
ATOM     24  N   UNL     1       4.943   5.601  18.377  0.00  0.00    +0.000 N 
ATOM     25  C   UNL     1       5.894   5.106  19.378  0.00  0.00    +0.000 C 
ATOM     26  C   UNL     1       7.193   5.887  19.444  0.00  0.00    +0.000 C 
ATOM     27  C   UNL     1       7.706   6.141  18.040  0.00  0.00    +0.000 C 
ATOM     28  C   UNL     1       6.697   6.970  17.273  0.00  0.00    +0.000 C 
ATOM     29  C   UNL     1       5.276   6.451  17.328  0.00  0.00    +0.000 C 
ATOM     30  O   UNL     1       4.457   6.885  16.512  0.00  0.00    +0.000 OA
ENDBRANCH  23  24
ENDBRANCH  14  18
TORSDOF 2
ENDMDL
MODEL 2
REMARK VINA RESULT:      -7.4      2.071      4.014
REMARK  Name = 
REMARK  4 active torsions:
REMARK  status: ('A' for Active; 'I' for Inactive)
REMARK    1  A    between atoms: C_1  and  C_2
REMARK    2  A    between atoms: C_2  and  C_3
REMARK    3  A    between atoms: N_14  and  C_15
REMARK    4  A    between atoms: C_20  and  N_21
REMARK                            x       y       z     vdW  Elec       q    Type
REMARK                         _______ _______ _______ _____ _____    ______ ____
ROOT
ATOM      1  C   UNL     1      -0.573  10.266  17.700  0.00  0.00    +0.000 C 
ATOM      2  C   UNL     1       0.462   9.990  18.811  0.00  0.00    +0.000 C 
ATOM      3  C   UNL     1       1.866  10.222  18.208  0.00  0.00    +0.000 C 
ATOM      4  C   UNL     1       0.241  11.036  19.947  0.00  0.00    +0.000 C 
ATOM      5  C   UNL     1       0.042  10.478  21.310  0.00  0.00    +0.000 A 
ATOM      6  N   UNL     1      -0.774  11.074  22.231  0.00  0.00    +0.000 N 
ATOM      7  N   UNL     1      -0.802  10.439  23.412  0.00  0.00    +0.000 NA
ATOM      8  C   UNL     1       0.034   9.415  23.238  0.00  0.00    +0.000 A 
ATOM      9  C   UNL     1       0.591   9.378  21.939  0.00  0.00    +0.000 A 
ATOM     10  C   UNL     1       1.598   8.414  21.426  0.00  0.00    +0.000 C 
ATOM     11  N   UNL     1       1.419   7.991  20.032  0.00  0.00    +0.000 N 
ATOM     12  C   UNL     1       2.480   7.238  19.522  0.00  0.00    +0.000 C 
ATOM     13  O   UNL     1       3.471   7.026  20.228  0.00  0.00    +0.000 OA
ATOM     14  N   UNL     1       2.373   6.811  18.221  0.00  0.00    +0.000 N 
ATOM     15  C   UNL     1       0.286   8.504  19.252  0.00  0.00    +0.000 C 
ATOM     16  H   UNL     1      -1.328  11.918  22.129  0.00  0.00    +0.000 HD
ATOM     17  H   UNL     1       1.895   7.446  17.608  0.00  0.00    +0.000 HD
ENDROOT
BRANCH  14  18
ATOM     18  C   UNL     1       3.400   6.051  17.588  0.00  0.00    +0.000 A 
ATOM     19  C   UNL     1       4.189   6.726  16.641  0.00  0.00    +0.000 A 
ATOM     20  C   UNL     1       5.255   6.081  16.014  0.00  0.00    +0.000 A 
ATOM     21  C   UNL     1       5.531   4.743  16.298  0.00  0.00    +0.000 A 
ATOM     22  C   UNL     1       4.742   4.055  17.219  0.00  0.00    +0.000 A 
ATOM     23  C   UNL     1       3.674   4.695  17.865  0.00  0.00    +0.000 A 
BRANCH  23  24
ATOM     24  N   UNL     1       2.837   3.895  18.700  0.00  0.00    +0.000 N 
ATOM     25  C   UNL     1       3.385   3.599  20.029  0.00  0.00    +0.000 C 
ATOM     26  C   UNL     1       2.495   2.722  20.890  0.00  0.00    +0.000 C 
ATOM     27  C   UNL     1       1.062   3.212  20.803  0.00  0.00    +0.000 C 
ATOM     28  C   UNL     1       0.576   3.114  19.372  0.00  0.00    +0.000 C 
ATOM     29  C   UNL     1       1.504   3.729  18.344  0.00  0.00    +0.000 C 
ATOM     30  O   UNL     1       1.064   3.952  17.212  0.00  0.00    +0.000 OA
ENDBRANCH  23  24
ENDBRANCH  14  18
TORSDOF 2
ENDMDL
MODEL 3
REMARK VINA RESULT:      -7.1      1.076      1.105
REMARK  Name = 
REMARK  4 active torsions:
REMARK  status: ('A' for Active; 'I' for Inactive)
REMARK    1  A    between atoms: C_1  and  C_2
REMARK    2  A    between atoms: C_2  and  C_3
REMARK    3  A    between atoms: N_14  and  C_15
REMARK    4  A    between atoms: C_20  and  N_21
REMARK                            x       y       z     vdW  Elec       q    Type
REMARK                         _______ _______ _______ _____ _____    ______ ____
ROOT
ATOM      1  C   UNL     1       0.764   9.294  22.861  0.00  0.00    +0.000 C 
ATOM      2  C   UNL     1       0.648   9.199  21.324  0.00  0.00    +0.000 C 
ATOM      3  C   UNL     1      -0.346   8.060  21.002  0.00  0.00    +0.000 C 
ATOM      4  C   UNL     1       0.042  10.538  20.802  0.00  0.00    +0.000 C 
ATOM      5  C   UNL     1       0.824  11.234  19.748  0.00  0.00    +0.000 A 
ATOM      6  N   UNL     1       0.866  12.598  19.651  0.00  0.00    +0.000 N 
ATOM      7  N   UNL     1       1.600  13.038  18.619  0.00  0.00    +0.000 NA
ATOM      8  C   UNL     1       2.026  11.917  18.035  0.00  0.00    +0.000 A 
ATOM      9  C   UNL     1       1.580  10.752  18.698  0.00  0.00    +0.000 A 
ATOM     10  C   UNL     1       1.817   9.344  18.288  0.00  0.00    +0.000 C 
ATOM     11  N   UNL     1       2.055   8.395  19.382  0.00  0.00    +0.000 N 
ATOM     12  C   UNL     1       2.085   7.057  18.981  0.00  0.00    +0.000 C 
ATOM     13  O   UNL     1       1.875   6.770  17.798  0.00  0.00    +0.000 OA
ATOM     14  N   UNL     1       2.305   6.117  19.959  0.00  0.00    +0.000 N 
ATOM     15  C   UNL     1       2.069   8.868  20.771  0.00  0.00    +0.000 C 
ATOM     16  H   UNL     1       0.411  13.286  20.242  0.00  0.00    +0.000 HD
ATOM     17  H   UNL     1       1.911   6.343  20.854  0.00  0.00    +0.000 HD
ENDROOT
BRANCH  14  18
ATOM     18  C   UNL     1       2.339   4.721  19.672  0.00  0.00    +0.000 A 
ATOM     19  C   UNL     1       1.247   3.959  20.121  0.00  0.00    +0.000 A 
ATOM     20  C   UNL     1       1.165   2.596  19.836  0.00  0.00    +0.000 A 
ATOM     21  C   UNL     1       2.187   1.965  19.125  0.00  0.00    +0.000 A 
ATOM     22  C   UNL     1       3.287   2.705  18.693  0.00  0.00    +0.000 A 
ATOM     23  C   UNL     1       3.377   4.079  18.964  0.00  0.00    +0.000 A 
BRANCH  23  24
ATOM     24  N   UNL     1       4.587   4.742  18.598  0.00  0.00    +0.000 N 
ATOM     25  C   UNL     1       5.554   4.916  19.688  0.00  0.00    +0.000 C 
ATOM     26  C   UNL     1       6.820   5.651  19.286  0.00  0.00    +0.000 C 
ATOM     27  C   UNL     1       7.326   5.106  17.964  0.00  0.00    +0.000 C 
ATOM     28  C   UNL     1       6.286   5.337  16.887  0.00  0.00    +0.000 C 
ATOM     29  C   UNL     1       4.887   4.883  17.249  0.00  0.00    +0.000 C 
ATOM     30  O   UNL     1       4.054   4.764  16.345  0.00  0.00    +0.000 OA
ENDBRANCH  23  24
ENDBRANCH  14  18
TORSDOF 2
ENDMDL
MODEL 4
REMARK VINA RESULT:      -6.9      5.740     10.953
REMARK  Name = 
REMARK  4 active torsions:
REMARK  status: ('A' for Active; 'I' for Inactive)
REMARK    1  A    between atoms: C_1  and  C_2
REMARK    2  A    between atoms: C_2  and  C_3
REMARK    3  A    between atoms: N_14  and  C_15
REMARK    4  A    between atoms: C_20  and  N_21
REMARK                            x       y       z     vdW  Elec       q    Type
REMARK                         _______ _______ _______ _____ _____    ______ ____
ROOT
ATOM      1  C   UNL     1      -0.720  13.055  18.614  0.00  0.00    +0.000 C 
ATOM      2  C   UNL     1      -1.244  12.181  19.773  0.00  0.00    +0.000 C 
ATOM      3  C   UNL     1      -2.788  12.250  19.747  0.00  0.00    +0.000 C 
ATOM      4  C   UNL     1      -0.816  10.707  19.497  0.00  0.00    +0.000 C 
ATOM      5  C   UNL     1      -0.067  10.035  20.590  0.00  0.00    +0.000 A 
ATOM      6  N   UNL     1       0.909   9.108  20.344  0.00  0.00    +0.000 N 
ATOM      7  N   UNL     1       1.450   8.593  21.458  0.00  0.00    +0.000 NA
ATOM      8  C   UNL     1       0.785   9.202  22.441  0.00  0.00    +0.000 A 
ATOM      9  C   UNL     1      -0.174  10.124  21.964  0.00  0.00    +0.000 A 
ATOM     10  C   UNL     1      -1.123  10.926  22.776  0.00  0.00    +0.000 C 
ATOM     11  N   UNL     1      -1.374  12.291  22.298  0.00  0.00    +0.000 N 
ATOM     12  C   UNL     1      -2.407  12.952  22.967  0.00  0.00    +0.000 C 
ATOM     13  O   UNL     1      -3.041  12.358  23.845  0.00  0.00    +0.000 OA
ATOM     14  N   UNL     1      -2.690  14.235  22.566  0.00  0.00    +0.000 N 
ATOM     15  C   UNL     1      -0.684  12.783  21.099  0.00  0.00    +0.000 C 
ATOM     16  H   UNL     1       1.246   8.771  19.449  0.00  0.00    +0.000 HD
ATOM     17  H   UNL     1      -2.566  14.404  21.584  0.00  0.00    +0.000 HD
ENDROOT
BRANCH  14  18
ATOM     18  C   UNL     1      -3.734  15.001  23.163  0.00  0.00    +0.000 A 
ATOM     19  C   UNL     1      -3.391  15.755  24.297  0.00  0.00    +0.000 A 
ATOM     20  C   UNL     1      -4.332  16.581  24.914  0.00  0.00    +0.000 A 
ATOM     21  C   UNL     1      -5.638  16.643  24.426  0.00  0.00    +0.000 A 
ATOM     22  C   UNL     1      -5.997  15.882  23.314  0.00  0.00    +0.000 A 
ATOM     23  C   UNL     1      -5.058  15.056  22.678  0.00  0.00    +0.000 A 
BRANCH  23  24
ATOM     24  N   UNL     1      -5.530  14.216  21.625  0.00  0.00    +0.000 N 
ATOM     25  C   UNL     1      -6.103  12.937  22.058  0.00  0.00    +0.000 C 
ATOM     26  C   UNL     1      -6.570  12.046  20.923  0.00  0.00    +0.000 C 
ATOM     27  C   UNL     1      -7.349  12.870  19.917  0.00  0.00    +0.000 C 
ATOM     28  C   UNL     1      -6.453  13.944  19.335  0.00  0.00    +0.000 C 
ATOM     29  C   UNL     1      -5.701  14.767  20.360  0.00  0.00    +0.000 C 
ATOM     30  O   UNL     1      -5.185  15.830  20.000  0.00  0.00    +0.000 OA
ENDBRANCH  23  24
ENDBRANCH  14  18
TORSDOF 2
ENDMDL
MODEL 5
REMARK VINA RESULT:      -6.8      5.641      8.424
REMARK  Name = 
REMARK  4 active torsions:
REMARK  status: ('A' for Active; 'I' for Inactive)
REMARK    1  A    between atoms: C_1  and  C_2
REMARK    2  A    between atoms: C_2  and  C_3
REMARK    3  A    between atoms: N_14  and  C_15
REMARK    4  A    between atoms: C_20  and  N_21
REMARK                            x       y       z     vdW  Elec       q    Type
REMARK                         _______ _______ _______ _____ _____    ______ ____
ROOT
ATOM      1  C   UNL     1      -2.881  15.728  21.606  0.00  0.00    +0.000 C 
ATOM      2  C   UNL     1      -3.705  14.436  21.794  0.00  0.00    +0.000 C 
ATOM      3  C   UNL     1      -2.729  13.242  21.696  0.00  0.00    +0.000 C 
ATOM      4  C   UNL     1      -4.310  14.455  23.232  0.00  0.00    +0.000 C 
ATOM      5  C   UNL     1      -5.782  14.275  23.317  0.00  0.00    +0.000 A 
ATOM      6  N   UNL     1      -6.539  14.887  24.279  0.00  0.00    +0.000 N 
ATOM      7  N   UNL     1      -7.842  14.580  24.210  0.00  0.00    +0.000 NA
ATOM      8  C   UNL     1      -7.912  13.735  23.180  0.00  0.00    +0.000 A 
ATOM      9  C   UNL     1      -6.656  13.508  22.573  0.00  0.00    +0.000 A 
ATOM     10  C   UNL     1      -6.363  12.585  21.447  0.00  0.00    +0.000 C 
ATOM     11  N   UNL     1      -5.371  13.063  20.475  0.00  0.00    +0.000 N 
ATOM     12  C   UNL     1      -4.978  12.103  19.540  0.00  0.00    +0.000 C 
ATOM     13  O   UNL     1      -5.434  10.957  19.615  0.00  0.00    +0.000 OA
ATOM     14  N   UNL     1      -4.052  12.488  18.602  0.00  0.00    +0.000 N 
ATOM     15  C   UNL     1      -4.760  14.386  20.646  0.00  0.00    +0.000 C 
ATOM     16  H   UNL     1      -6.233  15.512  25.017  0.00  0.00    +0.000 HD
ATOM     17  H   UNL     1      -3.370  13.147  18.931  0.00  0.00    +0.000 HD
ENDROOT
BRANCH  14  18
ATOM     18  C   UNL     1      -3.562  11.590  17.609  0.00  0.00    +0.000 A 
ATOM     19  C   UNL     1      -4.432  11.290  16.547  0.00  0.00    +0.000 A 
ATOM     20  C   UNL     1      -4.018  10.468  15.499  0.00  0.00    +0.000 A 
ATOM     21  C   UNL     1      -2.741   9.906  15.509  0.00  0.00    +0.000 A 
ATOM     22  C   UNL     1      -1.875  10.177  16.568  0.00  0.00    +0.000 A 
ATOM     23  C   UNL     1      -2.275  11.012  17.623  0.00  0.00    +0.000 A 
BRANCH  23  24
ATOM     24  N   UNL     1      -1.382  11.144  18.730  0.00  0.00    +0.000 N 
ATOM     25  C   UNL     1      -1.182   9.923  19.517  0.00  0.00    +0.000 C 
ATOM     26  C   UNL     1      -0.254  10.092  20.706  0.00  0.00    +0.000 C 
ATOM     27  C   UNL     1       0.973  10.877  20.285  0.00  0.00    +0.000 C 
ATOM     28  C   UNL     1       0.558  12.256  19.812  0.00  0.00    +0.000 C 
ATOM     29  C   UNL     1      -0.562  12.265  18.793  0.00  0.00    +0.000 C 
ATOM     30  O   UNL     1      -0.763  13.299  18.147  0.00  0.00    +0.000 OA
ENDBRANCH  23  24
ENDBRANCH  14  18
TORSDOF 2
ENDMDL
MODEL 6
REMARK VINA RESULT:      -6.7      5.810     10.038
REMARK  Name = 
REMARK  4 active torsions:
REMARK  status: ('A' for Active; 'I' for Inactive)
REMARK    1  A    between atoms: C_1  and  C_2
REMARK    2  A    between atoms: C_2  and  C_3
REMARK    3  A    between atoms: N_14  and  C_15
REMARK    4  A    between atoms: C_20  and  N_21
REMARK                            x       y       z     vdW  Elec       q    Type
REMARK                         _______ _______ _______ _____ _____    ______ ____
ROOT
ATOM      1  C   UNL     1      -0.339  10.141  18.262  0.00  0.00    +0.000 C 
ATOM      2  C   UNL     1       0.071  11.269  19.232  0.00  0.00    +0.000 C 
ATOM      3  C   UNL     1      -0.085  10.726  20.671  0.00  0.00    +0.000 C 
ATOM      4  C   UNL     1       1.579  11.588  18.992  0.00  0.00    +0.000 C 
ATOM      5  C   UNL     1       1.902  13.011  18.709  0.00  0.00    +0.000 A 
ATOM      6  N   UNL     1       2.919  13.376  17.870  0.00  0.00    +0.000 N 
ATOM      7  N   UNL     1       3.075  14.703  17.764  0.00  0.00    +0.000 NA
ATOM      8  C   UNL     1       2.135  15.196  18.572  0.00  0.00    +0.000 A 
ATOM      9  C   UNL     1       1.361  14.187  19.190  0.00  0.00    +0.000 A 
ATOM     10  C   UNL     1       0.277  14.377  20.186  0.00  0.00    +0.000 C 
ATOM     11  N   UNL     1      -0.868  13.468  20.061  0.00  0.00    +0.000 N 
ATOM     12  C   UNL     1      -1.777  13.543  21.119  0.00  0.00    +0.000 C 
ATOM     13  O   UNL     1      -1.547  14.301  22.067  0.00  0.00    +0.000 OA
ATOM     14  N   UNL     1      -2.873  12.717  21.060  0.00  0.00    +0.000 N 
ATOM     15  C   UNL     1      -0.895  12.469  18.985  0.00  0.00    +0.000 C 
ATOM     16  H   UNL     1       3.553  12.777  17.350  0.00  0.00    +0.000 HD
ATOM     17  H   UNL     1      -2.703  11.824  20.634  0.00  0.00    +0.000 HD
ENDROOT
BRANCH  14  18
ATOM     18  C   UNL     1      -3.859  12.693  22.091  0.00  0.00    +0.000 A 
ATOM     19  C   UNL     1      -3.399  12.455  23.397  0.00  0.00    +0.000 A 
ATOM     20  C   UNL     1      -4.282  12.473  24.477  0.00  0.00    +0.000 A 
ATOM     21  C   UNL     1      -5.643  12.697  24.266  0.00  0.00    +0.000 A 
ATOM     22  C   UNL     1      -6.116  12.911  22.973  0.00  0.00    +0.000 A 
ATOM     23  C   UNL     1      -5.237  12.908  21.879  0.00  0.00    +0.000 A 
BRANCH  23  24
ATOM     24  N   UNL     1      -5.810  13.012  20.576  0.00  0.00    +0.000 N 
ATOM     25  C   UNL     1      -6.498  11.807  20.100  0.00  0.00    +0.000 C 
ATOM     26  C   UNL     1      -7.074  11.928  18.702  0.00  0.00    +0.000 C 
ATOM     27  C   UNL     1      -7.787  13.258  18.558  0.00  0.00    +0.000 C 
ATOM     28  C   UNL     1      -6.800  14.390  18.761  0.00  0.00    +0.000 C 
ATOM     29  C   UNL     1      -5.951  14.274  20.009  0.00  0.00    +0.000 C 
ATOM     30  O   UNL     1      -5.339  15.273  20.401  0.00  0.00    +0.000 OA
ENDBRANCH  23  24
ENDBRANCH  14  18
TORSDOF 2
ENDMDL
MODEL 7
REMARK VINA RESULT:      -6.7      1.196      1.560
REMARK  Name = 
REMARK  4 active torsions:
REMARK  status: ('A' for Active; 'I' for Inactive)
REMARK    1  A    between atoms: C_1  and  C_2
REMARK    2  A    between atoms: C_2  and  C_3
REMARK    3  A    between atoms: N_14  and  C_15
REMARK    4  A    between atoms: C_20  and  N_21
REMARK                            x       y       z     vdW  Elec       q    Type
REMARK                         _______ _______ _______ _____ _____    ______ ____
ROOT
ATOM      1  C   UNL     1       1.028   9.103  22.780  0.00  0.00    +0.000 C 
ATOM      2  C   UNL     1       0.797   9.107  21.253  0.00  0.00    +0.000 C 
ATOM      3  C   UNL     1      -0.238   8.004  20.936  0.00  0.00    +0.000 C 
ATOM      4  C   UNL     1       0.177  10.484  20.863  0.00  0.00    +0.000 C 
ATOM      5  C   UNL     1       0.890  11.236  19.799  0.00  0.00    +0.000 A 
ATOM      6  N   UNL     1       0.949  12.603  19.784  0.00  0.00    +0.000 N 
ATOM      7  N   UNL     1       1.612  13.099  18.730  0.00  0.00    +0.000 NA
ATOM      8  C   UNL     1       1.974  12.012  18.046  0.00  0.00    +0.000 A 
ATOM      9  C   UNL     1       1.558  10.812  18.667  0.00  0.00    +0.000 A 
ATOM     10  C   UNL     1       1.739   9.431  18.152  0.00  0.00    +0.000 C 
ATOM     11  N   UNL     1       2.042   8.411  19.164  0.00  0.00    +0.000 N 
ATOM     12  C   UNL     1       2.019   7.101  18.679  0.00  0.00    +0.000 C 
ATOM     13  O   UNL     1       1.717   6.892  17.499  0.00  0.00    +0.000 OA
ATOM     14  N   UNL     1       2.295   6.098  19.577  0.00  0.00    +0.000 N 
ATOM     15  C   UNL     1       2.167   8.794  20.575  0.00  0.00    +0.000 C 
ATOM     16  H   UNL     1       0.550  13.257  20.449  0.00  0.00    +0.000 HD
ATOM     17  H   UNL     1       1.972   6.272  20.511  0.00  0.00    +0.000 HD
ENDROOT
BRANCH  14  18
ATOM     18  C   UNL     1       2.283   4.722  19.202  0.00  0.00    +0.000 A 
ATOM     19  C   UNL     1       1.189   3.959  19.642  0.00  0.00    +0.000 A 
ATOM     20  C   UNL     1       1.062   2.619  19.274  0.00  0.00    +0.000 A 
ATOM     21  C   UNL     1       2.042   2.011  18.487  0.00  0.00    +0.000 A 
ATOM     22  C   UNL     1       3.145   2.752  18.063  0.00  0.00    +0.000 A 
ATOM     23  C   UNL     1       3.279   4.103  18.416  0.00  0.00    +0.000 A 
BRANCH  23  24
ATOM     24  N   UNL     1       4.491   4.761  18.049  0.00  0.00    +0.000 N 
ATOM     25  C   UNL     1       4.445   5.482  16.772  0.00  0.00    +0.000 C 
ATOM     26  C   UNL     1       5.752   6.148  16.385  0.00  0.00    +0.000 C 
ATOM     27  C   UNL     1       6.333   6.866  17.587  0.00  0.00    +0.000 C 
ATOM     28  C   UNL     1       6.623   5.865  18.687  0.00  0.00    +0.000 C 
ATOM     29  C   UNL     1       5.474   4.935  19.016  0.00  0.00    +0.000 C 
ATOM     30  O   UNL     1       5.516   4.297  20.073  0.00  0.00    +0.000 OA
ENDBRANCH  23  24
ENDBRANCH  14  18
TORSDOF 2
ENDMDL
MODEL 8
REMARK VINA RESULT:      -6.6      7.506     11.206
REMARK  Name = 
REMARK  4 active torsions:
REMARK  status: ('A' for Active; 'I' for Inactive)
REMARK    1  A    between atoms: C_1  and  C_2
REMARK    2  A    between atoms: C_2  and  C_3
REMARK    3  A    between atoms: N_14  and  C_15
REMARK    4  A    between atoms: C_20  and  N_21
REMARK                            x       y       z     vdW  Elec       q    Type
REMARK                         _______ _______ _______ _____ _____    ______ ____
ROOT
ATOM      1  C   UNL     1       9.330  10.761  20.585  0.00  0.00    +0.000 C 
ATOM      2  C   UNL     1       9.835  12.197  20.326  0.00  0.00    +0.000 C 
ATOM      3  C   UNL     1       9.962  12.900  21.697  0.00  0.00    +0.000 C 
ATOM      4  C   UNL     1      11.257  12.101  19.693  0.00  0.00    +0.000 C 
ATOM      5  C   UNL     1      11.443  12.822  18.408  0.00  0.00    +0.000 A 
ATOM      6  N   UNL     1      12.276  12.362  17.425  0.00  0.00    +0.000 N 
ATOM      7  N   UNL     1      12.333  13.164  16.352  0.00  0.00    +0.000 NA
ATOM      8  C   UNL     1      11.520  14.173  16.670  0.00  0.00    +0.000 A 
ATOM      9  C   UNL     1      10.925  14.015  17.943  0.00  0.00    +0.000 A 
ATOM     10  C   UNL     1      10.020  14.971  18.630  0.00  0.00    +0.000 C 
ATOM     11  N   UNL     1       8.925  14.368  19.400  0.00  0.00    +0.000 N 
ATOM     12  C   UNL     1       8.210  15.277  20.184  0.00  0.00    +0.000 C 
ATOM     13  O   UNL     1       8.556  16.462  20.213  0.00  0.00    +0.000 OA
ATOM     14  N   UNL     1       7.171  14.774  20.930  0.00  0.00    +0.000 N 
ATOM     15  C   UNL     1       8.772  12.909  19.433  0.00  0.00    +0.000 C 
ATOM     16  H   UNL     1      12.844  11.521  17.424  0.00  0.00    +0.000 HD
ATOM     17  H   UNL     1       7.317  13.845  21.280  0.00  0.00    +0.000 HD
ENDROOT
BRANCH  14  18
ATOM     18  C   UNL     1       6.381  15.602  21.781  0.00  0.00    +0.000 A 
ATOM     19  C   UNL     1       6.900  15.866  23.060  0.00  0.00    +0.000 A 
ATOM     20  C   UNL     1       6.226  16.713  23.940  0.00  0.00    +0.000 A 
ATOM     21  C   UNL     1       5.009  17.286  23.569  0.00  0.00    +0.000 A 
ATOM     22  C   UNL     1       4.472  17.014  22.312  0.00  0.00    +0.000 A 
ATOM     23  C   UNL     1       5.145  16.173  21.413  0.00  0.00    +0.000 A 
BRANCH  23  24
ATOM     24  N   UNL     1       4.476  15.844  20.195  0.00  0.00    +0.000 N 
ATOM     25  C   UNL     1       3.441  14.812  20.313  0.00  0.00    +0.000 C 
ATOM     26  C   UNL     1       2.764  14.455  19.002  0.00  0.00    +0.000 C 
ATOM     27  C   UNL     1       2.420  15.724  18.246  0.00  0.00    +0.000 C 
ATOM     28  C   UNL     1       3.691  16.485  17.927  0.00  0.00    +0.000 C 
ATOM     29  C   UNL     1       4.615  16.699  19.108  0.00  0.00    +0.000 C 
ATOM     30  O   UNL     1       5.512  17.543  19.009  0.00  0.00    +0.000 OA
ENDBRANCH  23  24
ENDBRANCH  14  18
TORSDOF 2
ENDMDL
MODEL 9
REMARK VINA RESULT:      -6.6      6.162     10.197
REMARK  Name = 
REMARK  4 active torsions:
REMARK  status: ('A' for Active; 'I' for Inactive)
REMARK    1  A    between atoms: C_1  and  C_2
REMARK    2  A    between atoms: C_2  and  C_3
REMARK    3  A    between atoms: N_14  and  C_15
REMARK    4  A    between atoms: C_20  and  N_21
REMARK                            x       y       z     vdW  Elec       q    Type
REMARK                         _______ _______ _______ _____ _____    ______ ____
ROOT
ATOM      1  C   UNL     1      -0.355   9.873  20.608  0.00  0.00    +0.000 C 
ATOM      2  C   UNL     1      -0.406  11.375  20.959  0.00  0.00    +0.000 C 
ATOM      3  C   UNL     1      -0.837  11.494  22.438  0.00  0.00    +0.000 C 
ATOM      4  C   UNL     1       1.038  11.951  20.825  0.00  0.00    +0.000 C 
ATOM      5  C   UNL     1       1.182  13.136  19.940  0.00  0.00    +0.000 A 
ATOM      6  N   UNL     1       2.307  13.357  19.193  0.00  0.00    +0.000 N 
ATOM      7  N   UNL     1       2.261  14.493  18.482  0.00  0.00    +0.000 NA
ATOM      8  C   UNL     1       1.075  15.015  18.798  0.00  0.00    +0.000 A 
ATOM      9  C   UNL     1       0.346  14.209  19.702  0.00  0.00    +0.000 A 
ATOM     10  C   UNL     1      -0.976  14.515  20.305  0.00  0.00    +0.000 C 
ATOM     11  N   UNL     1      -1.881  13.370  20.465  0.00  0.00    +0.000 N 
ATOM     12  C   UNL     1      -3.033  13.652  21.203  0.00  0.00    +0.000 C 
ATOM     13  O   UNL     1      -3.187  14.778  21.688  0.00  0.00    +0.000 OA
ATOM     14  N   UNL     1      -3.923  12.621  21.388  0.00  0.00    +0.000 N 
ATOM     15  C   UNL     1      -1.460  12.037  20.019  0.00  0.00    +0.000 C 
ATOM     16  H   UNL     1       3.144  12.787  19.132  0.00  0.00    +0.000 HD
ATOM     17  H   UNL     1      -3.501  11.715  21.480  0.00  0.00    +0.000 HD
ENDROOT
BRANCH  14  18
ATOM     18  C   UNL     1      -5.124  12.784  22.139  0.00  0.00    +0.000 A 
ATOM     19  C   UNL     1      -4.989  12.860  23.535  0.00  0.00    +0.000 A 
ATOM     20  C   UNL     1      -6.102  13.079  24.347  0.00  0.00    +0.000 A 
ATOM     21  C   UNL     1      -7.372  13.194  23.781  0.00  0.00    +0.000 A 
ATOM     22  C   UNL     1      -7.523  13.098  22.398  0.00  0.00    +0.000 A 
ATOM     23  C   UNL     1      -6.411  12.889  21.569  0.00  0.00    +0.000 A 
BRANCH  23  24
ATOM     24  N   UNL     1      -6.658  12.680  20.179  0.00  0.00    +0.000 N 
ATOM     25  C   UNL     1      -6.440  13.853  19.325  0.00  0.00    +0.000 C 
ATOM     26  C   UNL     1      -6.738  13.618  17.856  0.00  0.00    +0.000 C 
ATOM     27  C   UNL     1      -6.134  12.298  17.419  0.00  0.00    +0.000 C 
ATOM     28  C   UNL     1      -6.757  11.167  18.212  0.00  0.00    +0.000 C 
ATOM     29  C   UNL     1      -6.770  11.376  19.712  0.00  0.00    +0.000 C 
ATOM     30  O   UNL     1      -6.985  10.402  20.441  0.00  0.00    +0.000 OA
ENDBRANCH  23  24
ENDBRANCH  14  18
TORSDOF 2
ENDMDL
