MODEL 1
REMARK VINA RESULT:      -6.9      0.000      0.000
REMARK  Name = 
REMARK  8 active torsions:
REMARK  status: ('A' for Active; 'I' for Inactive)
REMARK    1  A    between atoms: C_1  and  C_2
REMARK    2  A    between atoms: C_2  and  C_3
REMARK    3  A    between atoms: C_2  and  C_4
REMARK    4  A    between atoms: C_2  and  N_5
REMARK    5  A    between atoms: C_6  and  C_8
REMARK    6  A    between atoms: C_8  and  S_9
REMARK    7  A    between atoms: S_9  and  C_10
REMARK    8  A    between atoms: C_12  and  O_13
REMARK                            x       y       z     vdW  Elec       q    Type
REMARK                         _______ _______ _______ _____ _____    ______ ____
ROOT
ATOM      1  C   UNL     1       4.649   4.251  17.886  0.00  0.00    +0.000 A 
ATOM      2  N   UNL     1       5.123   3.508  18.948  0.00  0.00    +0.000 NA
ATOM      3  C   UNL     1       4.256   2.731  19.619  0.00  0.00    +0.000 A 
ATOM      4  C   UNL     1       2.955   2.762  19.170  0.00  0.00    +0.000 A 
ATOM      5  C   UNL     1       1.855   2.113  19.656  0.00  0.00    +0.000 A 
ATOM      6  N   UNL     1       0.836   2.524  18.840  0.00  0.00    +0.000 N 
ATOM      7  N   UNL     1       1.214   3.390  17.871  0.00  0.00    +0.000 NA
ATOM      8  C   UNL     1       2.525   3.541  18.074  0.00  0.00    +0.000 A 
ATOM      9  N   UNL     1       3.386   4.327  17.381  0.00  0.00    +0.000 NA
ATOM     10  H   UNL     1      -0.143   2.257  18.885  0.00  0.00    +0.000 HD
ENDROOT
BRANCH   3  11
ATOM     11  O   UNL     1       4.731   2.024  20.681  0.00  0.00    +0.000 OA
ATOM     12  H   UNL     1       5.078   1.228  20.241  0.00  0.00    +0.000 HD
ENDBRANCH   3  11
BRANCH   1  13
ATOM     13  S   UNL     1       5.897   5.316  17.165  0.00  0.00    +0.000 S 
BRANCH  13  14
ATOM     14  C   UNL     1       6.794   4.131  16.114  0.00  0.00    +0.000 C 
BRANCH  14  16
ATOM     15  N   UNL     1       6.546   3.339  13.790  0.00  0.00    +0.000 N 
ATOM     16  C   UNL     1       6.520   4.431  14.650  0.00  0.00    +0.000 C 
ATOM     17  O   UNL     1       6.338   5.590  14.268  0.00  0.00    +0.000 OA
ATOM     18  H   UNL     1       6.633   2.424  14.207  0.00  0.00    +0.000 HD
BRANCH  15  20
ATOM     19  C   UNL     1       6.603   2.091  11.652  0.00  0.00    +0.000 C 
ATOM     20  C   UNL     1       6.295   3.431  12.338  0.00  0.00    +0.000 C 
ATOM     21  C   UNL     1       7.148   4.539  11.696  0.00  0.00    +0.000 C 
ATOM     22  C   UNL     1       4.806   3.750  12.088  0.00  0.00    +0.000 C 
ENDBRANCH  15  20
ENDBRANCH  14  16
ENDBRANCH  13  14
ENDBRANCH   1  13
TORSDOF 5
ENDMDL
MODEL 2
REMARK VINA RESULT:      -6.9      0.927      1.379
REMARK  Name = 
REMARK  8 active torsions:
REMARK  status: ('A' for Active; 'I' for Inactive)
REMARK    1  A    between atoms: C_1  and  C_2
REMARK    2  A    between atoms: C_2  and  C_3
REMARK    3  A    between atoms: C_2  and  C_4
REMARK    4  A    between atoms: C_2  and  N_5
REMARK    5  A    between atoms: C_6  and  C_8
REMARK    6  A    between atoms: C_8  and  S_9
REMARK    7  A    between atoms: S_9  and  C_10
REMARK    8  A    between atoms: C_12  and  O_13
REMARK                            x       y       z     vdW  Elec       q    Type
REMARK                         _______ _______ _______ _____ _____    ______ ____
ROOT
ATOM      1  C   UNL     1       4.391   4.218  18.376  0.00  0.00    +0.000 A 
ATOM      2  N   UNL     1       5.044   3.319  19.194  0.00  0.00    +0.000 NA
ATOM      3  C   UNL     1       4.329   2.682  20.137  0.00  0.00    +0.000 A 
ATOM      4  C   UNL     1       2.992   3.002  20.192  0.00  0.00    +0.000 A 
ATOM      5  C   UNL     1       2.027   2.550  21.048  0.00  0.00    +0.000 A 
ATOM      6  N   UNL     1       0.896   3.214  20.657  0.00  0.00    +0.000 N 
ATOM      7  N   UNL     1       1.077   4.058  19.614  0.00  0.00    +0.000 NA
ATOM      8  C   UNL     1       2.375   3.930  19.326  0.00  0.00    +0.000 A 
ATOM      9  N   UNL     1       3.077   4.579  18.365  0.00  0.00    +0.000 NA
ATOM     10  H   UNL     1      -0.036   3.144  21.056  0.00  0.00    +0.000 HD
ENDROOT
BRANCH   3  11
ATOM     11  O   UNL     1       4.990   1.818  20.955  0.00  0.00    +0.000 OA
ATOM     12  H   UNL     1       5.640   2.409  21.373  0.00  0.00    +0.000 HD
ENDBRANCH   3  11
BRANCH   1  13
ATOM     13  S   UNL     1       5.495   5.065  17.246  0.00  0.00    +0.000 S 
BRANCH  13  14
ATOM     14  C   UNL     1       6.000   3.691  16.165  0.00  0.00    +0.000 C 
BRANCH  14  16
ATOM     15  N   UNL     1       6.254   3.158  13.769  0.00  0.00    +0.000 N 
ATOM     16  C   UNL     1       5.901   4.118  14.710  0.00  0.00    +0.000 C 
ATOM     17  O   UNL     1       5.572   5.269  14.413  0.00  0.00    +0.000 OA
ATOM     18  H   UNL     1       6.442   2.226  14.107  0.00  0.00    +0.000 HD
BRANCH  15  20
ATOM     19  C   UNL     1       7.118   4.564  11.923  0.00  0.00    +0.000 C 
ATOM     20  C   UNL     1       6.214   3.384  12.311  0.00  0.00    +0.000 C 
ATOM     21  C   UNL     1       4.779   3.663  11.831  0.00  0.00    +0.000 C 
ATOM     22  C   UNL     1       6.742   2.133  11.577  0.00  0.00    +0.000 C 
ENDBRANCH  15  20
ENDBRANCH  14  16
ENDBRANCH  13  14
ENDBRANCH   1  13
TORSDOF 5
ENDMDL
MODEL 3
REMARK VINA RESULT:      -6.7      1.459      1.855
REMARK  Name = 
REMARK  8 active torsions:
REMARK  status: ('A' for Active; 'I' for Inactive)
REMARK    1  A    between atoms: C_1  and  C_2
REMARK    2  A    between atoms: C_2  and  C_3
REMARK    3  A    between atoms: C_2  and  C_4
REMARK    4  A    between atoms: C_2  and  N_5
REMARK    5  A    between atoms: C_6  and  C_8
REMARK    6  A    between atoms: C_8  and  S_9
REMARK    7  A    between atoms: S_9  and  C_10
REMARK    8  A    between atoms: C_12  and  O_13
REMARK                            x       y       z     vdW  Elec       q    Type
REMARK                         _______ _______ _______ _____ _____    ______ ____
ROOT
ATOM      1  C   UNL     1       4.386   4.910  17.787  0.00  0.00    +0.000 A 
ATOM      2  N   UNL     1       3.990   5.714  18.837  0.00  0.00    +0.000 NA
ATOM      3  C   UNL     1       2.888   5.367  19.524  0.00  0.00    +0.000 A 
ATOM      4  C   UNL     1       2.254   4.223  19.097  0.00  0.00    +0.000 A 
ATOM      5  C   UNL     1       1.112   3.638  19.568  0.00  0.00    +0.000 A 
ATOM      6  N   UNL     1       0.940   2.544  18.764  0.00  0.00    +0.000 N 
ATOM      7  N   UNL     1       1.892   2.396  17.814  0.00  0.00    +0.000 NA
ATOM      8  C   UNL     1       2.706   3.435  18.017  0.00  0.00    +0.000 A 
ATOM      9  N   UNL     1       3.818   3.765  17.315  0.00  0.00    +0.000 NA
ATOM     10  H   UNL     1       0.194   1.855  18.803  0.00  0.00    +0.000 HD
ENDROOT
BRANCH   3  11
ATOM     11  O   UNL     1       2.493   6.183  20.539  0.00  0.00    +0.000 OA
ATOM     12  H   UNL     1       2.141   5.538  21.177  0.00  0.00    +0.000 HD
ENDBRANCH   3  11
BRANCH   1  13
ATOM     13  S   UNL     1       5.803   5.561  16.904  0.00  0.00    +0.000 S 
BRANCH  13  14
ATOM     14  C   UNL     1       6.387   4.068  16.043  0.00  0.00    +0.000 C 
BRANCH  14  16
ATOM     15  N   UNL     1       6.162   3.218  13.737  0.00  0.00    +0.000 N 
ATOM     16  C   UNL     1       6.422   4.319  14.544  0.00  0.00    +0.000 C 
ATOM     17  O   UNL     1       6.718   5.431  14.100  0.00  0.00    +0.000 OA
ATOM     18  H   UNL     1       5.863   2.369  14.194  0.00  0.00    +0.000 HD
BRANCH  15  20
ATOM     19  C   UNL     1       4.755   3.689  11.754  0.00  0.00    +0.000 C 
ATOM     20  C   UNL     1       6.144   3.268  12.262  0.00  0.00    +0.000 C 
ATOM     21  C   UNL     1       6.516   1.904  11.655  0.00  0.00    +0.000 C 
ATOM     22  C   UNL     1       7.158   4.319  11.765  0.00  0.00    +0.000 C 
ENDBRANCH  15  20
ENDBRANCH  14  16
ENDBRANCH  13  14
ENDBRANCH   1  13
TORSDOF 5
ENDMDL
MODEL 4
REMARK VINA RESULT:      -6.7      1.359      1.703
REMARK  Name = 
REMARK  8 active torsions:
REMARK  status: ('A' for Active; 'I' for Inactive)
REMARK    1  A    between atoms: C_1  and  C_2
REMARK    2  A    between atoms: C_2  and  C_3
REMARK    3  A    between atoms: C_2  and  C_4
REMARK    4  A    between atoms: C_2  and  N_5
REMARK    5  A    between atoms: C_6  and  C_8
REMARK    6  A    between atoms: C_8  and  S_9
REMARK    7  A    between atoms: S_9  and  C_10
REMARK    8  A    between atoms: C_12  and  O_13
REMARK                            x       y       z     vdW  Elec       q    Type
REMARK                         _______ _______ _______ _____ _____    ______ ____
ROOT
ATOM      1  C   UNL     1       4.649   4.738  17.582  0.00  0.00    +0.000 A 
ATOM      2  N   UNL     1       4.270   5.406  18.728  0.00  0.00    +0.000 NA
ATOM      3  C   UNL     1       3.295   4.873  19.483  0.00  0.00    +0.000 A 
ATOM      4  C   UNL     1       2.761   3.691  19.022  0.00  0.00    +0.000 A 
ATOM      5  C   UNL     1       1.752   2.934  19.546  0.00  0.00    +0.000 A 
ATOM      6  N   UNL     1       1.630   1.888  18.672  0.00  0.00    +0.000 N 
ATOM      7  N   UNL     1       2.490   1.931  17.629  0.00  0.00    +0.000 NA
ATOM      8  C   UNL     1       3.190   3.048  17.841  0.00  0.00    +0.000 A 
ATOM      9  N   UNL     1       4.176   3.567  17.069  0.00  0.00    +0.000 NA
ATOM     10  H   UNL     1       0.980   1.109  18.722  0.00  0.00    +0.000 HD
ENDROOT
BRANCH   3  11
ATOM     11  O   UNL     1       2.911   5.557  20.596  0.00  0.00    +0.000 OA
ATOM     12  H   UNL     1       3.093   6.475  20.329  0.00  0.00    +0.000 HD
ENDBRANCH   3  11
BRANCH   1  13
ATOM     13  S   UNL     1       5.880   5.626  16.628  0.00  0.00    +0.000 S 
BRANCH  13  14
ATOM     14  C   UNL     1       6.802   4.244  15.885  0.00  0.00    +0.000 C 
BRANCH  14  16
ATOM     15  N   UNL     1       6.225   3.313  13.674  0.00  0.00    +0.000 N 
ATOM     16  C   UNL     1       6.791   4.374  14.371  0.00  0.00    +0.000 C 
ATOM     17  O   UNL     1       7.307   5.349  13.820  0.00  0.00    +0.000 OA
ATOM     18  H   UNL     1       5.769   2.594  14.216  0.00  0.00    +0.000 HD
BRANCH  15  20
ATOM     19  C   UNL     1       7.095   4.255  11.556  0.00  0.00    +0.000 C 
ATOM     20  C   UNL     1       6.117   3.262  12.203  0.00  0.00    +0.000 C 
ATOM     21  C   UNL     1       4.685   3.582  11.739  0.00  0.00    +0.000 C 
ATOM     22  C   UNL     1       6.491   1.850  11.704  0.00  0.00    +0.000 C 
ENDBRANCH  15  20
ENDBRANCH  14  16
ENDBRANCH  13  14
ENDBRANCH   1  13
TORSDOF 5
ENDMDL
MODEL 5
REMARK VINA RESULT:      -6.7      1.427      1.492
REMARK  Name = 
REMARK  8 active torsions:
REMARK  status: ('A' for Active; 'I' for Inactive)
REMARK    1  A    between atoms: C_1  and  C_2
REMARK    2  A    between atoms: C_2  and  C_3
REMARK    3  A    between atoms: C_2  and  C_4
REMARK    4  A    between atoms: C_2  and  N_5
REMARK    5  A    between atoms: C_6  and  C_8
REMARK    6  A    between atoms: C_8  and  S_9
REMARK    7  A    between atoms: S_9  and  C_10
REMARK    8  A    between atoms: C_12  and  O_13
REMARK                            x       y       z     vdW  Elec       q    Type
REMARK                         _______ _______ _______ _____ _____    ______ ____
ROOT
ATOM      1  C   UNL     1       4.156   4.842  18.004  0.00  0.00    +0.000 A 
ATOM      2  N   UNL     1       3.838   5.539  19.152  0.00  0.00    +0.000 NA
ATOM      3  C   UNL     1       2.769   5.141  19.863  0.00  0.00    +0.000 A 
ATOM      4  C   UNL     1       2.086   4.058  19.359  0.00  0.00    +0.000 A 
ATOM      5  C   UNL     1       0.960   3.446  19.833  0.00  0.00    +0.000 A 
ATOM      6  N   UNL     1       0.718   2.444  18.933  0.00  0.00    +0.000 N 
ATOM      7  N   UNL     1       1.612   2.380  17.919  0.00  0.00    +0.000 NA
ATOM      8  C   UNL     1       2.459   3.379  18.178  0.00  0.00    +0.000 A 
ATOM      9  N   UNL     1       3.537   3.762  17.450  0.00  0.00    +0.000 NA
ATOM     10  H   UNL     1      -0.039   1.768  18.944  0.00  0.00    +0.000 HD
ENDROOT
BRANCH   3  11
ATOM     11  O   UNL     1       2.451   5.853  20.978  0.00  0.00    +0.000 OA
ATOM     12  H   UNL     1       2.364   6.751  20.613  0.00  0.00    +0.000 HD
ENDBRANCH   3  11
BRANCH   1  13
ATOM     13  S   UNL     1       5.535   5.558  17.111  0.00  0.00    +0.000 S 
BRANCH  13  14
ATOM     14  C   UNL     1       6.160   4.100  16.218  0.00  0.00    +0.000 C 
BRANCH  14  16
ATOM     15  N   UNL     1       6.126   3.268  13.895  0.00  0.00    +0.000 N 
ATOM     16  C   UNL     1       6.182   4.382  14.725  0.00  0.00    +0.000 C 
ATOM     17  O   UNL     1       6.295   5.536  14.304  0.00  0.00    +0.000 OA
ATOM     18  H   UNL     1       5.966   2.373  14.332  0.00  0.00    +0.000 HD
BRANCH  15  20
ATOM     19  C   UNL     1       6.391   1.955  11.812  0.00  0.00    +0.000 C 
ATOM     20  C   UNL     1       6.129   3.342  12.421  0.00  0.00    +0.000 C 
ATOM     21  C   UNL     1       7.195   4.330  11.915  0.00  0.00    +0.000 C 
ATOM     22  C   UNL     1       4.747   3.814  11.922  0.00  0.00    +0.000 C 
ENDBRANCH  15  20
ENDBRANCH  14  16
ENDBRANCH  13  14
ENDBRANCH   1  13
TORSDOF 5
ENDMDL
MODEL 6
REMARK VINA RESULT:      -6.7      1.270      1.625
REMARK  Name = 
REMARK  8 active torsions:
REMARK  status: ('A' for Active; 'I' for Inactive)
REMARK    1  A    between atoms: C_1  and  C_2
REMARK    2  A    between atoms: C_2  and  C_3
REMARK    3  A    between atoms: C_2  and  C_4
REMARK    4  A    between atoms: C_2  and  N_5
REMARK    5  A    between atoms: C_6  and  C_8
REMARK    6  A    between atoms: C_8  and  S_9
REMARK    7  A    between atoms: S_9  and  C_10
REMARK    8  A    between atoms: C_12  and  O_13
REMARK                            x       y       z     vdW  Elec       q    Type
REMARK                         _______ _______ _______ _____ _____    ______ ____
ROOT
ATOM      1  C   UNL     1       3.955   4.436  17.871  0.00  0.00    +0.000 A 
ATOM      2  N   UNL     1       4.135   3.072  17.772  0.00  0.00    +0.000 NA
ATOM      3  C   UNL     1       3.316   2.269  18.474  0.00  0.00    +0.000 A 
ATOM      4  C   UNL     1       2.365   2.906  19.237  0.00  0.00    +0.000 A 
ATOM      5  C   UNL     1       1.422   2.372  20.069  0.00  0.00    +0.000 A 
ATOM      6  N   UNL     1       0.768   3.462  20.577  0.00  0.00    +0.000 N 
ATOM      7  N   UNL     1       1.233   4.650  20.126  0.00  0.00    +0.000 NA
ATOM      8  C   UNL     1       2.223   4.309  19.298  0.00  0.00    +0.000 A 
ATOM      9  N   UNL     1       3.036   5.136  18.594  0.00  0.00    +0.000 NA
ATOM     10  H   UNL     1      -0.004   3.472  21.238  0.00  0.00    +0.000 HD
ENDROOT
BRANCH   3  11
ATOM     11  O   UNL     1       3.522   0.926  18.389  0.00  0.00    +0.000 OA
ATOM     12  H   UNL     1       3.807   0.834  17.463  0.00  0.00    +0.000 HD
ENDBRANCH   3  11
BRANCH   1  13
ATOM     13  S   UNL     1       5.188   5.372  16.967  0.00  0.00    +0.000 S 
BRANCH  13  14
ATOM     14  C   UNL     1       6.065   4.035  16.098  0.00  0.00    +0.000 C 
BRANCH  14  16
ATOM     15  N   UNL     1       6.107   3.201  13.776  0.00  0.00    +0.000 N 
ATOM     16  C   UNL     1       6.081   4.316  14.604  0.00  0.00    +0.000 C 
ATOM     17  O   UNL     1       6.121   5.475  14.183  0.00  0.00    +0.000 OA
ATOM     18  H   UNL     1       6.003   2.297  14.213  0.00  0.00    +0.000 HD
BRANCH  15  20
ATOM     19  C   UNL     1       4.743   3.714  11.774  0.00  0.00    +0.000 C 
ATOM     20  C   UNL     1       6.118   3.274  12.301  0.00  0.00    +0.000 C 
ATOM     21  C   UNL     1       6.490   1.916  11.680  0.00  0.00    +0.000 C 
ATOM     22  C   UNL     1       7.151   4.324  11.841  0.00  0.00    +0.000 C 
ENDBRANCH  15  20
ENDBRANCH  14  16
ENDBRANCH  13  14
ENDBRANCH   1  13
TORSDOF 5
ENDMDL
MODEL 7
REMARK VINA RESULT:      -6.7      3.412      6.694
REMARK  Name = 
REMARK  8 active torsions:
REMARK  status: ('A' for Active; 'I' for Inactive)
REMARK    1  A    between atoms: C_1  and  C_2
REMARK    2  A    between atoms: C_2  and  C_3
REMARK    3  A    between atoms: C_2  and  C_4
REMARK    4  A    between atoms: C_2  and  N_5
REMARK    5  A    between atoms: C_6  and  C_8
REMARK    6  A    between atoms: C_8  and  S_9
REMARK    7  A    between atoms: S_9  and  C_10
REMARK    8  A    between atoms: C_12  and  O_13
REMARK                            x       y       z     vdW  Elec       q    Type
REMARK                         _______ _______ _______ _____ _____    ______ ____
ROOT
ATOM      1  C   UNL     1       6.628   5.167  17.199  0.00  0.00    +0.000 A 
ATOM      2  N   UNL     1       7.251   4.745  18.356  0.00  0.00    +0.000 NA
ATOM      3  C   UNL     1       7.953   5.645  19.065  0.00  0.00    +0.000 A 
ATOM      4  C   UNL     1       7.981   6.921  18.551  0.00  0.00    +0.000 A 
ATOM      5  C   UNL     1       8.624   8.031  19.022  0.00  0.00    +0.000 A 
ATOM      6  N   UNL     1       8.320   9.006  18.111  0.00  0.00    +0.000 N 
ATOM      7  N   UNL     1       7.530   8.590  17.093  0.00  0.00    +0.000 NA
ATOM      8  C   UNL     1       7.321   7.299  17.362  0.00  0.00    +0.000 A 
ATOM      9  N   UNL     1       6.603   6.408  16.635  0.00  0.00    +0.000 NA
ATOM     10  H   UNL     1       8.617   9.977  18.117  0.00  0.00    +0.000 HD
ENDROOT
BRANCH   3  11
ATOM     11  O   UNL     1       8.585   5.210  20.190  0.00  0.00    +0.000 OA
ATOM     12  H   UNL     1       9.505   5.145  19.879  0.00  0.00    +0.000 HD
ENDBRANCH   3  11
BRANCH   1  13
ATOM     13  S   UNL     1       5.826   3.834  16.310  0.00  0.00    +0.000 S 
BRANCH  13  14
ATOM     14  C   UNL     1       4.075   4.279  16.528  0.00  0.00    +0.000 C 
BRANCH  14  16
ATOM     15  N   UNL     1       2.608   4.092  18.503  0.00  0.00    +0.000 N 
ATOM     16  C   UNL     1       3.461   3.429  17.628  0.00  0.00    +0.000 C 
ATOM     17  O   UNL     1       3.759   2.238  17.743  0.00  0.00    +0.000 OA
ATOM     18  H   UNL     1       2.373   5.049  18.285  0.00  0.00    +0.000 HD
BRANCH  15  20
ATOM     19  C   UNL     1       1.128   4.465  20.453  0.00  0.00    +0.000 C 
ATOM     20  C   UNL     1       1.913   3.434  19.627  0.00  0.00    +0.000 C 
ATOM     21  C   UNL     1       2.907   2.698  20.543  0.00  0.00    +0.000 C 
ATOM     22  C   UNL     1       0.898   2.407  19.080  0.00  0.00    +0.000 C 
ENDBRANCH  15  20
ENDBRANCH  14  16
ENDBRANCH  13  14
ENDBRANCH   1  13
TORSDOF 5
ENDMDL
MODEL 8
REMARK VINA RESULT:      -6.6      1.624      2.032
REMARK  Name = 
REMARK  8 active torsions:
REMARK  status: ('A' for Active; 'I' for Inactive)
REMARK    1  A    between atoms: C_1  and  C_2
REMARK    2  A    between atoms: C_2  and  C_3
REMARK    3  A    between atoms: C_2  and  C_4
REMARK    4  A    between atoms: C_2  and  N_5
REMARK    5  A    between atoms: C_6  and  C_8
REMARK    6  A    between atoms: C_8  and  S_9
REMARK    7  A    between atoms: S_9  and  C_10
REMARK    8  A    between atoms: C_12  and  O_13
REMARK                            x       y       z     vdW  Elec       q    Type
REMARK                         _______ _______ _______ _____ _____    ______ ____
ROOT
ATOM      1  C   UNL     1       4.102   4.724  17.838  0.00  0.00    +0.000 A 
ATOM      2  N   UNL     1       3.566   3.601  17.243  0.00  0.00    +0.000 NA
ATOM      3  C   UNL     1       2.634   2.906  17.918  0.00  0.00    +0.000 A 
ATOM      4  C   UNL     1       2.308   3.395  19.162  0.00  0.00    +0.000 A 
ATOM      5  C   UNL     1       1.431   2.900  20.085  0.00  0.00    +0.000 A 
ATOM      6  N   UNL     1       1.521   3.773  21.135  0.00  0.00    +0.000 N 
ATOM      7  N   UNL     1       2.397   4.787  20.942  0.00  0.00    +0.000 NA
ATOM      8  C   UNL     1       2.887   4.554  19.722  0.00  0.00    +0.000 A 
ATOM      9  N   UNL     1       3.824   5.272  19.055  0.00  0.00    +0.000 NA
ATOM     10  H   UNL     1       1.018   3.740  22.017  0.00  0.00    +0.000 HD
ENDROOT
BRANCH   3  11
ATOM     11  O   UNL     1       2.134   1.784  17.331  0.00  0.00    +0.000 OA
ATOM     12  H   UNL     1       2.062   1.184  18.093  0.00  0.00    +0.000 HD
ENDBRANCH   3  11
BRANCH   1  13
ATOM     13  S   UNL     1       5.404   5.478  16.865  0.00  0.00    +0.000 S 
BRANCH  13  14
ATOM     14  C   UNL     1       6.114   4.015  16.049  0.00  0.00    +0.000 C 
BRANCH  14  16
ATOM     15  N   UNL     1       5.958   3.185  13.731  0.00  0.00    +0.000 N 
ATOM     16  C   UNL     1       6.238   4.268  14.556  0.00  0.00    +0.000 C 
ATOM     17  O   UNL     1       6.617   5.363  14.133  0.00  0.00    +0.000 OA
ATOM     18  H   UNL     1       5.590   2.353  14.168  0.00  0.00    +0.000 HD
BRANCH  15  20
ATOM     19  C   UNL     1       7.125   4.200  11.796  0.00  0.00    +0.000 C 
ATOM     20  C   UNL     1       6.016   3.240  12.256  0.00  0.00    +0.000 C 
ATOM     21  C   UNL     1       4.671   3.695  11.663  0.00  0.00    +0.000 C 
ATOM     22  C   UNL     1       6.351   1.841  11.698  0.00  0.00    +0.000 C 
ENDBRANCH  15  20
ENDBRANCH  14  16
ENDBRANCH  13  14
ENDBRANCH   1  13
TORSDOF 5
ENDMDL
MODEL 9
REMARK VINA RESULT:      -6.6      1.299      1.299
REMARK  Name = 
REMARK  8 active torsions:
REMARK  status: ('A' for Active; 'I' for Inactive)
REMARK    1  A    between atoms: C_1  and  C_2
REMARK    2  A    between atoms: C_2  and  C_3
REMARK    3  A    between atoms: C_2  and  C_4
REMARK    4  A    between atoms: C_2  and  N_5
REMARK    5  A    between atoms: C_6  and  C_8
REMARK    6  A    between atoms: C_8  and  S_9
REMARK    7  A    between atoms: S_9  and  C_10
REMARK    8  A    between atoms: C_12  and  O_13
REMARK                            x       y       z     vdW  Elec       q    Type
REMARK                         _______ _______ _______ _____ _____    ______ ____
ROOT
ATOM      1  C   UNL     1       4.870   4.851  18.224  0.00  0.00    +0.000 A 
ATOM      2  N   UNL     1       5.301   3.635  18.712  0.00  0.00    +0.000 NA
ATOM      3  C   UNL     1       4.557   3.025  19.651  0.00  0.00    +0.000 A 
ATOM      4  C   UNL     1       3.420   3.695  20.039  0.00  0.00    +0.000 A 
ATOM      5  C   UNL     1       2.490   3.350  20.980  0.00  0.00    +0.000 A 
ATOM      6  N   UNL     1       1.594   4.384  20.959  0.00  0.00    +0.000 N 
ATOM      7  N   UNL     1       1.892   5.362  20.073  0.00  0.00    +0.000 NA
ATOM      8  C   UNL     1       3.024   4.939  19.503  0.00  0.00    +0.000 A 
ATOM      9  N   UNL     1       3.757   5.567  18.552  0.00  0.00    +0.000 NA
ATOM     10  H   UNL     1       0.756   4.493  21.524  0.00  0.00    +0.000 HD
ENDROOT
BRANCH   3  11
ATOM     11  O   UNL     1       5.008   1.839  20.143  0.00  0.00    +0.000 OA
ATOM     12  H   UNL     1       4.302   1.233  19.860  0.00  0.00    +0.000 HD
ENDBRANCH   3  11
BRANCH   1  13
ATOM     13  S   UNL     1       6.019   5.587  17.063  0.00  0.00    +0.000 S 
BRANCH  13  14
ATOM     14  C   UNL     1       6.530   4.123  16.110  0.00  0.00    +0.000 C 
BRANCH  14  16
ATOM     15  N   UNL     1       6.362   3.298  13.790  0.00  0.00    +0.000 N 
ATOM     16  C   UNL     1       6.412   4.410  14.622  0.00  0.00    +0.000 C 
ATOM     17  O   UNL     1       6.415   5.570  14.204  0.00  0.00    +0.000 OA
ATOM     18  H   UNL     1       6.296   2.393  14.232  0.00  0.00    +0.000 HD
BRANCH  15  20
ATOM     19  C   UNL     1       6.529   2.009  11.683  0.00  0.00    +0.000 C 
ATOM     20  C   UNL     1       6.240   3.377  12.321  0.00  0.00    +0.000 C 
ATOM     21  C   UNL     1       7.204   4.425  11.738  0.00  0.00    +0.000 C 
ATOM     22  C   UNL     1       4.797   3.772  11.941  0.00  0.00    +0.000 C 
ENDBRANCH  15  20
ENDBRANCH  14  16
ENDBRANCH  13  14
ENDBRANCH   1  13
TORSDOF 5
ENDMDL
