MODEL 1
REMARK VINA RESULT:      -9.2      0.000      0.000
REMARK  Name = 
REMARK  4 active torsions:
REMARK  status: ('A' for Active; 'I' for Inactive)
REMARK    1  A    between atoms: C_4  and  C_5
REMARK    2  A    between atoms: C_5  and  C_6
REMARK    3  A    between atoms: C_6  and  C_7
REMARK    4  A    between atoms: C_6  and  C_13
REMARK                            x       y       z     vdW  Elec       q    Type
REMARK                         _______ _______ _______ _____ _____    ______ ____
ROOT
ATOM      1  C   UNL     1       5.298   4.887  16.514  0.00  0.00    +0.000 C 
ENDROOT
BRANCH   1   2
ATOM      2  C   UNL     1       4.161   4.483  17.424  0.00  0.00    +0.000 A 
ATOM      3  N   UNL     1       3.485   3.348  17.380  0.00  0.00    +0.000 NA
ATOM      4  C   UNL     1       2.572   3.475  18.389  0.00  0.00    +0.000 A 
ATOM      5  C   UNL     1       1.583   2.594  18.841  0.00  0.00    +0.000 A 
ATOM      6  C   UNL     1       0.777   2.987  19.913  0.00  0.00    +0.000 A 
ATOM      7  C   UNL     1       0.955   4.237  20.523  0.00  0.00    +0.000 A 
ATOM      8  C   UNL     1       1.942   5.134  20.085  0.00  0.00    +0.000 A 
ATOM      9  C   UNL     1       2.719   4.702  19.015  0.00  0.00    +0.000 A 
ATOM     10  O   UNL     1       3.739   5.369  18.390  0.00  0.00    +0.000 OA
ENDBRANCH   1   2
BRANCH   1  11
ATOM     11  C   UNL     1       6.301   5.782  17.242  0.00  0.00    +0.000 A 
ATOM     12  C   UNL     1       6.549   7.120  16.910  0.00  0.00    +0.000 A 
ATOM     13  C   UNL     1       7.511   7.859  17.613  0.00  0.00    +0.000 A 
ATOM     14  C   UNL     1       8.230   7.278  18.656  0.00  0.00    +0.000 A 
ATOM     15  C   UNL     1       7.975   5.962  19.021  0.00  0.00    +0.000 A 
ATOM     16  C   UNL     1       7.014   5.227  18.327  0.00  0.00    +0.000 A 
ENDBRANCH   1  11
BRANCH   1  17
ATOM     17  C   UNL     1       5.859   3.675  15.723  0.00  0.00    +0.000 C 
BRANCH  17  21
ATOM     18  C   UNL     1       7.276   4.472  11.723  0.00  0.00    +0.000 A 
ATOM     19  C   UNL     1       6.203   3.607  11.920  0.00  0.00    +0.000 A 
ATOM     20  C   UNL     1       5.689   3.412  13.202  0.00  0.00    +0.000 A 
ATOM     21  C   UNL     1       6.272   4.050  14.309  0.00  0.00    +0.000 A 
ATOM     22  C   UNL     1       7.311   4.965  14.090  0.00  0.00    +0.000 A 
ATOM     23  C   UNL     1       7.812   5.171  12.802  0.00  0.00    +0.000 A 
ENDBRANCH  17  21
ENDBRANCH   1  17
TORSDOF 4
ENDMDL
MODEL 2
REMARK VINA RESULT:      -9.2      0.695      1.589
REMARK  Name = 
REMARK  4 active torsions:
REMARK  status: ('A' for Active; 'I' for Inactive)
REMARK    1  A    between atoms: C_4  and  C_5
REMARK    2  A    between atoms: C_5  and  C_6
REMARK    3  A    between atoms: C_6  and  C_7
REMARK    4  A    between atoms: C_6  and  C_13
REMARK                            x       y       z     vdW  Elec       q    Type
REMARK                         _______ _______ _______ _____ _____    ______ ____
ROOT
ATOM      1  C   UNL     1       5.344   4.967  16.571  0.00  0.00    +0.000 C 
ENDROOT
BRANCH   1   2
ATOM      2  C   UNL     1       4.179   4.631  17.473  0.00  0.00    +0.000 A 
ATOM      3  N   UNL     1       3.742   5.349  18.492  0.00  0.00    +0.000 NA
ATOM      4  C   UNL     1       2.693   4.620  18.978  0.00  0.00    +0.000 A 
ATOM      5  C   UNL     1       1.825   4.869  20.046  0.00  0.00    +0.000 A 
ATOM      6  C   UNL     1       0.821   3.937  20.324  0.00  0.00    +0.000 A 
ATOM      7  C   UNL     1       0.687   2.777  19.549  0.00  0.00    +0.000 A 
ATOM      8  C   UNL     1       1.546   2.509  18.472  0.00  0.00    +0.000 A 
ATOM      9  C   UNL     1       2.531   3.463  18.234  0.00  0.00    +0.000 A 
ATOM     10  O   UNL     1       3.496   3.454  17.262  0.00  0.00    +0.000 OA
ENDBRANCH   1   2
BRANCH   1  11
ATOM     11  C   UNL     1       6.400   5.789  17.311  0.00  0.00    +0.000 A 
ATOM     12  C   UNL     1       7.195   5.297  18.353  0.00  0.00    +0.000 A 
ATOM     13  C   UNL     1       8.119   6.132  18.996  0.00  0.00    +0.000 A 
ATOM     14  C   UNL     1       8.264   7.463  18.607  0.00  0.00    +0.000 A 
ATOM     15  C   UNL     1       7.506   7.961  17.554  0.00  0.00    +0.000 A 
ATOM     16  C   UNL     1       6.592   7.129  16.908  0.00  0.00    +0.000 A 
ENDBRANCH   1  11
BRANCH   1  17
ATOM     17  C   UNL     1       5.829   3.727  15.773  0.00  0.00    +0.000 C 
BRANCH  17  21
ATOM     18  C   UNL     1       7.273   4.465  11.771  0.00  0.00    +0.000 A 
ATOM     19  C   UNL     1       6.190   3.613  11.973  0.00  0.00    +0.000 A 
ATOM     20  C   UNL     1       5.669   3.437  13.254  0.00  0.00    +0.000 A 
ATOM     21  C   UNL     1       6.253   4.083  14.357  0.00  0.00    +0.000 A 
ATOM     22  C   UNL     1       7.301   4.985  14.132  0.00  0.00    +0.000 A 
ATOM     23  C   UNL     1       7.810   5.171  12.845  0.00  0.00    +0.000 A 
ENDBRANCH  17  21
ENDBRANCH   1  17
TORSDOF 4
ENDMDL
MODEL 3
REMARK VINA RESULT:      -9.2      0.694      1.233
REMARK  Name = 
REMARK  4 active torsions:
REMARK  status: ('A' for Active; 'I' for Inactive)
REMARK    1  A    between atoms: C_4  and  C_5
REMARK    2  A    between atoms: C_5  and  C_6
REMARK    3  A    between atoms: C_6  and  C_7
REMARK    4  A    between atoms: C_6  and  C_13
REMARK                            x       y       z     vdW  Elec       q    Type
REMARK                         _______ _______ _______ _____ _____    ______ ____
ROOT
ATOM      1  C   UNL     1       5.265   4.995  16.530  0.00  0.00    +0.000 C 
ENDROOT
BRANCH   1   2
ATOM      2  C   UNL     1       4.117   4.641  17.445  0.00  0.00    +0.000 A 
ATOM      3  N   UNL     1       3.644   5.378  18.435  0.00  0.00    +0.000 NA
ATOM      4  C   UNL     1       2.630   4.620  18.951  0.00  0.00    +0.000 A 
ATOM      5  C   UNL     1       1.750   4.871  20.008  0.00  0.00    +0.000 A 
ATOM      6  C   UNL     1       0.791   3.904  20.324  0.00  0.00    +0.000 A 
ATOM      7  C   UNL     1       0.713   2.709  19.596  0.00  0.00    +0.000 A 
ATOM      8  C   UNL     1       1.586   2.438  18.530  0.00  0.00    +0.000 A 
ATOM      9  C   UNL     1       2.524   3.428  18.253  0.00  0.00    +0.000 A 
ATOM     10  O   UNL     1       3.490   3.425  17.282  0.00  0.00    +0.000 OA
ENDBRANCH   1   2
BRANCH   1  11
ATOM     11  C   UNL     1       6.296   5.869  17.246  0.00  0.00    +0.000 A 
ATOM     12  C   UNL     1       6.560   7.205  16.919  0.00  0.00    +0.000 A 
ATOM     13  C   UNL     1       7.546   7.923  17.609  0.00  0.00    +0.000 A 
ATOM     14  C   UNL     1       8.276   7.322  18.633  0.00  0.00    +0.000 A 
ATOM     15  C   UNL     1       8.007   6.008  18.993  0.00  0.00    +0.000 A 
ATOM     16  C   UNL     1       7.021   5.294  18.312  0.00  0.00    +0.000 A 
ENDBRANCH   1  11
BRANCH   1  17
ATOM     17  C   UNL     1       5.787   3.755  15.757  0.00  0.00    +0.000 C 
BRANCH  17  21
ATOM     18  C   UNL     1       7.293   4.468  11.773  0.00  0.00    +0.000 A 
ATOM     19  C   UNL     1       6.217   3.605  11.965  0.00  0.00    +0.000 A 
ATOM     20  C   UNL     1       5.675   3.437  13.239  0.00  0.00    +0.000 A 
ATOM     21  C   UNL     1       6.232   4.101  14.344  0.00  0.00    +0.000 A 
ATOM     22  C   UNL     1       7.273   5.013  14.129  0.00  0.00    +0.000 A 
ATOM     23  C   UNL     1       7.803   5.192  12.849  0.00  0.00    +0.000 A 
ENDBRANCH  17  21
ENDBRANCH   1  17
TORSDOF 4
ENDMDL
MODEL 4
REMARK VINA RESULT:      -9.1      0.089      1.008
REMARK  Name = 
REMARK  4 active torsions:
REMARK  status: ('A' for Active; 'I' for Inactive)
REMARK    1  A    between atoms: C_4  and  C_5
REMARK    2  A    between atoms: C_5  and  C_6
REMARK    3  A    between atoms: C_6  and  C_7
REMARK    4  A    between atoms: C_6  and  C_13
REMARK                            x       y       z     vdW  Elec       q    Type
REMARK                         _______ _______ _______ _____ _____    ______ ____
ROOT
ATOM      1  C   UNL     1       5.374   4.858  16.529  0.00  0.00    +0.000 C 
ENDROOT
BRANCH   1   2
ATOM      2  C   UNL     1       4.212   4.472  17.414  0.00  0.00    +0.000 A 
ATOM      3  N   UNL     1       3.470   3.383  17.307  0.00  0.00    +0.000 NA
ATOM      4  C   UNL     1       2.562   3.507  18.321  0.00  0.00    +0.000 A 
ATOM      5  C   UNL     1       1.522   2.663  18.723  0.00  0.00    +0.000 A 
ATOM      6  C   UNL     1       0.735   3.043  19.814  0.00  0.00    +0.000 A 
ATOM      7  C   UNL     1       0.984   4.245  20.492  0.00  0.00    +0.000 A 
ATOM      8  C   UNL     1       2.024   5.105  20.106  0.00  0.00    +0.000 A 
ATOM      9  C   UNL     1       2.779   4.687  19.014  0.00  0.00    +0.000 A 
ATOM     10  O   UNL     1       3.839   5.326  18.427  0.00  0.00    +0.000 OA
ENDBRANCH   1   2
BRANCH   1  11
ATOM     11  C   UNL     1       6.404   5.688  17.295  0.00  0.00    +0.000 A 
ATOM     12  C   UNL     1       7.173   5.202  18.360  0.00  0.00    +0.000 A 
ATOM     13  C   UNL     1       8.074   6.044  19.027  0.00  0.00    +0.000 A 
ATOM     14  C   UNL     1       8.223   7.375  18.638  0.00  0.00    +0.000 A 
ATOM     15  C   UNL     1       7.493   7.866  17.563  0.00  0.00    +0.000 A 
ATOM     16  C   UNL     1       6.601   7.028  16.894  0.00  0.00    +0.000 A 
ENDBRANCH   1  11
BRANCH   1  17
ATOM     17  C   UNL     1       5.894   3.650  15.704  0.00  0.00    +0.000 C 
BRANCH  17  21
ATOM     18  C   UNL     1       7.274   4.503  11.703  0.00  0.00    +0.000 A 
ATOM     19  C   UNL     1       6.207   3.630  11.898  0.00  0.00    +0.000 A 
ATOM     20  C   UNL     1       5.706   3.417  13.182  0.00  0.00    +0.000 A 
ATOM     21  C   UNL     1       6.294   4.045  14.291  0.00  0.00    +0.000 A 
ATOM     22  C   UNL     1       7.325   4.968  14.075  0.00  0.00    +0.000 A 
ATOM     23  C   UNL     1       7.814   5.193  12.786  0.00  0.00    +0.000 A 
ENDBRANCH  17  21
ENDBRANCH   1  17
TORSDOF 4
ENDMDL
MODEL 5
REMARK VINA RESULT:      -8.8      0.712      1.599
REMARK  Name = 
REMARK  4 active torsions:
REMARK  status: ('A' for Active; 'I' for Inactive)
REMARK    1  A    between atoms: C_4  and  C_5
REMARK    2  A    between atoms: C_5  and  C_6
REMARK    3  A    between atoms: C_6  and  C_7
REMARK    4  A    between atoms: C_6  and  C_13
REMARK                            x       y       z     vdW  Elec       q    Type
REMARK                         _______ _______ _______ _____ _____    ______ ____
ROOT
ATOM      1  C   UNL     1       5.312   4.941  16.526  0.00  0.00    +0.000 C 
ENDROOT
BRANCH   1   2
ATOM      2  C   UNL     1       4.152   4.612  17.436  0.00  0.00    +0.000 A 
ATOM      3  N   UNL     1       3.697   5.355  18.430  0.00  0.00    +0.000 NA
ATOM      4  C   UNL     1       2.661   4.622  18.937  0.00  0.00    +0.000 A 
ATOM      5  C   UNL     1       1.785   4.889  19.994  0.00  0.00    +0.000 A 
ATOM      6  C   UNL     1       0.799   3.947  20.301  0.00  0.00    +0.000 A 
ATOM      7  C   UNL     1       0.690   2.759  19.563  0.00  0.00    +0.000 A 
ATOM      8  C   UNL     1       1.558   2.473  18.498  0.00  0.00    +0.000 A 
ATOM      9  C   UNL     1       2.524   3.438  18.231  0.00  0.00    +0.000 A 
ATOM     10  O   UNL     1       3.492   3.415  17.262  0.00  0.00    +0.000 OA
ENDBRANCH   1   2
BRANCH   1  11
ATOM     11  C   UNL     1       6.318   5.860  17.219  0.00  0.00    +0.000 A 
ATOM     12  C   UNL     1       6.517   7.205  16.885  0.00  0.00    +0.000 A 
ATOM     13  C   UNL     1       7.485   7.967  17.554  0.00  0.00    +0.000 A 
ATOM     14  C   UNL     1       8.260   7.401  18.565  0.00  0.00    +0.000 A 
ATOM     15  C   UNL     1       8.056   6.077  18.932  0.00  0.00    +0.000 A 
ATOM     16  C   UNL     1       7.088   5.319  18.272  0.00  0.00    +0.000 A 
ENDBRANCH   1  11
BRANCH   1  17
ATOM     17  C   UNL     1       5.865   3.674  15.819  0.00  0.00    +0.000 C 
BRANCH  17  21
ATOM     18  C   UNL     1       7.318   4.834  11.922  0.00  0.00    +0.000 A 
ATOM     19  C   UNL     1       7.888   5.383  13.068  0.00  0.00    +0.000 A 
ATOM     20  C   UNL     1       7.478   4.949  14.328  0.00  0.00    +0.000 A 
ATOM     21  C   UNL     1       6.462   3.988  14.457  0.00  0.00    +0.000 A 
ATOM     22  C   UNL     1       5.942   3.398  13.297  0.00  0.00    +0.000 A 
ATOM     23  C   UNL     1       6.366   3.823  12.036  0.00  0.00    +0.000 A 
ENDBRANCH  17  21
ENDBRANCH   1  17
TORSDOF 4
ENDMDL
MODEL 6
REMARK VINA RESULT:      -8.7      0.202      1.023
REMARK  Name = 
REMARK  4 active torsions:
REMARK  status: ('A' for Active; 'I' for Inactive)
REMARK    1  A    between atoms: C_4  and  C_5
REMARK    2  A    between atoms: C_5  and  C_6
REMARK    3  A    between atoms: C_6  and  C_7
REMARK    4  A    between atoms: C_6  and  C_13
REMARK                            x       y       z     vdW  Elec       q    Type
REMARK                         _______ _______ _______ _____ _____    ______ ____
ROOT
ATOM      1  C   UNL     1       5.277   4.823  16.445  0.00  0.00    +0.000 C 
ENDROOT
BRANCH   1   2
ATOM      2  C   UNL     1       4.126   4.444  17.348  0.00  0.00    +0.000 A 
ATOM      3  N   UNL     1       3.408   3.337  17.282  0.00  0.00    +0.000 NA
ATOM      4  C   UNL     1       2.500   3.477  18.294  0.00  0.00    +0.000 A 
ATOM      5  C   UNL     1       1.480   2.626  18.730  0.00  0.00    +0.000 A 
ATOM      6  C   UNL     1       0.689   3.027  19.810  0.00  0.00    +0.000 A 
ATOM      7  C   UNL     1       0.914   4.257  20.445  0.00  0.00    +0.000 A 
ATOM      8  C   UNL     1       1.934   5.125  20.024  0.00  0.00    +0.000 A 
ATOM      9  C   UNL     1       2.694   4.685  18.945  0.00  0.00    +0.000 A 
ATOM     10  O   UNL     1       3.738   5.325  18.332  0.00  0.00    +0.000 OA
ENDBRANCH   1   2
BRANCH   1  11
ATOM     11  C   UNL     1       6.271   5.735  17.165  0.00  0.00    +0.000 A 
ATOM     12  C   UNL     1       6.452   7.093  16.871  0.00  0.00    +0.000 A 
ATOM     13  C   UNL     1       7.409   7.847  17.562  0.00  0.00    +0.000 A 
ATOM     14  C   UNL     1       8.192   7.262  18.556  0.00  0.00    +0.000 A 
ATOM     15  C   UNL     1       8.005   5.925  18.884  0.00  0.00    +0.000 A 
ATOM     16  C   UNL     1       7.048   5.175  18.202  0.00  0.00    +0.000 A 
ENDBRANCH   1  11
BRANCH   1  17
ATOM     17  C   UNL     1       5.847   3.591  15.693  0.00  0.00    +0.000 C 
BRANCH  17  21
ATOM     18  C   UNL     1       7.372   4.925  11.880  0.00  0.00    +0.000 A 
ATOM     19  C   UNL     1       7.907   5.436  13.059  0.00  0.00    +0.000 A 
ATOM     20  C   UNL     1       7.475   4.947  14.292  0.00  0.00    +0.000 A 
ATOM     21  C   UNL     1       6.471   3.967  14.359  0.00  0.00    +0.000 A 
ATOM     22  C   UNL     1       5.986   3.416  13.166  0.00  0.00    +0.000 A 
ATOM     23  C   UNL     1       6.433   3.897  11.932  0.00  0.00    +0.000 A 
ENDBRANCH  17  21
ENDBRANCH   1  17
TORSDOF 4
ENDMDL
MODEL 7
REMARK VINA RESULT:      -8.7      3.080      5.972
REMARK  Name = 
REMARK  4 active torsions:
REMARK  status: ('A' for Active; 'I' for Inactive)
REMARK    1  A    between atoms: C_4  and  C_5
REMARK    2  A    between atoms: C_5  and  C_6
REMARK    3  A    between atoms: C_6  and  C_7
REMARK    4  A    between atoms: C_6  and  C_13
REMARK                            x       y       z     vdW  Elec       q    Type
REMARK                         _______ _______ _______ _____ _____    ______ ____
ROOT
ATOM      1  C   UNL     1       3.293   5.766  18.997  0.00  0.00    +0.000 C 
ENDROOT
BRANCH   1   2
ATOM      2  C   UNL     1       2.540   7.075  19.053  0.00  0.00    +0.000 A 
ATOM      3  N   UNL     1       2.397   7.942  18.066  0.00  0.00    +0.000 NA
ATOM      4  C   UNL     1       1.655   8.947  18.621  0.00  0.00    +0.000 A 
ATOM      5  C   UNL     1       1.174  10.139  18.069  0.00  0.00    +0.000 A 
ATOM      6  C   UNL     1       0.425  10.997  18.878  0.00  0.00    +0.000 A 
ATOM      7  C   UNL     1       0.160  10.670  20.216  0.00  0.00    +0.000 A 
ATOM      8  C   UNL     1       0.631   9.478  20.789  0.00  0.00    +0.000 A 
ATOM      9  C   UNL     1       1.374   8.656  19.946  0.00  0.00    +0.000 A 
ATOM     10  O   UNL     1       1.952   7.450  20.240  0.00  0.00    +0.000 OA
ENDBRANCH   1   2
BRANCH   1  11
ATOM     11  C   UNL     1       2.392   4.590  19.377  0.00  0.00    +0.000 A 
ATOM     12  C   UNL     1       2.177   4.155  20.691  0.00  0.00    +0.000 A 
ATOM     13  C   UNL     1       1.358   3.047  20.946  0.00  0.00    +0.000 A 
ATOM     14  C   UNL     1       0.740   2.364  19.900  0.00  0.00    +0.000 A 
ATOM     15  C   UNL     1       0.917   2.799  18.592  0.00  0.00    +0.000 A 
ATOM     16  C   UNL     1       1.726   3.906  18.337  0.00  0.00    +0.000 A 
ENDBRANCH   1  11
BRANCH   1  17
ATOM     17  C   UNL     1       4.128   5.639  17.694  0.00  0.00    +0.000 C 
BRANCH  17  21
ATOM     18  C   UNL     1       8.172   6.880  18.559  0.00  0.00    +0.000 A 
ATOM     19  C   UNL     1       7.615   5.801  19.241  0.00  0.00    +0.000 A 
ATOM     20  C   UNL     1       6.340   5.346  18.907  0.00  0.00    +0.000 A 
ATOM     21  C   UNL     1       5.591   5.992  17.910  0.00  0.00    +0.000 A 
ATOM     22  C   UNL     1       6.186   7.035  17.189  0.00  0.00    +0.000 A 
ATOM     23  C   UNL     1       7.469   7.478  17.515  0.00  0.00    +0.000 A 
ENDBRANCH  17  21
ENDBRANCH   1  17
TORSDOF 4
ENDMDL
MODEL 8
REMARK VINA RESULT:      -8.7      0.718      1.888
REMARK  Name = 
REMARK  4 active torsions:
REMARK  status: ('A' for Active; 'I' for Inactive)
REMARK    1  A    between atoms: C_4  and  C_5
REMARK    2  A    between atoms: C_5  and  C_6
REMARK    3  A    between atoms: C_6  and  C_7
REMARK    4  A    between atoms: C_6  and  C_13
REMARK                            x       y       z     vdW  Elec       q    Type
REMARK                         _______ _______ _______ _____ _____    ______ ____
ROOT
ATOM      1  C   UNL     1       5.328   4.886  16.550  0.00  0.00    +0.000 C 
ENDROOT
BRANCH   1   2
ATOM      2  C   UNL     1       4.161   4.573  17.457  0.00  0.00    +0.000 A 
ATOM      3  N   UNL     1       3.738   5.302  18.475  0.00  0.00    +0.000 NA
ATOM      4  C   UNL     1       2.679   4.592  18.967  0.00  0.00    +0.000 A 
ATOM      5  C   UNL     1       1.818   4.860  20.036  0.00  0.00    +0.000 A 
ATOM      6  C   UNL     1       0.800   3.946  20.321  0.00  0.00    +0.000 A 
ATOM      7  C   UNL     1       0.644   2.786  19.550  0.00  0.00    +0.000 A 
ATOM      8  C   UNL     1       1.495   2.499  18.471  0.00  0.00    +0.000 A 
ATOM      9  C   UNL     1       2.495   3.436  18.227  0.00  0.00    +0.000 A 
ATOM     10  O   UNL     1       3.457   3.407  17.252  0.00  0.00    +0.000 OA
ENDBRANCH   1   2
BRANCH   1  11
ATOM     11  C   UNL     1       6.378   5.733  17.269  0.00  0.00    +0.000 A 
ATOM     12  C   UNL     1       7.213   5.256  18.288  0.00  0.00    +0.000 A 
ATOM     13  C   UNL     1       8.128   6.113  18.915  0.00  0.00    +0.000 A 
ATOM     14  C   UNL     1       8.227   7.450  18.532  0.00  0.00    +0.000 A 
ATOM     15  C   UNL     1       7.429   7.933  17.502  0.00  0.00    +0.000 A 
ATOM     16  C   UNL     1       6.523   7.080  16.872  0.00  0.00    +0.000 A 
ENDBRANCH   1  11
BRANCH   1  17
ATOM     17  C   UNL     1       5.819   3.625  15.790  0.00  0.00    +0.000 C 
BRANCH  17  21
ATOM     18  C   UNL     1       7.357   4.867  11.951  0.00  0.00    +0.000 A 
ATOM     19  C   UNL     1       7.899   5.394  13.120  0.00  0.00    +0.000 A 
ATOM     20  C   UNL     1       7.462   4.934  14.362  0.00  0.00    +0.000 A 
ATOM     21  C   UNL     1       6.447   3.968  14.448  0.00  0.00    +0.000 A 
ATOM     22  C   UNL     1       5.954   3.400  13.266  0.00  0.00    +0.000 A 
ATOM     23  C   UNL     1       6.405   3.851  12.024  0.00  0.00    +0.000 A 
ENDBRANCH  17  21
ENDBRANCH   1  17
TORSDOF 4
ENDMDL
MODEL 9
REMARK VINA RESULT:      -8.7      0.229      1.436
REMARK  Name = 
REMARK  4 active torsions:
REMARK  status: ('A' for Active; 'I' for Inactive)
REMARK    1  A    between atoms: C_4  and  C_5
REMARK    2  A    between atoms: C_5  and  C_6
REMARK    3  A    between atoms: C_6  and  C_7
REMARK    4  A    between atoms: C_6  and  C_13
REMARK                            x       y       z     vdW  Elec       q    Type
REMARK                         _______ _______ _______ _____ _____    ______ ____
ROOT
ATOM      1  C   UNL     1       5.320   4.793  16.488  0.00  0.00    +0.000 C 
ENDROOT
BRANCH   1   2
ATOM      2  C   UNL     1       4.150   4.438  17.376  0.00  0.00    +0.000 A 
ATOM      3  N   UNL     1       3.340   3.403  17.234  0.00  0.00    +0.000 NA
ATOM      4  C   UNL     1       2.457   3.536  18.269  0.00  0.00    +0.000 A 
ATOM      5  C   UNL     1       1.373   2.740  18.651  0.00  0.00    +0.000 A 
ATOM      6  C   UNL     1       0.629   3.116  19.773  0.00  0.00    +0.000 A 
ATOM      7  C   UNL     1       0.963   4.267  20.500  0.00  0.00    +0.000 A 
ATOM      8  C   UNL     1       2.049   5.079  20.134  0.00  0.00    +0.000 A 
ATOM      9  C   UNL     1       2.759   4.666  19.011  0.00  0.00    +0.000 A 
ATOM     10  O   UNL     1       3.847   5.266  18.435  0.00  0.00    +0.000 OA
ENDBRANCH   1   2
BRANCH   1  11
ATOM     11  C   UNL     1       6.352   5.634  17.239  0.00  0.00    +0.000 A 
ATOM     12  C   UNL     1       7.173   5.146  18.263  0.00  0.00    +0.000 A 
ATOM     13  C   UNL     1       8.072   5.998  18.919  0.00  0.00    +0.000 A 
ATOM     14  C   UNL     1       8.168   7.342  18.560  0.00  0.00    +0.000 A 
ATOM     15  C   UNL     1       7.384   7.837  17.525  0.00  0.00    +0.000 A 
ATOM     16  C   UNL     1       6.494   6.989  16.866  0.00  0.00    +0.000 A 
ENDBRANCH   1  11
BRANCH   1  17
ATOM     17  C   UNL     1       5.835   3.560  15.698  0.00  0.00    +0.000 C 
BRANCH  17  21
ATOM     18  C   UNL     1       7.367   4.928  11.900  0.00  0.00    +0.000 A 
ATOM     19  C   UNL     1       7.904   5.425  13.085  0.00  0.00    +0.000 A 
ATOM     20  C   UNL     1       7.469   4.924  14.312  0.00  0.00    +0.000 A 
ATOM     21  C   UNL     1       6.461   3.948  14.368  0.00  0.00    +0.000 A 
ATOM     22  C   UNL     1       5.975   3.412  13.169  0.00  0.00    +0.000 A 
ATOM     23  C   UNL     1       6.424   3.903  11.941  0.00  0.00    +0.000 A 
ENDBRANCH  17  21
ENDBRANCH   1  17
TORSDOF 4
ENDMDL
