MODEL 1
REMARK VINA RESULT:      -7.6      0.000      0.000
REMARK  Name = 
REMARK  9 active torsions:
REMARK  status: ('A' for Active; 'I' for Inactive)
REMARK    1  A    between atoms: C_1  and  O_2
REMARK    2  A    between atoms: O_2  and  C_3
REMARK    3  A    between atoms: C_8  and  N_9
REMARK    4  A    between atoms: N_12  and  C_13
REMARK    5  A    between atoms: C_13  and  C_14
REMARK    6  A    between atoms: C_14  and  C_15
REMARK    7  A    between atoms: C_15  and  N_16
REMARK    8  A    between atoms: C_20  and  C_21
REMARK    9  A    between atoms: C_24  and  N_25
REMARK                            x       y       z     vdW  Elec       q    Type
REMARK                         _______ _______ _______ _____ _____    ______ ____
ROOT
ATOM      1  C   UNL     1      -0.237   9.998  20.535  0.00  0.00    +0.000 C 
ENDROOT
BRANCH   1   2
ATOM      2  N   UNL     1       0.754   9.152  19.877  0.00  0.00    +0.000 N 
ATOM      3  C   UNL     1       1.116   9.504  18.581  0.00  0.00    +0.000 C 
ATOM      4  O   UNL     1       0.609  10.441  17.963  0.00  0.00    +0.000 OA
ATOM      5  C   UNL     1       2.268   8.746  17.987  0.00  0.00    +0.000 C 
ATOM      6  C   UNL     1       2.259   7.299  18.453  0.00  0.00    +0.000 C 
ATOM      7  C   UNL     1       2.338   7.245  19.972  0.00  0.00    +0.000 C 
ATOM      8  C   UNL     1       1.373   8.179  20.658  0.00  0.00    +0.000 C 
ATOM      9  O   UNL     1       1.220   8.092  21.877  0.00  0.00    +0.000 OA
BRANCH   6  10
ATOM     10  C   UNL     1       3.406   6.530  17.814  0.00  0.00    +0.000 A 
ATOM     11  C   UNL     1       4.432   7.204  17.128  0.00  0.00    +0.000 A 
ATOM     12  C   UNL     1       5.474   6.502  16.527  0.00  0.00    +0.000 A 
ATOM     13  C   UNL     1       5.494   5.106  16.601  0.00  0.00    +0.000 A 
ATOM     14  C   UNL     1       4.480   4.415  17.278  0.00  0.00    +0.000 A 
ATOM     15  C   UNL     1       3.440   5.130  17.881  0.00  0.00    +0.000 A 
BRANCH  13  16
ATOM     16  N   UNL     1       6.586   4.365  15.960  0.00  0.00    +0.000 N 
ATOM     17  O   UNL     1       6.321   3.722  14.933  0.00  0.00    +0.000 OA
ATOM     18  O   UNL     1       7.708   4.426  16.481  0.00  0.00    +0.000 OA
ENDBRANCH  13  16
ENDBRANCH   6  10
ENDBRANCH   1   2
BRANCH   1  19
ATOM     19  C   UNL     1       0.429  11.143  21.305  0.00  0.00    +0.000 C 
BRANCH  19  20
ATOM     20  C   UNL     1      -0.043  12.511  20.805  0.00  0.00    +0.000 C 
BRANCH  20  24
ATOM     21  N   UNL     1      -3.461  13.080  21.949  0.00  0.00    +0.000 N 
ATOM     22  C   UNL     1      -2.815  13.867  20.894  0.00  0.00    +0.000 C 
ATOM     23  C   UNL     1      -1.476  14.426  21.417  0.00  0.00    +0.000 C 
ATOM     24  N   UNL     1      -0.532  13.375  21.890  0.00  0.00    +0.000 NA
ATOM     25  C   UNL     1      -1.226  12.589  22.939  0.00  0.00    +0.000 C 
ATOM     26  C   UNL     1      -2.622  12.032  22.553  0.00  0.00    +0.000 C 
BRANCH  21  32
ATOM     27  C   UNL     1      -5.108  14.141  23.479  0.00  0.00    +0.000 A 
ATOM     28  C   UNL     1      -6.458  14.309  23.852  0.00  0.00    +0.000 A 
ATOM     29  C   UNL     1      -7.477  13.691  23.139  0.00  0.00    +0.000 A 
ATOM     30  C   UNL     1      -7.165  12.894  22.050  0.00  0.00    +0.000 A 
ATOM     31  C   UNL     1      -5.828  12.715  21.680  0.00  0.00    +0.000 A 
ATOM     32  C   UNL     1      -4.762  13.320  22.377  0.00  0.00    +0.000 A 
BRANCH  27  34
ATOM     33  C   UNL     1      -3.986  16.106  24.199  0.00  0.00    +0.000 C 
ATOM     34  O   UNL     1      -4.102  14.686  24.250  0.00  0.00    +0.000 OA
ENDBRANCH  27  34
ENDBRANCH  21  32
ENDBRANCH  20  24
ENDBRANCH  19  20
ENDBRANCH   1  19
TORSDOF 8
ENDMDL
MODEL 2
REMARK VINA RESULT:      -7.5      1.008      2.089
REMARK  Name = 
REMARK  9 active torsions:
REMARK  status: ('A' for Active; 'I' for Inactive)
REMARK    1  A    between atoms: C_1  and  O_2
REMARK    2  A    between atoms: O_2  and  C_3
REMARK    3  A    between atoms: C_8  and  N_9
REMARK    4  A    between atoms: N_12  and  C_13
REMARK    5  A    between atoms: C_13  and  C_14
REMARK    6  A    between atoms: C_14  and  C_15
REMARK    7  A    between atoms: C_15  and  N_16
REMARK    8  A    between atoms: C_20  and  C_21
REMARK    9  A    between atoms: C_24  and  N_25
REMARK                            x       y       z     vdW  Elec       q    Type
REMARK                         _______ _______ _______ _____ _____    ______ ____
ROOT
ATOM      1  C   UNL     1      -0.091  10.032  20.511  0.00  0.00    +0.000 C 
ENDROOT
BRANCH   1   2
ATOM      2  N   UNL     1       0.869   9.172  19.827  0.00  0.00    +0.000 N 
ATOM      3  C   UNL     1       1.250   9.555  18.545  0.00  0.00    +0.000 C 
ATOM      4  O   UNL     1       0.783  10.531  17.958  0.00  0.00    +0.000 OA
ATOM      5  C   UNL     1       2.375   8.774  17.928  0.00  0.00    +0.000 C 
ATOM      6  C   UNL     1       2.309   7.313  18.343  0.00  0.00    +0.000 C 
ATOM      7  C   UNL     1       2.379   7.203  19.860  0.00  0.00    +0.000 C 
ATOM      8  C   UNL     1       1.447   8.149  20.575  0.00  0.00    +0.000 C 
ATOM      9  O   UNL     1       1.286   8.025  21.790  0.00  0.00    +0.000 OA
BRANCH   6  10
ATOM     10  C   UNL     1       3.428   6.524  17.681  0.00  0.00    +0.000 A 
ATOM     11  C   UNL     1       3.424   5.117  17.694  0.00  0.00    +0.000 A 
ATOM     12  C   UNL     1       4.457   4.392  17.104  0.00  0.00    +0.000 A 
ATOM     13  C   UNL     1       5.516   5.074  16.497  0.00  0.00    +0.000 A 
ATOM     14  C   UNL     1       5.540   6.474  16.475  0.00  0.00    +0.000 A 
ATOM     15  C   UNL     1       4.497   7.193  17.067  0.00  0.00    +0.000 A 
BRANCH  13  16
ATOM     16  N   UNL     1       6.609   4.311  15.885  0.00  0.00    +0.000 N 
ATOM     17  O   UNL     1       7.714   4.336  16.446  0.00  0.00    +0.000 OA
ATOM     18  O   UNL     1       6.362   3.685  14.844  0.00  0.00    +0.000 OA
ENDBRANCH  13  16
ENDBRANCH   6  10
ENDBRANCH   1   2
BRANCH   1  19
ATOM     19  C   UNL     1       0.598  11.243  21.147  0.00  0.00    +0.000 C 
BRANCH  19  20
ATOM     20  C   UNL     1      -0.405  12.350  21.486  0.00  0.00    +0.000 C 
BRANCH  20  24
ATOM     21  N   UNL     1      -3.415  14.130  22.526  0.00  0.00    +0.000 N 
ATOM     22  C   UNL     1      -2.480  13.498  23.462  0.00  0.00    +0.000 C 
ATOM     23  C   UNL     1      -2.274  12.023  23.064  0.00  0.00    +0.000 C 
ATOM     24  N   UNL     1      -1.771  11.841  21.674  0.00  0.00    +0.000 NA
ATOM     25  C   UNL     1      -2.730  12.508  20.761  0.00  0.00    +0.000 C 
ATOM     26  C   UNL     1      -3.073  13.983  21.102  0.00  0.00    +0.000 C 
BRANCH  21  32
ATOM     27  C   UNL     1      -5.764  14.157  23.338  0.00  0.00    +0.000 A 
ATOM     28  C   UNL     1      -6.886  14.918  23.728  0.00  0.00    +0.000 A 
ATOM     29  C   UNL     1      -6.833  16.306  23.751  0.00  0.00    +0.000 A 
ATOM     30  C   UNL     1      -5.666  16.953  23.382  0.00  0.00    +0.000 A 
ATOM     31  C   UNL     1      -4.551  16.205  22.986  0.00  0.00    +0.000 A 
ATOM     32  C   UNL     1      -4.562  14.796  22.944  0.00  0.00    +0.000 A 
BRANCH  27  34
ATOM     33  C   UNL     1      -7.073  12.212  23.711  0.00  0.00    +0.000 C 
ATOM     34  O   UNL     1      -5.859  12.785  23.233  0.00  0.00    +0.000 OA
ENDBRANCH  27  34
ENDBRANCH  21  32
ENDBRANCH  20  24
ENDBRANCH  19  20
ENDBRANCH   1  19
TORSDOF 8
ENDMDL
MODEL 3
REMARK VINA RESULT:      -7.3      4.976      8.776
REMARK  Name = 
REMARK  9 active torsions:
REMARK  status: ('A' for Active; 'I' for Inactive)
REMARK    1  A    between atoms: C_1  and  O_2
REMARK    2  A    between atoms: O_2  and  C_3
REMARK    3  A    between atoms: C_8  and  N_9
REMARK    4  A    between atoms: N_12  and  C_13
REMARK    5  A    between atoms: C_13  and  C_14
REMARK    6  A    between atoms: C_14  and  C_15
REMARK    7  A    between atoms: C_15  and  N_16
REMARK    8  A    between atoms: C_20  and  C_21
REMARK    9  A    between atoms: C_24  and  N_25
REMARK                            x       y       z     vdW  Elec       q    Type
REMARK                         _______ _______ _______ _____ _____    ______ ____
ROOT
ATOM      1  C   UNL     1       6.541   4.560  17.374  0.00  0.00    +0.000 C 
ENDROOT
BRANCH   1   2
ATOM      2  N   UNL     1       7.024   5.901  17.688  0.00  0.00    +0.000 N 
ATOM      3  C   UNL     1       6.425   6.957  17.009  0.00  0.00    +0.000 C 
ATOM      4  O   UNL     1       5.567   6.808  16.139  0.00  0.00    +0.000 OA
ATOM      5  C   UNL     1       6.791   8.337  17.475  0.00  0.00    +0.000 C 
ATOM      6  C   UNL     1       8.245   8.388  17.916  0.00  0.00    +0.000 C 
ATOM      7  C   UNL     1       8.480   7.388  19.039  0.00  0.00    +0.000 C 
ATOM      8  C   UNL     1       7.911   6.020  18.754  0.00  0.00    +0.000 C 
ATOM      9  O   UNL     1       8.195   5.086  19.506  0.00  0.00    +0.000 OA
BRANCH   6  10
ATOM     10  C   UNL     1       8.618   9.799  18.348  0.00  0.00    +0.000 A 
ATOM     11  C   UNL     1       8.285  10.909  17.550  0.00  0.00    +0.000 A 
ATOM     12  C   UNL     1       8.640  12.200  17.935  0.00  0.00    +0.000 A 
ATOM     13  C   UNL     1       9.344  12.392  19.127  0.00  0.00    +0.000 A 
ATOM     14  C   UNL     1       9.687  11.300  19.935  0.00  0.00    +0.000 A 
ATOM     15  C   UNL     1       9.323  10.008  19.542  0.00  0.00    +0.000 A 
BRANCH  13  16
ATOM     16  N   UNL     1       9.727  13.750  19.527  0.00  0.00    +0.000 N 
ATOM     17  O   UNL     1      10.846  13.906  20.038  0.00  0.00    +0.000 OA
ATOM     18  O   UNL     1       8.910  14.661  19.331  0.00  0.00    +0.000 OA
ENDBRANCH  13  16
ENDBRANCH   6  10
ENDBRANCH   1   2
BRANCH   1  19
ATOM     19  C   UNL     1       5.434   4.125  18.338  0.00  0.00    +0.000 C 
BRANCH  19  20
ATOM     20  C   UNL     1       4.099   3.929  17.614  0.00  0.00    +0.000 C 
BRANCH  20  24
ATOM     21  N   UNL     1       2.386   6.730  19.205  0.00  0.00    +0.000 N 
ATOM     22  C   UNL     1       3.540   6.042  19.793  0.00  0.00    +0.000 C 
ATOM     23  C   UNL     1       3.258   4.528  19.856  0.00  0.00    +0.000 C 
ATOM     24  N   UNL     1       2.950   3.920  18.532  0.00  0.00    +0.000 NA
ATOM     25  C   UNL     1       1.794   4.651  17.961  0.00  0.00    +0.000 C 
ATOM     26  C   UNL     1       1.930   6.197  17.911  0.00  0.00    +0.000 C 
BRANCH  21  32
ATOM     27  C   UNL     1       1.505   9.055  19.239  0.00  0.00    +0.000 A 
ATOM     28  C   UNL     1       0.859  10.078  19.964  0.00  0.00    +0.000 A 
ATOM     29  C   UNL     1       0.424   9.865  21.266  0.00  0.00    +0.000 A 
ATOM     30  C   UNL     1       0.632   8.633  21.864  0.00  0.00    +0.000 A 
ATOM     31  C   UNL     1       1.280   7.616  21.154  0.00  0.00    +0.000 A 
ATOM     32  C   UNL     1       1.741   7.790  19.834  0.00  0.00    +0.000 A 
BRANCH  27  34
ATOM     33  C   UNL     1       2.375  10.662  17.723  0.00  0.00    +0.000 C 
ATOM     34  O   UNL     1       2.012   9.309  17.982  0.00  0.00    +0.000 OA
ENDBRANCH  27  34
ENDBRANCH  21  32
ENDBRANCH  20  24
ENDBRANCH  19  20
ENDBRANCH   1  19
TORSDOF 8
ENDMDL
MODEL 4
REMARK VINA RESULT:      -7.1      4.844      7.515
REMARK  Name = 
REMARK  9 active torsions:
REMARK  status: ('A' for Active; 'I' for Inactive)
REMARK    1  A    between atoms: C_1  and  O_2
REMARK    2  A    between atoms: O_2  and  C_3
REMARK    3  A    between atoms: C_8  and  N_9
REMARK    4  A    between atoms: N_12  and  C_13
REMARK    5  A    between atoms: C_13  and  C_14
REMARK    6  A    between atoms: C_14  and  C_15
REMARK    7  A    between atoms: C_15  and  N_16
REMARK    8  A    between atoms: C_20  and  C_21
REMARK    9  A    between atoms: C_24  and  N_25
REMARK                            x       y       z     vdW  Elec       q    Type
REMARK                         _______ _______ _______ _____ _____    ______ ____
ROOT
ATOM      1  C   UNL     1      -0.218  11.739  20.667  0.00  0.00    +0.000 C 
ENDROOT
BRANCH   1   2
ATOM      2  N   UNL     1       0.372  10.423  20.450  0.00  0.00    +0.000 N 
ATOM      3  C   UNL     1       0.628   9.657  21.583  0.00  0.00    +0.000 C 
ATOM      4  O   UNL     1       0.434  10.054  22.732  0.00  0.00    +0.000 OA
ATOM      5  C   UNL     1       1.055   8.238  21.340  0.00  0.00    +0.000 C 
ATOM      6  C   UNL     1       1.920   8.141  20.094  0.00  0.00    +0.000 C 
ATOM      7  C   UNL     1       1.148   8.658  18.888  0.00  0.00    +0.000 C 
ATOM      8  C   UNL     1       0.466   9.981  19.133  0.00  0.00    +0.000 C 
ATOM      9  O   UNL     1      -0.034  10.581  18.180  0.00  0.00    +0.000 OA
BRANCH   6  10
ATOM     10  C   UNL     1       2.380   6.706  19.879  0.00  0.00    +0.000 A 
ATOM     11  C   UNL     1       3.330   6.394  18.890  0.00  0.00    +0.000 A 
ATOM     12  C   UNL     1       3.740   5.079  18.679  0.00  0.00    +0.000 A 
ATOM     13  C   UNL     1       3.192   4.056  19.458  0.00  0.00    +0.000 A 
ATOM     14  C   UNL     1       2.243   4.345  20.447  0.00  0.00    +0.000 A 
ATOM     15  C   UNL     1       1.841   5.669  20.653  0.00  0.00    +0.000 A 
BRANCH  13  16
ATOM     16  N   UNL     1       3.616   2.670  19.230  0.00  0.00    +0.000 N 
ATOM     17  O   UNL     1       2.865   1.940  18.566  0.00  0.00    +0.000 OA
ATOM     18  O   UNL     1       4.699   2.312  19.714  0.00  0.00    +0.000 OA
ENDBRANCH  13  16
ENDBRANCH   6  10
ENDBRANCH   1   2
BRANCH   1  19
ATOM     19  C   UNL     1       0.860  12.810  20.861  0.00  0.00    +0.000 C 
BRANCH  19  20
ATOM     20  C   UNL     1       1.171  13.543  19.553  0.00  0.00    +0.000 C 
BRANCH  20  24
ATOM     21  N   UNL     1       4.425  15.068  18.926  0.00  0.00    +0.000 N 
ATOM     22  C   UNL     1       4.059  14.426  20.192  0.00  0.00    +0.000 C 
ATOM     23  C   UNL     1       2.747  15.041  20.720  0.00  0.00    +0.000 C 
ATOM     24  N   UNL     1       1.608  14.930  19.768  0.00  0.00    +0.000 NA
ATOM     25  C   UNL     1       2.021  15.572  18.497  0.00  0.00    +0.000 C 
ATOM     26  C   UNL     1       3.369  15.084  17.901  0.00  0.00    +0.000 C 
BRANCH  21  32
ATOM     27  C   UNL     1       6.029  16.957  19.134  0.00  0.00    +0.000 A 
ATOM     28  C   UNL     1       7.310  17.474  18.852  0.00  0.00    +0.000 A 
ATOM     29  C   UNL     1       8.253  16.712  18.173  0.00  0.00    +0.000 A 
ATOM     30  C   UNL     1       7.930  15.431  17.761  0.00  0.00    +0.000 A 
ATOM     31  C   UNL     1       6.657  14.914  18.029  0.00  0.00    +0.000 A 
ATOM     32  C   UNL     1       5.669  15.653  18.711  0.00  0.00    +0.000 A 
BRANCH  27  34
ATOM     33  C   UNL     1       5.511  18.504  20.860  0.00  0.00    +0.000 C 
ATOM     34  O   UNL     1       5.074  17.756  19.729  0.00  0.00    +0.000 OA
ENDBRANCH  27  34
ENDBRANCH  21  32
ENDBRANCH  20  24
ENDBRANCH  19  20
ENDBRANCH   1  19
TORSDOF 8
ENDMDL
MODEL 5
REMARK VINA RESULT:      -7.1      2.137      3.065
REMARK  Name = 
REMARK  9 active torsions:
REMARK  status: ('A' for Active; 'I' for Inactive)
REMARK    1  A    between atoms: C_1  and  O_2
REMARK    2  A    between atoms: O_2  and  C_3
REMARK    3  A    between atoms: C_8  and  N_9
REMARK    4  A    between atoms: N_12  and  C_13
REMARK    5  A    between atoms: C_13  and  C_14
REMARK    6  A    between atoms: C_14  and  C_15
REMARK    7  A    between atoms: C_15  and  N_16
REMARK    8  A    between atoms: C_20  and  C_21
REMARK    9  A    between atoms: C_24  and  N_25
REMARK                            x       y       z     vdW  Elec       q    Type
REMARK                         _______ _______ _______ _____ _____    ______ ____
ROOT
ATOM      1  C   UNL     1      -0.422  11.107  20.439  0.00  0.00    +0.000 C 
ENDROOT
BRANCH   1   2
ATOM      2  N   UNL     1       0.263   9.824  20.320  0.00  0.00    +0.000 N 
ATOM      3  C   UNL     1       0.030   8.894  21.327  0.00  0.00    +0.000 C 
ATOM      4  O   UNL     1      -0.667   9.121  22.316  0.00  0.00    +0.000 OA
ATOM      5  C   UNL     1       0.584   7.517  21.098  0.00  0.00    +0.000 C 
ATOM      6  C   UNL     1       1.913   7.586  20.362  0.00  0.00    +0.000 C 
ATOM      7  C   UNL     1       1.727   8.294  19.026  0.00  0.00    +0.000 C 
ATOM      8  C   UNL     1       0.947   9.581  19.131  0.00  0.00    +0.000 C 
ATOM      9  O   UNL     1       0.889  10.326  18.152  0.00  0.00    +0.000 OA
BRANCH   6  10
ATOM     10  C   UNL     1       2.485   6.190  20.170  0.00  0.00    +0.000 A 
ATOM     11  C   UNL     1       3.580   5.971  19.315  0.00  0.00    +0.000 A 
ATOM     12  C   UNL     1       4.096   4.690  19.124  0.00  0.00    +0.000 A 
ATOM     13  C   UNL     1       3.510   3.609  19.787  0.00  0.00    +0.000 A 
ATOM     14  C   UNL     1       2.417   3.805  20.642  0.00  0.00    +0.000 A 
ATOM     15  C   UNL     1       1.910   5.095  20.830  0.00  0.00    +0.000 A 
BRANCH  13  16
ATOM     16  N   UNL     1       4.045   2.259  19.578  0.00  0.00    +0.000 N 
ATOM     17  O   UNL     1       4.995   1.900  20.290  0.00  0.00    +0.000 OA
ATOM     18  O   UNL     1       3.517   1.558  18.704  0.00  0.00    +0.000 OA
ENDBRANCH  13  16
ENDBRANCH   6  10
ENDBRANCH   1   2
BRANCH   1  19
ATOM     19  C   UNL     1       0.434  12.131  21.191  0.00  0.00    +0.000 C 
BRANCH  19  20
ATOM     20  C   UNL     1       0.035  13.567  20.842  0.00  0.00    +0.000 C 
BRANCH  20  24
ATOM     21  N   UNL     1      -3.305  14.046  22.230  0.00  0.00    +0.000 N 
ATOM     22  C   UNL     1      -2.719  14.914  21.204  0.00  0.00    +0.000 C 
ATOM     23  C   UNL     1      -1.348  15.428  21.688  0.00  0.00    +0.000 C 
ATOM     24  N   UNL     1      -0.383  14.343  22.019  0.00  0.00    +0.000 NA
ATOM     25  C   UNL     1      -1.017  13.477  23.042  0.00  0.00    +0.000 C 
ATOM     26  C   UNL     1      -2.437  12.953  22.698  0.00  0.00    +0.000 C 
BRANCH  21  32
ATOM     27  C   UNL     1      -5.658  13.345  22.619  0.00  0.00    +0.000 A 
ATOM     28  C   UNL     1      -6.921  13.651  23.168  0.00  0.00    +0.000 A 
ATOM     29  C   UNL     1      -7.129  14.834  23.865  0.00  0.00    +0.000 A 
ATOM     30  C   UNL     1      -6.084  15.730  24.020  0.00  0.00    +0.000 A 
ATOM     31  C   UNL     1      -4.831  15.438  23.471  0.00  0.00    +0.000 A 
ATOM     32  C   UNL     1      -4.577  14.252  22.753  0.00  0.00    +0.000 A 
BRANCH  27  34
ATOM     33  C   UNL     1      -6.042  12.264  20.540  0.00  0.00    +0.000 C 
ATOM     34  O   UNL     1      -5.491  12.211  21.853  0.00  0.00    +0.000 OA
ENDBRANCH  27  34
ENDBRANCH  21  32
ENDBRANCH  20  24
ENDBRANCH  19  20
ENDBRANCH   1  19
TORSDOF 8
ENDMDL
MODEL 6
REMARK VINA RESULT:      -7.1      5.192      8.760
REMARK  Name = 
REMARK  9 active torsions:
REMARK  status: ('A' for Active; 'I' for Inactive)
REMARK    1  A    between atoms: C_1  and  O_2
REMARK    2  A    between atoms: O_2  and  C_3
REMARK    3  A    between atoms: C_8  and  N_9
REMARK    4  A    between atoms: N_12  and  C_13
REMARK    5  A    between atoms: C_13  and  C_14
REMARK    6  A    between atoms: C_14  and  C_15
REMARK    7  A    between atoms: C_15  and  N_16
REMARK    8  A    between atoms: C_20  and  C_21
REMARK    9  A    between atoms: C_24  and  N_25
REMARK                            x       y       z     vdW  Elec       q    Type
REMARK                         _______ _______ _______ _____ _____    ______ ____
ROOT
ATOM      1  C   UNL     1       6.360   4.553  17.605  0.00  0.00    +0.000 C 
ENDROOT
BRANCH   1   2
ATOM      2  N   UNL     1       6.897   5.888  17.853  0.00  0.00    +0.000 N 
ATOM      3  C   UNL     1       6.326   6.935  17.137  0.00  0.00    +0.000 C 
ATOM      4  O   UNL     1       5.449   6.780  16.286  0.00  0.00    +0.000 OA
ATOM      5  C   UNL     1       6.750   8.319  17.536  0.00  0.00    +0.000 C 
ATOM      6  C   UNL     1       8.212   8.335  17.953  0.00  0.00    +0.000 C 
ATOM      7  C   UNL     1       8.428   7.376  19.116  0.00  0.00    +0.000 C 
ATOM      8  C   UNL     1       7.804   6.020  18.900  0.00  0.00    +0.000 C 
ATOM      9  O   UNL     1       8.067   5.110  19.688  0.00  0.00    +0.000 OA
BRANCH   6  10
ATOM     10  C   UNL     1       8.643   9.748  18.317  0.00  0.00    +0.000 A 
ATOM     11  C   UNL     1       8.293  10.841  17.503  0.00  0.00    +0.000 A 
ATOM     12  C   UNL     1       8.701  12.134  17.825  0.00  0.00    +0.000 A 
ATOM     13  C   UNL     1       9.476  12.344  18.968  0.00  0.00    +0.000 A 
ATOM     14  C   UNL     1       9.838  11.269  19.791  0.00  0.00    +0.000 A 
ATOM     15  C   UNL     1       9.420   9.976  19.462  0.00  0.00    +0.000 A 
BRANCH  13  16
ATOM     16  N   UNL     1       9.915  13.704  19.302  0.00  0.00    +0.000 N 
ATOM     17  O   UNL     1       9.981  14.010  20.501  0.00  0.00    +0.000 OA
ATOM     18  O   UNL     1      10.194  14.465  18.364  0.00  0.00    +0.000 OA
ENDBRANCH  13  16
ENDBRANCH   6  10
ENDBRANCH   1   2
BRANCH   1  19
ATOM     19  C   UNL     1       5.411   4.116  18.725  0.00  0.00    +0.000 C 
BRANCH  19  20
ATOM     20  C   UNL     1       4.075   3.616  18.171  0.00  0.00    +0.000 C 
BRANCH  20  24
ATOM     21  N   UNL     1       2.646   6.944  18.613  0.00  0.00    +0.000 N 
ATOM     22  C   UNL     1       3.722   6.403  19.449  0.00  0.00    +0.000 C 
ATOM     23  C   UNL     1       3.289   5.041  20.027  0.00  0.00    +0.000 C 
ATOM     24  N   UNL     1       2.927   4.037  18.988  0.00  0.00    +0.000 NA
ATOM     25  C   UNL     1       1.853   4.625  18.153  0.00  0.00    +0.000 C 
ATOM     26  C   UNL     1       2.144   6.034  17.571  0.00  0.00    +0.000 C 
BRANCH  21  32
ATOM     27  C   UNL     1       1.349   8.601  19.937  0.00  0.00    +0.000 A 
ATOM     28  C   UNL     1       0.826   9.908  20.035  0.00  0.00    +0.000 A 
ATOM     29  C   UNL     1       1.059  10.845  19.037  0.00  0.00    +0.000 A 
ATOM     30  C   UNL     1       1.809  10.493  17.928  0.00  0.00    +0.000 A 
ATOM     31  C   UNL     1       2.324   9.196  17.819  0.00  0.00    +0.000 A 
ATOM     32  C   UNL     1       2.109   8.212  18.805  0.00  0.00    +0.000 A 
BRANCH  27  34
ATOM     33  C   UNL     1       0.054   8.045  21.848  0.00  0.00    +0.000 C 
ATOM     34  O   UNL     1       1.035   7.655  20.890  0.00  0.00    +0.000 OA
ENDBRANCH  27  34
ENDBRANCH  21  32
ENDBRANCH  20  24
ENDBRANCH  19  20
ENDBRANCH   1  19
TORSDOF 8
ENDMDL
MODEL 7
REMARK VINA RESULT:      -7.1      2.009     12.166
REMARK  Name = 
REMARK  9 active torsions:
REMARK  status: ('A' for Active; 'I' for Inactive)
REMARK    1  A    between atoms: C_1  and  O_2
REMARK    2  A    between atoms: O_2  and  C_3
REMARK    3  A    between atoms: C_8  and  N_9
REMARK    4  A    between atoms: N_12  and  C_13
REMARK    5  A    between atoms: C_13  and  C_14
REMARK    6  A    between atoms: C_14  and  C_15
REMARK    7  A    between atoms: C_15  and  N_16
REMARK    8  A    between atoms: C_20  and  C_21
REMARK    9  A    between atoms: C_24  and  N_25
REMARK                            x       y       z     vdW  Elec       q    Type
REMARK                         _______ _______ _______ _____ _____    ______ ____
ROOT
ATOM      1  C   UNL     1       1.430   9.619  21.046  0.00  0.00    +0.000 C 
ENDROOT
BRANCH   1   2
ATOM      2  N   UNL     1       0.291  10.424  21.477  0.00  0.00    +0.000 N 
ATOM      3  C   UNL     1      -0.286  11.254  20.521  0.00  0.00    +0.000 C 
ATOM      4  O   UNL     1       0.146  11.376  19.375  0.00  0.00    +0.000 OA
ATOM      5  C   UNL     1      -1.567  11.929  20.918  0.00  0.00    +0.000 C 
ATOM      6  C   UNL     1      -1.549  12.295  22.394  0.00  0.00    +0.000 C 
ATOM      7  C   UNL     1      -1.348  11.042  23.235  0.00  0.00    +0.000 C 
ATOM      8  C   UNL     1      -0.223  10.164  22.745  0.00  0.00    +0.000 C 
ATOM      9  O   UNL     1       0.148   9.222  23.446  0.00  0.00    +0.000 OA
BRANCH   6  10
ATOM     10  C   UNL     1      -2.834  13.015  22.777  0.00  0.00    +0.000 A 
ATOM     11  C   UNL     1      -4.042  12.736  22.111  0.00  0.00    +0.000 A 
ATOM     12  C   UNL     1      -5.216  13.406  22.448  0.00  0.00    +0.000 A 
ATOM     13  C   UNL     1      -5.190  14.373  23.456  0.00  0.00    +0.000 A 
ATOM     14  C   UNL     1      -3.997  14.667  24.131  0.00  0.00    +0.000 A 
ATOM     15  C   UNL     1      -2.825  13.986  23.788  0.00  0.00    +0.000 A 
BRANCH  13  16
ATOM     16  N   UNL     1      -6.424  15.086  23.804  0.00  0.00    +0.000 N 
ATOM     17  O   UNL     1      -6.332  16.284  24.110  0.00  0.00    +0.000 OA
ATOM     18  O   UNL     1      -7.487  14.449  23.771  0.00  0.00    +0.000 OA
ENDBRANCH  13  16
ENDBRANCH   6  10
ENDBRANCH   1   2
BRANCH   1  19
ATOM     19  C   UNL     1       0.982   8.253  20.518  0.00  0.00    +0.000 C 
BRANCH  19  20
ATOM     20  C   UNL     1       2.068   7.191  20.703  0.00  0.00    +0.000 C 
BRANCH  20  24
ATOM     21  N   UNL     1       4.320   5.929  18.125  0.00  0.00    +0.000 N 
ATOM     22  C   UNL     1       3.296   6.949  17.881  0.00  0.00    +0.000 C 
ATOM     23  C   UNL     1       1.926   6.426  18.360  0.00  0.00    +0.000 C 
ATOM     24  N   UNL     1       1.901   6.043  19.799  0.00  0.00    +0.000 NA
ATOM     25  C   UNL     1       2.961   5.027  20.011  0.00  0.00    +0.000 C 
ATOM     26  C   UNL     1       4.376   5.411  19.502  0.00  0.00    +0.000 C 
BRANCH  21  32
ATOM     27  C   UNL     1       6.275   6.163  16.606  0.00  0.00    +0.000 A 
ATOM     28  C   UNL     1       7.061   5.607  15.575  0.00  0.00    +0.000 A 
ATOM     29  C   UNL     1       6.776   4.350  15.059  0.00  0.00    +0.000 A 
ATOM     30  C   UNL     1       5.702   3.632  15.559  0.00  0.00    +0.000 A 
ATOM     31  C   UNL     1       4.912   4.180  16.575  0.00  0.00    +0.000 A 
ATOM     32  C   UNL     1       5.163   5.454  17.125  0.00  0.00    +0.000 A 
BRANCH  27  34
ATOM     33  C   UNL     1       7.770   7.658  17.686  0.00  0.00    +0.000 C 
ATOM     34  O   UNL     1       6.514   7.448  17.045  0.00  0.00    +0.000 OA
ENDBRANCH  27  34
ENDBRANCH  21  32
ENDBRANCH  20  24
ENDBRANCH  19  20
ENDBRANCH   1  19
TORSDOF 8
ENDMDL
MODEL 8
REMARK VINA RESULT:      -7.1      2.021      2.334
REMARK  Name = 
REMARK  9 active torsions:
REMARK  status: ('A' for Active; 'I' for Inactive)
REMARK    1  A    between atoms: C_1  and  O_2
REMARK    2  A    between atoms: O_2  and  C_3
REMARK    3  A    between atoms: C_8  and  N_9
REMARK    4  A    between atoms: N_12  and  C_13
REMARK    5  A    between atoms: C_13  and  C_14
REMARK    6  A    between atoms: C_14  and  C_15
REMARK    7  A    between atoms: C_15  and  N_16
REMARK    8  A    between atoms: C_20  and  C_21
REMARK    9  A    between atoms: C_24  and  N_25
REMARK                            x       y       z     vdW  Elec       q    Type
REMARK                         _______ _______ _______ _____ _____    ______ ____
ROOT
ATOM      1  C   UNL     1       0.403  10.969  19.548  0.00  0.00    +0.000 C 
ENDROOT
BRANCH   1   2
ATOM      2  N   UNL     1       0.976   9.627  19.587  0.00  0.00    +0.000 N 
ATOM      3  C   UNL     1       1.711   9.228  18.476  0.00  0.00    +0.000 C 
ATOM      4  O   UNL     1       1.849   9.918  17.466  0.00  0.00    +0.000 OA
ATOM      5  C   UNL     1       2.452   7.928  18.604  0.00  0.00    +0.000 C 
ATOM      6  C   UNL     1       1.660   6.936  19.441  0.00  0.00    +0.000 C 
ATOM      7  C   UNL     1       1.401   7.518  20.824  0.00  0.00    +0.000 C 
ATOM      8  C   UNL     1       0.886   8.935  20.792  0.00  0.00    +0.000 C 
ATOM      9  O   UNL     1       0.472   9.444  21.836  0.00  0.00    +0.000 OA
BRANCH   6  10
ATOM     10  C   UNL     1       2.400   5.610  19.531  0.00  0.00    +0.000 A 
ATOM     11  C   UNL     1       3.407   5.282  18.606  0.00  0.00    +0.000 A 
ATOM     12  C   UNL     1       4.074   4.060  18.675  0.00  0.00    +0.000 A 
ATOM     13  C   UNL     1       3.731   3.147  19.676  0.00  0.00    +0.000 A 
ATOM     14  C   UNL     1       2.730   3.453  20.607  0.00  0.00    +0.000 A 
ATOM     15  C   UNL     1       2.068   4.683  20.530  0.00  0.00    +0.000 A 
BRANCH  13  16
ATOM     16  N   UNL     1       4.426   1.857  19.744  0.00  0.00    +0.000 N 
ATOM     17  O   UNL     1       5.256   1.696  20.650  0.00  0.00    +0.000 OA
ATOM     18  O   UNL     1       4.142   1.004  18.891  0.00  0.00    +0.000 OA
ENDBRANCH  13  16
ENDBRANCH   6  10
ENDBRANCH   1   2
BRANCH   1  19
ATOM     19  C   UNL     1       0.997  11.862  20.643  0.00  0.00    +0.000 C 
BRANCH  19  20
ATOM     20  C   UNL     1       0.404  13.273  20.603  0.00  0.00    +0.000 C 
BRANCH  20  24
ATOM     21  N   UNL     1      -3.027  13.011  21.816  0.00  0.00    +0.000 N 
ATOM     22  C   UNL     1      -2.515  14.163  21.068  0.00  0.00    +0.000 C 
ATOM     23  C   UNL     1      -1.245  14.701  21.758  0.00  0.00    +0.000 C 
ATOM     24  N   UNL     1      -0.162  13.688  21.895  0.00  0.00    +0.000 NA
ATOM     25  C   UNL     1      -0.722  12.533  22.638  0.00  0.00    +0.000 C 
ATOM     26  C   UNL     1      -2.045  11.946  22.078  0.00  0.00    +0.000 C 
BRANCH  21  32
ATOM     27  C   UNL     1      -4.724  13.118  23.630  0.00  0.00    +0.000 A 
ATOM     28  C   UNL     1      -6.078  13.003  24.008  0.00  0.00    +0.000 A 
ATOM     29  C   UNL     1      -7.061  12.727  23.066  0.00  0.00    +0.000 A 
ATOM     30  C   UNL     1      -6.708  12.558  21.738  0.00  0.00    +0.000 A 
ATOM     31  C   UNL     1      -5.366  12.662  21.356  0.00  0.00    +0.000 A 
ATOM     32  C   UNL     1      -4.336  12.936  22.279  0.00  0.00    +0.000 A 
BRANCH  27  34
ATOM     33  C   UNL     1      -3.393  14.656  24.855  0.00  0.00    +0.000 C 
ATOM     34  O   UNL     1      -3.749  13.302  24.588  0.00  0.00    +0.000 OA
ENDBRANCH  27  34
ENDBRANCH  21  32
ENDBRANCH  20  24
ENDBRANCH  19  20
ENDBRANCH   1  19
TORSDOF 8
ENDMDL
MODEL 9
REMARK VINA RESULT:      -7.0      2.441      3.101
REMARK  Name = 
REMARK  9 active torsions:
REMARK  status: ('A' for Active; 'I' for Inactive)
REMARK    1  A    between atoms: C_1  and  O_2
REMARK    2  A    between atoms: O_2  and  C_3
REMARK    3  A    between atoms: C_8  and  N_9
REMARK    4  A    between atoms: N_12  and  C_13
REMARK    5  A    between atoms: C_13  and  C_14
REMARK    6  A    between atoms: C_14  and  C_15
REMARK    7  A    between atoms: C_15  and  N_16
REMARK    8  A    between atoms: C_20  and  C_21
REMARK    9  A    between atoms: C_24  and  N_25
REMARK                            x       y       z     vdW  Elec       q    Type
REMARK                         _______ _______ _______ _____ _____    ______ ____
ROOT
ATOM      1  C   UNL     1       0.686  10.980  19.533  0.00  0.00    +0.000 C 
ENDROOT
BRANCH   1   2
ATOM      2  N   UNL     1       1.200   9.615  19.538  0.00  0.00    +0.000 N 
ATOM      3  C   UNL     1       1.839   9.182  18.381  0.00  0.00    +0.000 C 
ATOM      4  O   UNL     1       1.937   9.864  17.361  0.00  0.00    +0.000 OA
ATOM      5  C   UNL     1       2.529   7.851  18.463  0.00  0.00    +0.000 C 
ATOM      6  C   UNL     1       1.753   6.896  19.357  0.00  0.00    +0.000 C 
ATOM      7  C   UNL     1       1.616   7.490  20.752  0.00  0.00    +0.000 C 
ATOM      8  C   UNL     1       1.163   8.929  20.750  0.00  0.00    +0.000 C 
ATOM      9  O   UNL     1       0.844   9.456  21.817  0.00  0.00    +0.000 OA
BRANCH   6  10
ATOM     10  C   UNL     1       2.439   5.538  19.402  0.00  0.00    +0.000 A 
ATOM     11  C   UNL     1       1.703   4.367  19.658  0.00  0.00    +0.000 A 
ATOM     12  C   UNL     1       2.331   3.124  19.718  0.00  0.00    +0.000 A 
ATOM     13  C   UNL     1       3.713   3.044  19.526  0.00  0.00    +0.000 A 
ATOM     14  C   UNL     1       4.464   4.199  19.271  0.00  0.00    +0.000 A 
ATOM     15  C   UNL     1       3.824   5.441  19.211  0.00  0.00    +0.000 A 
BRANCH  13  16
ATOM     16  N   UNL     1       4.376   1.737  19.599  0.00  0.00    +0.000 N 
ATOM     17  O   UNL     1       5.223   1.570  20.488  0.00  0.00    +0.000 OA
ATOM     18  O   UNL     1       4.050   0.879  18.767  0.00  0.00    +0.000 OA
ENDBRANCH  13  16
ENDBRANCH   6  10
ENDBRANCH   1   2
BRANCH   1  19
ATOM     19  C   UNL     1      -0.839  11.002  19.393  0.00  0.00    +0.000 C 
BRANCH  19  20
ATOM     20  C   UNL     1      -1.499  11.805  20.517  0.00  0.00    +0.000 C 
BRANCH  20  24
ATOM     21  N   UNL     1      -3.120  14.485  22.388  0.00  0.00    +0.000 N 
ATOM     22  C   UNL     1      -3.786  13.230  22.024  0.00  0.00    +0.000 C 
ATOM     23  C   UNL     1      -3.657  13.004  20.504  0.00  0.00    +0.000 C 
ATOM     24  N   UNL     1      -2.249  12.968  20.020  0.00  0.00    +0.000 NA
ATOM     25  C   UNL     1      -1.605  14.242  20.423  0.00  0.00    +0.000 C 
ATOM     26  C   UNL     1      -1.730  14.616  21.924  0.00  0.00    +0.000 C 
BRANCH  21  32
ATOM     27  C   UNL     1      -3.541  15.787  24.464  0.00  0.00    +0.000 A 
ATOM     28  C   UNL     1      -4.254  16.824  25.101  0.00  0.00    +0.000 A 
ATOM     29  C   UNL     1      -5.170  17.596  24.398  0.00  0.00    +0.000 A 
ATOM     30  C   UNL     1      -5.393  17.341  23.056  0.00  0.00    +0.000 A 
ATOM     31  C   UNL     1      -4.696  16.308  22.419  0.00  0.00    +0.000 A 
ATOM     32  C   UNL     1      -3.761  15.498  23.094  0.00  0.00    +0.000 A 
BRANCH  27  34
ATOM     33  C   UNL     1      -1.657  15.634  25.901  0.00  0.00    +0.000 C 
ATOM     34  O   UNL     1      -2.702  14.971  25.195  0.00  0.00    +0.000 OA
ENDBRANCH  27  34
ENDBRANCH  21  32
ENDBRANCH  20  24
ENDBRANCH  19  20
ENDBRANCH   1  19
TORSDOF 8
ENDMDL
