MODEL 1
REMARK VINA RESULT:      -7.1      0.000      0.000
REMARK  Name = 
REMARK  10 active torsions:
REMARK  status: ('A' for Active; 'I' for Inactive)
REMARK    1  A    between atoms: C_1  and  C_2
REMARK    2  A    between atoms: C_2  and  N_3
REMARK    3  A    between atoms: C_4  and  C_6
REMARK    4  A    between atoms: C_6  and  C_7
REMARK    5  A    between atoms: C_6  and  N_11
REMARK    6  A    between atoms: C_7  and  C_8
REMARK    7  A    between atoms: C_8  and  S_9
REMARK    8  A    between atoms: S_9  and  C_10
REMARK    9  A    between atoms: C_12  and  C_14
REMARK   10  A    between atoms: C_14  and  C_15
REMARK                            x       y       z     vdW  Elec       q    Type
REMARK                         _______ _______ _______ _____ _____    ______ ____
ROOT
ATOM      1  C   UNL     1       6.792   6.368  17.701  0.00  0.00    +0.000 C 
ENDROOT
BRANCH   1   3
ATOM      2  N   UNL     1       6.637   5.560  15.372  0.00  0.00    +0.000 N 
ATOM      3  C   UNL     1       7.192   5.331  16.620  0.00  0.00    +0.000 C 
ATOM      4  O   UNL     1       7.953   4.389  16.859  0.00  0.00    +0.000 OA
ATOM      5  H   UNL     1       6.252   6.479  15.201  0.00  0.00    +0.000 HD
BRANCH   2   7
ATOM      6  C   UNL     1       5.967   3.878  13.699  0.00  0.00    +0.000 C 
ATOM      7  C   UNL     1       7.060   4.803  14.214  0.00  0.00    +0.000 C 
ENDBRANCH   2   7
ENDBRANCH   1   3
BRANCH   1   8
ATOM      8  N   UNL     1       5.338   6.554  17.707  0.00  0.00    +0.000 N 
ATOM      9  C   UNL     1       4.543   5.888  18.621  0.00  0.00    +0.000 C 
ATOM     10  O   UNL     1       4.958   5.019  19.380  0.00  0.00    +0.000 OA
ATOM     11  H   UNL     1       5.001   7.471  17.453  0.00  0.00    +0.000 HD
BRANCH   9  12
ATOM     12  C   UNL     1       3.101   6.360  18.651  0.00  0.00    +0.000 C 
BRANCH  12  13
ATOM     13  C   UNL     1       2.208   5.192  18.974  0.00  0.00    +0.000 A 
ATOM     14  C   UNL     1       1.754   4.986  20.282  0.00  0.00    +0.000 A 
ATOM     15  C   UNL     1       1.080   3.811  20.610  0.00  0.00    +0.000 A 
ATOM     16  C   UNL     1       0.849   2.843  19.634  0.00  0.00    +0.000 A 
ATOM     17  C   UNL     1       1.271   3.054  18.323  0.00  0.00    +0.000 A 
ATOM     18  C   UNL     1       1.949   4.226  17.992  0.00  0.00    +0.000 A 
ENDBRANCH  12  13
ENDBRANCH   9  12
ENDBRANCH   1   8
BRANCH   1  19
ATOM     19  C   UNL     1       7.497   7.690  17.336  0.00  0.00    +0.000 C 
BRANCH  19  20
ATOM     20  C   UNL     1       8.382   8.299  18.423  0.00  0.00    +0.000 C 
BRANCH  20  21
ATOM     21  S   UNL     1       8.681  10.073  18.157  0.00  0.00    +0.000 S 
ATOM     22  C   UNL     1       9.422  10.471  19.758  0.00  0.00    +0.000 C 
ENDBRANCH  20  21
ENDBRANCH  19  20
ENDBRANCH   1  19
TORSDOF 8
ENDMDL
MODEL 2
REMARK VINA RESULT:      -6.9      2.026      2.826
REMARK  Name = 
REMARK  10 active torsions:
REMARK  status: ('A' for Active; 'I' for Inactive)
REMARK    1  A    between atoms: C_1  and  C_2
REMARK    2  A    between atoms: C_2  and  N_3
REMARK    3  A    between atoms: C_4  and  C_6
REMARK    4  A    between atoms: C_6  and  C_7
REMARK    5  A    between atoms: C_6  and  N_11
REMARK    6  A    between atoms: C_7  and  C_8
REMARK    7  A    between atoms: C_8  and  S_9
REMARK    8  A    between atoms: S_9  and  C_10
REMARK    9  A    between atoms: C_12  and  C_14
REMARK   10  A    between atoms: C_14  and  C_15
REMARK                            x       y       z     vdW  Elec       q    Type
REMARK                         _______ _______ _______ _____ _____    ______ ____
ROOT
ATOM      1  C   UNL     1       6.354   4.110  15.825  0.00  0.00    +0.000 C 
ENDROOT
BRANCH   1   3
ATOM      2  N   UNL     1       6.124   3.264  13.516  0.00  0.00    +0.000 N 
ATOM      3  C   UNL     1       6.593   4.301  14.305  0.00  0.00    +0.000 C 
ATOM      4  O   UNL     1       7.146   5.304  13.845  0.00  0.00    +0.000 OA
ATOM      5  H   UNL     1       5.463   2.626  13.938  0.00  0.00    +0.000 HD
BRANCH   2   7
ATOM      6  C   UNL     1       6.927   2.297  11.395  0.00  0.00    +0.000 C 
ATOM      7  C   UNL     1       6.095   3.374  12.073  0.00  0.00    +0.000 C 
ENDBRANCH   2   7
ENDBRANCH   1   3
BRANCH   1   8
ATOM      8  N   UNL     1       5.085   4.732  16.217  0.00  0.00    +0.000 N 
ATOM      9  C   UNL     1       4.169   4.045  16.991  0.00  0.00    +0.000 C 
ATOM     10  O   UNL     1       4.279   2.859  17.285  0.00  0.00    +0.000 OA
ATOM     11  H   UNL     1       5.105   5.728  16.382  0.00  0.00    +0.000 HD
BRANCH   9  12
ATOM     12  C   UNL     1       3.024   4.898  17.504  0.00  0.00    +0.000 C 
BRANCH  12  13
ATOM     13  C   UNL     1       2.453   4.261  18.743  0.00  0.00    +0.000 A 
ATOM     14  C   UNL     1       1.345   3.410  18.657  0.00  0.00    +0.000 A 
ATOM     15  C   UNL     1       0.712   2.968  19.819  0.00  0.00    +0.000 A 
ATOM     16  C   UNL     1       1.188   3.367  21.067  0.00  0.00    +0.000 A 
ATOM     17  C   UNL     1       2.309   4.189  21.161  0.00  0.00    +0.000 A 
ATOM     18  C   UNL     1       2.941   4.636  20.002  0.00  0.00    +0.000 A 
ENDBRANCH  12  13
ENDBRANCH   9  12
ENDBRANCH   1   8
BRANCH   1  19
ATOM     19  C   UNL     1       7.529   4.794  16.552  0.00  0.00    +0.000 C 
BRANCH  19  20
ATOM     20  C   UNL     1       7.557   4.638  18.073  0.00  0.00    +0.000 C 
BRANCH  20  21
ATOM     21  S   UNL     1       7.842   6.220  18.923  0.00  0.00    +0.000 S 
ATOM     22  C   UNL     1       7.501   7.339  17.543  0.00  0.00    +0.000 C 
ENDBRANCH  20  21
ENDBRANCH  19  20
ENDBRANCH   1  19
TORSDOF 8
ENDMDL
MODEL 3
REMARK VINA RESULT:      -6.7      1.972      2.411
REMARK  Name = 
REMARK  10 active torsions:
REMARK  status: ('A' for Active; 'I' for Inactive)
REMARK    1  A    between atoms: C_1  and  C_2
REMARK    2  A    between atoms: C_2  and  N_3
REMARK    3  A    between atoms: C_4  and  C_6
REMARK    4  A    between atoms: C_6  and  C_7
REMARK    5  A    between atoms: C_6  and  N_11
REMARK    6  A    between atoms: C_7  and  C_8
REMARK    7  A    between atoms: C_8  and  S_9
REMARK    8  A    between atoms: S_9  and  C_10
REMARK    9  A    between atoms: C_12  and  C_14
REMARK   10  A    between atoms: C_14  and  C_15
REMARK                            x       y       z     vdW  Elec       q    Type
REMARK                         _______ _______ _______ _____ _____    ______ ____
ROOT
ATOM      1  C   UNL     1       5.964   4.192  16.556  0.00  0.00    +0.000 C 
ENDROOT
BRANCH   1   3
ATOM      2  N   UNL     1       6.250   3.499  14.203  0.00  0.00    +0.000 N 
ATOM      3  C   UNL     1       6.291   4.564  15.087  0.00  0.00    +0.000 C 
ATOM      4  O   UNL     1       6.554   5.720  14.742  0.00  0.00    +0.000 OA
ATOM      5  H   UNL     1       5.778   2.660  14.513  0.00  0.00    +0.000 HD
BRANCH   2   7
ATOM      6  C   UNL     1       5.094   3.232  12.042  0.00  0.00    +0.000 C 
ATOM      7  C   UNL     1       6.340   3.707  12.774  0.00  0.00    +0.000 C 
ENDBRANCH   2   7
ENDBRANCH   1   3
BRANCH   1   8
ATOM      8  N   UNL     1       4.835   4.994  17.039  0.00  0.00    +0.000 N 
ATOM      9  C   UNL     1       3.571   4.444  17.147  0.00  0.00    +0.000 C 
ATOM     10  O   UNL     1       3.276   3.328  16.734  0.00  0.00    +0.000 OA
ATOM     11  H   UNL     1       5.046   5.692  17.737  0.00  0.00    +0.000 HD
BRANCH   9  12
ATOM     12  C   UNL     1       2.571   5.323  17.876  0.00  0.00    +0.000 C 
BRANCH  12  13
ATOM     13  C   UNL     1       2.072   4.593  19.094  0.00  0.00    +0.000 A 
ATOM     14  C   UNL     1       2.641   4.837  20.350  0.00  0.00    +0.000 A 
ATOM     15  C   UNL     1       2.302   4.034  21.438  0.00  0.00    +0.000 A 
ATOM     16  C   UNL     1       1.389   2.992  21.279  0.00  0.00    +0.000 A 
ATOM     17  C   UNL     1       0.795   2.763  20.039  0.00  0.00    +0.000 A 
ATOM     18  C   UNL     1       1.136   3.561  18.949  0.00  0.00    +0.000 A 
ENDBRANCH  12  13
ENDBRANCH   9  12
ENDBRANCH   1   8
BRANCH   1  19
ATOM     19  C   UNL     1       7.227   4.497  17.387  0.00  0.00    +0.000 C 
BRANCH  19  20
ATOM     20  C   UNL     1       7.014   5.342  18.643  0.00  0.00    +0.000 C 
BRANCH  20  21
ATOM     21  S   UNL     1       8.115   6.788  18.696  0.00  0.00    +0.000 S 
ATOM     22  C   UNL     1       7.302   7.799  17.435  0.00  0.00    +0.000 C 
ENDBRANCH  20  21
ENDBRANCH  19  20
ENDBRANCH   1  19
TORSDOF 8
ENDMDL
MODEL 4
REMARK VINA RESULT:      -6.7      2.116      2.819
REMARK  Name = 
REMARK  10 active torsions:
REMARK  status: ('A' for Active; 'I' for Inactive)
REMARK    1  A    between atoms: C_1  and  C_2
REMARK    2  A    between atoms: C_2  and  N_3
REMARK    3  A    between atoms: C_4  and  C_6
REMARK    4  A    between atoms: C_6  and  C_7
REMARK    5  A    between atoms: C_6  and  N_11
REMARK    6  A    between atoms: C_7  and  C_8
REMARK    7  A    between atoms: C_8  and  S_9
REMARK    8  A    between atoms: S_9  and  C_10
REMARK    9  A    between atoms: C_12  and  C_14
REMARK   10  A    between atoms: C_14  and  C_15
REMARK                            x       y       z     vdW  Elec       q    Type
REMARK                         _______ _______ _______ _____ _____    ______ ____
ROOT
ATOM      1  C   UNL     1       6.042   4.766  15.746  0.00  0.00    +0.000 C 
ENDROOT
BRANCH   1   3
ATOM      2  N   UNL     1       5.938   3.441  13.664  0.00  0.00    +0.000 N 
ATOM      3  C   UNL     1       6.507   4.541  14.284  0.00  0.00    +0.000 C 
ATOM      4  O   UNL     1       7.310   5.292  13.724  0.00  0.00    +0.000 OA
ATOM      5  H   UNL     1       5.111   3.047  14.091  0.00  0.00    +0.000 HD
BRANCH   2   7
ATOM      6  C   UNL     1       4.790   3.125  11.505  0.00  0.00    +0.000 C 
ATOM      7  C   UNL     1       6.115   3.204  12.247  0.00  0.00    +0.000 C 
ENDBRANCH   2   7
ENDBRANCH   1   3
BRANCH   1   8
ATOM      8  N   UNL     1       4.668   4.283  15.917  0.00  0.00    +0.000 N 
ATOM      9  C   UNL     1       4.276   3.667  17.090  0.00  0.00    +0.000 C 
ATOM     10  O   UNL     1       5.050   3.363  17.993  0.00  0.00    +0.000 OA
ATOM     11  H   UNL     1       3.944   4.823  15.468  0.00  0.00    +0.000 HD
BRANCH   9  12
ATOM     12  C   UNL     1       2.780   3.438  17.202  0.00  0.00    +0.000 C 
BRANCH  12  13
ATOM     13  C   UNL     1       2.253   4.206  18.385  0.00  0.00    +0.000 A 
ATOM     14  C   UNL     1       2.565   5.561  18.548  0.00  0.00    +0.000 A 
ATOM     15  C   UNL     1       2.227   6.218  19.731  0.00  0.00    +0.000 A 
ATOM     16  C   UNL     1       1.569   5.528  20.749  0.00  0.00    +0.000 A 
ATOM     17  C   UNL     1       1.228   4.188  20.581  0.00  0.00    +0.000 A 
ATOM     18  C   UNL     1       1.568   3.527  19.403  0.00  0.00    +0.000 A 
ENDBRANCH  12  13
ENDBRANCH   9  12
ENDBRANCH   1   8
BRANCH   1  19
ATOM     19  C   UNL     1       6.110   6.284  16.008  0.00  0.00    +0.000 C 
BRANCH  19  20
ATOM     20  C   UNL     1       6.094   6.710  17.476  0.00  0.00    +0.000 C 
BRANCH  20  21
ATOM     21  S   UNL     1       7.765   7.021  18.122  0.00  0.00    +0.000 S 
ATOM     22  C   UNL     1       7.812   5.735  19.394  0.00  0.00    +0.000 C 
ENDBRANCH  20  21
ENDBRANCH  19  20
ENDBRANCH   1  19
TORSDOF 8
ENDMDL
MODEL 5
REMARK VINA RESULT:      -6.7      2.710      3.468
REMARK  Name = 
REMARK  10 active torsions:
REMARK  status: ('A' for Active; 'I' for Inactive)
REMARK    1  A    between atoms: C_1  and  C_2
REMARK    2  A    between atoms: C_2  and  N_3
REMARK    3  A    between atoms: C_4  and  C_6
REMARK    4  A    between atoms: C_6  and  C_7
REMARK    5  A    between atoms: C_6  and  N_11
REMARK    6  A    between atoms: C_7  and  C_8
REMARK    7  A    between atoms: C_8  and  S_9
REMARK    8  A    between atoms: S_9  and  C_10
REMARK    9  A    between atoms: C_12  and  C_14
REMARK   10  A    between atoms: C_14  and  C_15
REMARK                            x       y       z     vdW  Elec       q    Type
REMARK                         _______ _______ _______ _____ _____    ______ ____
ROOT
ATOM      1  C   UNL     1       5.798   4.861  17.143  0.00  0.00    +0.000 C 
ENDROOT
BRANCH   1   3
ATOM      2  N   UNL     1       5.828   4.046  14.811  0.00  0.00    +0.000 N 
ATOM      3  C   UNL     1       6.602   4.487  15.872  0.00  0.00    +0.000 C 
ATOM      4  O   UNL     1       7.831   4.586  15.815  0.00  0.00    +0.000 OA
ATOM      5  H   UNL     1       4.837   4.244  14.850  0.00  0.00    +0.000 HD
BRANCH   2   7
ATOM      6  C   UNL     1       5.348   3.492  12.457  0.00  0.00    +0.000 C 
ATOM      7  C   UNL     1       6.401   3.842  13.498  0.00  0.00    +0.000 C 
ENDBRANCH   2   7
ENDBRANCH   1   3
BRANCH   1   8
ATOM      8  N   UNL     1       5.449   3.651  17.893  0.00  0.00    +0.000 N 
ATOM      9  C   UNL     1       5.230   3.703  19.257  0.00  0.00    +0.000 C 
ATOM     10  O   UNL     1       5.436   4.699  19.943  0.00  0.00    +0.000 OA
ATOM     11  H   UNL     1       4.888   2.967  17.407  0.00  0.00    +0.000 HD
BRANCH   9  12
ATOM     12  C   UNL     1       4.655   2.427  19.843  0.00  0.00    +0.000 C 
BRANCH  12  13
ATOM     13  C   UNL     1       3.153   2.531  19.868  0.00  0.00    +0.000 A 
ATOM     14  C   UNL     1       2.392   2.072  18.787  0.00  0.00    +0.000 A 
ATOM     15  C   UNL     1       1.023   2.333  18.736  0.00  0.00    +0.000 A 
ATOM     16  C   UNL     1       0.409   3.043  19.767  0.00  0.00    +0.000 A 
ATOM     17  C   UNL     1       1.155   3.476  20.862  0.00  0.00    +0.000 A 
ATOM     18  C   UNL     1       2.524   3.221  20.913  0.00  0.00    +0.000 A 
ENDBRANCH  12  13
ENDBRANCH   9  12
ENDBRANCH   1   8
BRANCH   1  19
ATOM     19  C   UNL     1       4.519   5.580  16.666  0.00  0.00    +0.000 C 
BRANCH  19  20
ATOM     20  C   UNL     1       4.362   7.034  17.114  0.00  0.00    +0.000 C 
BRANCH  20  21
ATOM     21  S   UNL     1       3.102   7.224  18.411  0.00  0.00    +0.000 S 
ATOM     22  C   UNL     1       2.173   5.700  18.117  0.00  0.00    +0.000 C 
ENDBRANCH  20  21
ENDBRANCH  19  20
ENDBRANCH   1  19
TORSDOF 8
ENDMDL
MODEL 6
REMARK VINA RESULT:      -6.7      2.483      2.887
REMARK  Name = 
REMARK  10 active torsions:
REMARK  status: ('A' for Active; 'I' for Inactive)
REMARK    1  A    between atoms: C_1  and  C_2
REMARK    2  A    between atoms: C_2  and  N_3
REMARK    3  A    between atoms: C_4  and  C_6
REMARK    4  A    between atoms: C_6  and  C_7
REMARK    5  A    between atoms: C_6  and  N_11
REMARK    6  A    between atoms: C_7  and  C_8
REMARK    7  A    between atoms: C_8  and  S_9
REMARK    8  A    between atoms: S_9  and  C_10
REMARK    9  A    between atoms: C_12  and  C_14
REMARK   10  A    between atoms: C_14  and  C_15
REMARK                            x       y       z     vdW  Elec       q    Type
REMARK                         _______ _______ _______ _____ _____    ______ ____
ROOT
ATOM      1  C   UNL     1       6.241   4.076  15.588  0.00  0.00    +0.000 C 
ENDROOT
BRANCH   1   3
ATOM      2  N   UNL     1       5.845   3.073  13.366  0.00  0.00    +0.000 N 
ATOM      3  C   UNL     1       6.416   4.134  14.049  0.00  0.00    +0.000 C 
ATOM      4  O   UNL     1       7.008   5.059  13.486  0.00  0.00    +0.000 OA
ATOM      5  H   UNL     1       5.167   2.514  13.866  0.00  0.00    +0.000 HD
BRANCH   2   7
ATOM      6  C   UNL     1       4.330   3.315  11.436  0.00  0.00    +0.000 C 
ATOM      7  C   UNL     1       5.751   3.074  11.922  0.00  0.00    +0.000 C 
ENDBRANCH   2   7
ENDBRANCH   1   3
BRANCH   1   8
ATOM      8  N   UNL     1       5.013   4.773  15.982  0.00  0.00    +0.000 N 
ATOM      9  C   UNL     1       4.199   4.266  16.977  0.00  0.00    +0.000 C 
ATOM     10  O   UNL     1       4.360   3.166  17.495  0.00  0.00    +0.000 OA
ATOM     11  H   UNL     1       5.034   5.781  15.935  0.00  0.00    +0.000 HD
BRANCH   9  12
ATOM     12  C   UNL     1       3.102   5.214  17.426  0.00  0.00    +0.000 C 
BRANCH  12  13
ATOM     13  C   UNL     1       2.273   4.539  18.487  0.00  0.00    +0.000 A 
ATOM     14  C   UNL     1       2.428   4.885  19.835  0.00  0.00    +0.000 A 
ATOM     15  C   UNL     1       1.793   4.136  20.824  0.00  0.00    +0.000 A 
ATOM     16  C   UNL     1       0.996   3.047  20.473  0.00  0.00    +0.000 A 
ATOM     17  C   UNL     1       0.813   2.716  19.132  0.00  0.00    +0.000 A 
ATOM     18  C   UNL     1       1.449   3.460  18.140  0.00  0.00    +0.000 A 
ENDBRANCH  12  13
ENDBRANCH   9  12
ENDBRANCH   1   8
BRANCH   1  19
ATOM     19  C   UNL     1       7.470   4.773  16.205  0.00  0.00    +0.000 C 
BRANCH  19  20
ATOM     20  C   UNL     1       7.768   4.434  17.666  0.00  0.00    +0.000 C 
BRANCH  20  21
ATOM     21  S   UNL     1       7.670   5.893  18.746  0.00  0.00    +0.000 S 
ATOM     22  C   UNL     1       6.064   5.561  19.511  0.00  0.00    +0.000 C 
ENDBRANCH  20  21
ENDBRANCH  19  20
ENDBRANCH   1  19
TORSDOF 8
ENDMDL
MODEL 7
REMARK VINA RESULT:      -6.6      2.689      3.123
REMARK  Name = 
REMARK  10 active torsions:
REMARK  status: ('A' for Active; 'I' for Inactive)
REMARK    1  A    between atoms: C_1  and  C_2
REMARK    2  A    between atoms: C_2  and  N_3
REMARK    3  A    between atoms: C_4  and  C_6
REMARK    4  A    between atoms: C_6  and  C_7
REMARK    5  A    between atoms: C_6  and  N_11
REMARK    6  A    between atoms: C_7  and  C_8
REMARK    7  A    between atoms: C_8  and  S_9
REMARK    8  A    between atoms: S_9  and  C_10
REMARK    9  A    between atoms: C_12  and  C_14
REMARK   10  A    between atoms: C_14  and  C_15
REMARK                            x       y       z     vdW  Elec       q    Type
REMARK                         _______ _______ _______ _____ _____    ______ ____
ROOT
ATOM      1  C   UNL     1       5.873   5.367  16.985  0.00  0.00    +0.000 C 
ENDROOT
BRANCH   1   3
ATOM      2  N   UNL     1       5.934   4.130  14.848  0.00  0.00    +0.000 N 
ATOM      3  C   UNL     1       6.597   5.041  15.654  0.00  0.00    +0.000 C 
ATOM      4  O   UNL     1       7.671   5.563  15.342  0.00  0.00    +0.000 OA
ATOM      5  H   UNL     1       4.958   3.960  15.051  0.00  0.00    +0.000 HD
BRANCH   2   7
ATOM      6  C   UNL     1       5.221   3.507  12.572  0.00  0.00    +0.000 C 
ATOM      7  C   UNL     1       6.375   3.866  13.496  0.00  0.00    +0.000 C 
ENDBRANCH   2   7
ENDBRANCH   1   3
BRANCH   1   8
ATOM      8  N   UNL     1       5.390   4.133  17.612  0.00  0.00    +0.000 N 
ATOM      9  C   UNL     1       5.422   3.977  18.985  0.00  0.00    +0.000 C 
ATOM     10  O   UNL     1       5.961   4.771  19.749  0.00  0.00    +0.000 OA
ATOM     11  H   UNL     1       4.615   3.673  17.159  0.00  0.00    +0.000 HD
BRANCH   9  12
ATOM     12  C   UNL     1       4.679   2.753  19.489  0.00  0.00    +0.000 C 
BRANCH  12  13
ATOM     13  C   UNL     1       3.203   3.050  19.514  0.00  0.00    +0.000 A 
ATOM     14  C   UNL     1       2.679   3.963  20.436  0.00  0.00    +0.000 A 
ATOM     15  C   UNL     1       1.298   4.099  20.575  0.00  0.00    +0.000 A 
ATOM     16  C   UNL     1       0.438   3.332  19.790  0.00  0.00    +0.000 A 
ATOM     17  C   UNL     1       0.953   2.443  18.848  0.00  0.00    +0.000 A 
ATOM     18  C   UNL     1       2.332   2.302  18.710  0.00  0.00    +0.000 A 
ENDBRANCH  12  13
ENDBRANCH   9  12
ENDBRANCH   1   8
BRANCH   1  19
ATOM     19  C   UNL     1       4.685   6.286  16.634  0.00  0.00    +0.000 C 
BRANCH  19  20
ATOM     20  C   UNL     1       3.511   6.265  17.613  0.00  0.00    +0.000 C 
BRANCH  20  21
ATOM     21  S   UNL     1       2.781   7.913  17.850  0.00  0.00    +0.000 S 
ATOM     22  C   UNL     1       2.120   7.683  19.519  0.00  0.00    +0.000 C 
ENDBRANCH  20  21
ENDBRANCH  19  20
ENDBRANCH   1  19
TORSDOF 8
ENDMDL
MODEL 8
REMARK VINA RESULT:      -6.5      2.177      2.858
REMARK  Name = 
REMARK  10 active torsions:
REMARK  status: ('A' for Active; 'I' for Inactive)
REMARK    1  A    between atoms: C_1  and  C_2
REMARK    2  A    between atoms: C_2  and  N_3
REMARK    3  A    between atoms: C_4  and  C_6
REMARK    4  A    between atoms: C_6  and  C_7
REMARK    5  A    between atoms: C_6  and  N_11
REMARK    6  A    between atoms: C_7  and  C_8
REMARK    7  A    between atoms: C_8  and  S_9
REMARK    8  A    between atoms: S_9  and  C_10
REMARK    9  A    between atoms: C_12  and  C_14
REMARK   10  A    between atoms: C_14  and  C_15
REMARK                            x       y       z     vdW  Elec       q    Type
REMARK                         _______ _______ _______ _____ _____    ______ ____
ROOT
ATOM      1  C   UNL     1       5.533   4.126  16.389  0.00  0.00    +0.000 C 
ENDROOT
BRANCH   1   3
ATOM      2  N   UNL     1       6.183   3.465  14.100  0.00  0.00    +0.000 N 
ATOM      3  C   UNL     1       5.916   4.532  14.943  0.00  0.00    +0.000 C 
ATOM      4  O   UNL     1       5.964   5.710  14.578  0.00  0.00    +0.000 OA
ATOM      5  H   UNL     1       5.868   2.552  14.398  0.00  0.00    +0.000 HD
BRANCH   2   7
ATOM      6  C   UNL     1       5.196   3.122  11.867  0.00  0.00    +0.000 C 
ATOM      7  C   UNL     1       6.365   3.661  12.678  0.00  0.00    +0.000 C 
ENDBRANCH   2   7
ENDBRANCH   1   3
BRANCH   1   8
ATOM      8  N   UNL     1       4.076   4.146  16.549  0.00  0.00    +0.000 N 
ATOM      9  C   UNL     1       3.421   3.114  17.195  0.00  0.00    +0.000 C 
ATOM     10  O   UNL     1       3.969   2.075  17.549  0.00  0.00    +0.000 OA
ATOM     11  H   UNL     1       3.650   5.052  16.675  0.00  0.00    +0.000 HD
BRANCH   9  12
ATOM     12  C   UNL     1       1.957   3.391  17.483  0.00  0.00    +0.000 C 
BRANCH  12  13
ATOM     13  C   UNL     1       1.771   3.550  18.969  0.00  0.00    +0.000 A 
ATOM     14  C   UNL     1       2.141   4.741  19.607  0.00  0.00    +0.000 A 
ATOM     15  C   UNL     1       2.134   4.817  20.999  0.00  0.00    +0.000 A 
ATOM     16  C   UNL     1       1.752   3.712  21.757  0.00  0.00    +0.000 A 
ATOM     17  C   UNL     1       1.353   2.534  21.129  0.00  0.00    +0.000 A 
ATOM     18  C   UNL     1       1.362   2.452  19.738  0.00  0.00    +0.000 A 
ENDBRANCH  12  13
ENDBRANCH   9  12
ENDBRANCH   1   8
BRANCH   1  19
ATOM     19  C   UNL     1       6.187   5.159  17.330  0.00  0.00    +0.000 C 
BRANCH  19  20
ATOM     20  C   UNL     1       7.590   4.815  17.829  0.00  0.00    +0.000 C 
BRANCH  20  21
ATOM     21  S   UNL     1       8.086   5.834  19.251  0.00  0.00    +0.000 S 
ATOM     22  C   UNL     1       8.135   7.446  18.431  0.00  0.00    +0.000 C 
ENDBRANCH  20  21
ENDBRANCH  19  20
ENDBRANCH   1  19
TORSDOF 8
ENDMDL
MODEL 9
REMARK VINA RESULT:      -6.5      2.333      2.872
REMARK  Name = 
REMARK  10 active torsions:
REMARK  status: ('A' for Active; 'I' for Inactive)
REMARK    1  A    between atoms: C_1  and  C_2
REMARK    2  A    between atoms: C_2  and  N_3
REMARK    3  A    between atoms: C_4  and  C_6
REMARK    4  A    between atoms: C_6  and  C_7
REMARK    5  A    between atoms: C_6  and  N_11
REMARK    6  A    between atoms: C_7  and  C_8
REMARK    7  A    between atoms: C_8  and  S_9
REMARK    8  A    between atoms: S_9  and  C_10
REMARK    9  A    between atoms: C_12  and  C_14
REMARK   10  A    between atoms: C_14  and  C_15
REMARK                            x       y       z     vdW  Elec       q    Type
REMARK                         _______ _______ _______ _____ _____    ______ ____
ROOT
ATOM      1  C   UNL     1       6.073   4.696  15.838  0.00  0.00    +0.000 C 
ENDROOT
BRANCH   1   3
ATOM      2  N   UNL     1       5.998   3.463  13.699  0.00  0.00    +0.000 N 
ATOM      3  C   UNL     1       6.550   4.542  14.371  0.00  0.00    +0.000 C 
ATOM      4  O   UNL     1       7.347   5.327  13.850  0.00  0.00    +0.000 OA
ATOM      5  H   UNL     1       5.174   3.041  14.103  0.00  0.00    +0.000 HD
BRANCH   2   7
ATOM      6  C   UNL     1       4.868   3.201  11.524  0.00  0.00    +0.000 C 
ATOM      7  C   UNL     1       6.188   3.292  12.274  0.00  0.00    +0.000 C 
ENDBRANCH   2   7
ENDBRANCH   1   3
BRANCH   1   8
ATOM      8  N   UNL     1       4.695   4.213  15.973  0.00  0.00    +0.000 N 
ATOM      9  C   UNL     1       4.260   3.636  17.152  0.00  0.00    +0.000 C 
ATOM     10  O   UNL     1       5.000   3.367  18.093  0.00  0.00    +0.000 OA
ATOM     11  H   UNL     1       3.986   4.733  15.478  0.00  0.00    +0.000 HD
BRANCH   9  12
ATOM     12  C   UNL     1       2.762   3.403  17.214  0.00  0.00    +0.000 C 
BRANCH  12  13
ATOM     13  C   UNL     1       2.315   3.464  18.650  0.00  0.00    +0.000 A 
ATOM     14  C   UNL     1       2.087   2.286  19.372  0.00  0.00    +0.000 A 
ATOM     15  C   UNL     1       1.504   2.345  20.638  0.00  0.00    +0.000 A 
ATOM     16  C   UNL     1       1.154   3.577  21.188  0.00  0.00    +0.000 A 
ATOM     17  C   UNL     1       1.406   4.755  20.488  0.00  0.00    +0.000 A 
ATOM     18  C   UNL     1       1.984   4.700  19.222  0.00  0.00    +0.000 A 
ENDBRANCH  12  13
ENDBRANCH   9  12
ENDBRANCH   1   8
BRANCH   1  19
ATOM     19  C   UNL     1       6.146   6.199  16.177  0.00  0.00    +0.000 C 
BRANCH  19  20
ATOM     20  C   UNL     1       7.150   6.592  17.261  0.00  0.00    +0.000 C 
BRANCH  20  21
ATOM     21  S   UNL     1       7.839   5.145  18.120  0.00  0.00    +0.000 S 
ATOM     22  C   UNL     1       7.475   5.636  19.822  0.00  0.00    +0.000 C 
ENDBRANCH  20  21
ENDBRANCH  19  20
ENDBRANCH   1  19
TORSDOF 8
ENDMDL
