MODEL 1
REMARK VINA RESULT:      -9.4      0.000      0.000
REMARK  Name = 
REMARK  7 active torsions:
REMARK  status: ('A' for Active; 'I' for Inactive)
REMARK    1  A    between atoms: C_1  and  O_2
REMARK    2  A    between atoms: O_2  and  C_3
REMARK    3  A    between atoms: C_9  and  C_10
REMARK    4  A    between atoms: C_10  and  C_12
REMARK    5  A    between atoms: C_13  and  C_14
REMARK    6  A    between atoms: N_17  and  C_18
REMARK    7  A    between atoms: C_18  and  C_19
REMARK                            x       y       z     vdW  Elec       q    Type
REMARK                         _______ _______ _______ _____ _____    ______ ____
ROOT
ATOM      1  C   UNL     1       7.918   7.750  18.032  0.00  0.00    +0.000 C 
ATOM      2  C   UNL     1       7.912   9.002  17.553  0.00  0.00    +0.000 C 
ENDROOT
BRANCH   2   3
ATOM      3  C   UNL     1       8.595  10.106  18.248  0.00  0.00    +0.000 A 
ATOM      4  C   UNL     1       8.552  11.417  17.771  0.00  0.00    +0.000 A 
ATOM      5  C   UNL     1       9.318  12.402  18.381  0.00  0.00    +0.000 A 
ATOM      6  N   UNL     1      10.094  12.114  19.449  0.00  0.00    +0.000 N 
ATOM      7  C   UNL     1      10.058  10.879  20.004  0.00  0.00    +0.000 A 
ATOM      8  C   UNL     1       9.312   9.857  19.417  0.00  0.00    +0.000 A 
BRANCH   6   9
ATOM      9  C   UNL     1      11.052  13.130  19.954  0.00  0.00    +0.000 C 
BRANCH   9  10
ATOM     10  C   UNL     1      10.431  14.009  21.006  0.00  0.00    +0.000 A 
ATOM     11  C   UNL     1      10.782  15.366  21.096  0.00  0.00    +0.000 A 
ATOM     12  C   UNL     1      10.231  16.172  22.095  0.00  0.00    +0.000 A 
ATOM     13  C   UNL     1       9.332  15.626  23.002  0.00  0.00    +0.000 A 
ATOM     14  F   UNL     1       8.822  16.396  23.970  0.00  0.00    +0.000 F 
ATOM     15  C   UNL     1       8.953  14.294  22.915  0.00  0.00    +0.000 A 
ATOM     16  C   UNL     1       9.497  13.483  21.917  0.00  0.00    +0.000 A 
ENDBRANCH   9  10
ENDBRANCH   6   9
ENDBRANCH   2   3
BRANCH   1  17
ATOM     17  C   UNL     1       7.249   6.627  17.315  0.00  0.00    +0.000 C 
ATOM     18  O   UNL     1       7.566   6.351  16.164  0.00  0.00    +0.000 OA
BRANCH  17  25
ATOM     19  C   UNL     1       3.103   3.626  19.896  0.00  0.00    +0.000 A 
ATOM     20  C   UNL     1       1.854   3.543  19.277  0.00  0.00    +0.000 A 
ATOM     21  C   UNL     1       1.603   4.229  18.086  0.00  0.00    +0.000 A 
ATOM     22  C   UNL     1       2.612   4.984  17.483  0.00  0.00    +0.000 A 
ATOM     23  C   UNL     1       3.876   5.056  18.072  0.00  0.00    +0.000 A 
ATOM     24  C   UNL     1       4.974   5.792  17.452  0.00  0.00    +0.000 A 
ATOM     25  C   UNL     1       6.175   5.886  18.051  0.00  0.00    +0.000 A 
ATOM     26  C   UNL     1       6.406   5.234  19.360  0.00  0.00    +0.000 A 
ATOM     27  O   UNL     1       7.454   5.349  19.989  0.00  0.00    +0.000 OA
ATOM     28  O   UNL     1       5.375   4.463  19.867  0.00  0.00    +0.000 OA
ATOM     29  C   UNL     1       4.102   4.383  19.276  0.00  0.00    +0.000 A 
BRANCH  19  31
ATOM     30  C   UNL     1       2.029   2.708  21.813  0.00  0.00    +0.000 C 
ATOM     31  O   UNL     1       3.212   2.891  21.045  0.00  0.00    +0.000 OA
ENDBRANCH  19  31
ENDBRANCH  17  25
ENDBRANCH   1  17
TORSDOF 6
ENDMDL
MODEL 2
REMARK VINA RESULT:      -9.3      1.811      2.394
REMARK  Name = 
REMARK  7 active torsions:
REMARK  status: ('A' for Active; 'I' for Inactive)
REMARK    1  A    between atoms: C_1  and  O_2
REMARK    2  A    between atoms: O_2  and  C_3
REMARK    3  A    between atoms: C_9  and  C_10
REMARK    4  A    between atoms: C_10  and  C_12
REMARK    5  A    between atoms: C_13  and  C_14
REMARK    6  A    between atoms: N_17  and  C_18
REMARK    7  A    between atoms: C_18  and  C_19
REMARK                            x       y       z     vdW  Elec       q    Type
REMARK                         _______ _______ _______ _____ _____    ______ ____
ROOT
ATOM      1  C   UNL     1       7.462   8.400  17.934  0.00  0.00    +0.000 C 
ATOM      2  C   UNL     1       8.674   8.972  17.883  0.00  0.00    +0.000 C 
ENDROOT
BRANCH   2   3
ATOM      3  C   UNL     1       8.945  10.281  18.498  0.00  0.00    +0.000 A 
ATOM      4  C   UNL     1       9.384  10.399  19.818  0.00  0.00    +0.000 A 
ATOM      5  C   UNL     1       9.500  11.655  20.401  0.00  0.00    +0.000 A 
ATOM      6  N   UNL     1       9.213  12.773  19.698  0.00  0.00    +0.000 N 
ATOM      7  C   UNL     1       8.904  12.691  18.382  0.00  0.00    +0.000 A 
ATOM      8  C   UNL     1       8.765  11.450  17.761  0.00  0.00    +0.000 A 
BRANCH   6   9
ATOM      9  C   UNL     1       9.148  14.082  20.398  0.00  0.00    +0.000 C 
BRANCH   9  10
ATOM     10  C   UNL     1      10.000  15.120  19.719  0.00  0.00    +0.000 A 
ATOM     11  C   UNL     1       9.410  16.253  19.135  0.00  0.00    +0.000 A 
ATOM     12  C   UNL     1      10.199  17.198  18.475  0.00  0.00    +0.000 A 
ATOM     13  C   UNL     1      11.574  17.013  18.397  0.00  0.00    +0.000 A 
ATOM     14  F   UNL     1      12.324  17.910  17.747  0.00  0.00    +0.000 F 
ATOM     15  C   UNL     1      12.179  15.914  18.988  0.00  0.00    +0.000 A 
ATOM     16  C   UNL     1      11.397  14.967  19.653  0.00  0.00    +0.000 A 
ENDBRANCH   9  10
ENDBRANCH   6   9
ENDBRANCH   2   3
BRANCH   1  17
ATOM     17  C   UNL     1       7.194   7.063  17.334  0.00  0.00    +0.000 C 
ATOM     18  O   UNL     1       7.776   6.714  16.313  0.00  0.00    +0.000 OA
BRANCH  17  25
ATOM     19  C   UNL     1       3.245   3.630  19.676  0.00  0.00    +0.000 A 
ATOM     20  C   UNL     1       1.941   3.679  19.182  0.00  0.00    +0.000 A 
ATOM     21  C   UNL     1       1.591   4.589  18.182  0.00  0.00    +0.000 A 
ATOM     22  C   UNL     1       2.555   5.444  17.641  0.00  0.00    +0.000 A 
ATOM     23  C   UNL     1       3.872   5.390  18.102  0.00  0.00    +0.000 A 
ATOM     24  C   UNL     1       4.922   6.229  17.532  0.00  0.00    +0.000 A 
ATOM     25  C   UNL     1       6.178   6.196  18.013  0.00  0.00    +0.000 A 
ATOM     26  C   UNL     1       6.520   5.295  19.137  0.00  0.00    +0.000 A 
ATOM     27  O   UNL     1       7.627   5.277  19.667  0.00  0.00    +0.000 OA
ATOM     28  O   UNL     1       5.524   4.444  19.584  0.00  0.00    +0.000 OA
ATOM     29  C   UNL     1       4.198   4.490  19.120  0.00  0.00    +0.000 A 
BRANCH  19  31
ATOM     30  C   UNL     1       2.474   2.585  21.672  0.00  0.00    +0.000 C 
ATOM     31  O   UNL     1       3.448   2.681  20.640  0.00  0.00    +0.000 OA
ENDBRANCH  19  31
ENDBRANCH  17  25
ENDBRANCH   1  17
TORSDOF 6
ENDMDL
MODEL 3
REMARK VINA RESULT:      -9.3      1.076      1.602
REMARK  Name = 
REMARK  7 active torsions:
REMARK  status: ('A' for Active; 'I' for Inactive)
REMARK    1  A    between atoms: C_1  and  O_2
REMARK    2  A    between atoms: O_2  and  C_3
REMARK    3  A    between atoms: C_9  and  C_10
REMARK    4  A    between atoms: C_10  and  C_12
REMARK    5  A    between atoms: C_13  and  C_14
REMARK    6  A    between atoms: N_17  and  C_18
REMARK    7  A    between atoms: C_18  and  C_19
REMARK                            x       y       z     vdW  Elec       q    Type
REMARK                         _______ _______ _______ _____ _____    ______ ____
ROOT
ATOM      1  C   UNL     1       8.045   8.111  18.205  0.00  0.00    +0.000 C 
ATOM      2  C   UNL     1       8.194   9.326  17.658  0.00  0.00    +0.000 C 
ENDROOT
BRANCH   2   3
ATOM      3  C   UNL     1       8.817  10.440  18.391  0.00  0.00    +0.000 A 
ATOM      4  C   UNL     1       9.357  10.273  19.667  0.00  0.00    +0.000 A 
ATOM      5  C   UNL     1       9.814  11.377  20.377  0.00  0.00    +0.000 A 
ATOM      6  N   UNL     1       9.764  12.616  19.837  0.00  0.00    +0.000 N 
ATOM      7  C   UNL     1       9.359  12.785  18.556  0.00  0.00    +0.000 A 
ATOM      8  C   UNL     1       8.881  11.707  17.813  0.00  0.00    +0.000 A 
BRANCH   6   9
ATOM      9  C   UNL     1      10.068  13.796  20.685  0.00  0.00    +0.000 C 
BRANCH   9  10
ATOM     10  C   UNL     1       8.917  14.142  21.592  0.00  0.00    +0.000 A 
ATOM     11  C   UNL     1       9.128  14.333  22.967  0.00  0.00    +0.000 A 
ATOM     12  C   UNL     1       8.054  14.618  23.813  0.00  0.00    +0.000 A 
ATOM     13  C   UNL     1       6.771  14.715  23.288  0.00  0.00    +0.000 A 
ATOM     14  F   UNL     1       5.742  14.969  24.104  0.00  0.00    +0.000 F 
ATOM     15  C   UNL     1       6.544  14.554  21.928  0.00  0.00    +0.000 A 
ATOM     16  C   UNL     1       7.614  14.271  21.077  0.00  0.00    +0.000 A 
ENDBRANCH   9  10
ENDBRANCH   6   9
ENDBRANCH   2   3
BRANCH   1  17
ATOM     17  C   UNL     1       7.438   6.975  17.454  0.00  0.00    +0.000 C 
ATOM     18  O   UNL     1       7.801   6.725  16.310  0.00  0.00    +0.000 OA
BRANCH  17  25
ATOM     19  C   UNL     1       3.274   3.844  19.845  0.00  0.00    +0.000 A 
ATOM     20  C   UNL     1       1.986   3.928  19.312  0.00  0.00    +0.000 A 
ATOM     21  C   UNL     1       1.706   4.802  18.260  0.00  0.00    +0.000 A 
ATOM     22  C   UNL     1       2.722   5.585  17.706  0.00  0.00    +0.000 A 
ATOM     23  C   UNL     1       4.023   5.495  18.207  0.00  0.00    +0.000 A 
ATOM     24  C   UNL     1       5.126   6.256  17.627  0.00  0.00    +0.000 A 
ATOM     25  C   UNL     1       6.366   6.190  18.145  0.00  0.00    +0.000 A 
ATOM     26  C   UNL     1       6.635   5.331  19.320  0.00  0.00    +0.000 A 
ATOM     27  O   UNL     1       7.726   5.290  19.882  0.00  0.00    +0.000 OA
ATOM     28  O   UNL     1       5.589   4.549  19.778  0.00  0.00    +0.000 OA
ATOM     29  C   UNL     1       4.280   4.632  19.275  0.00  0.00    +0.000 A 
BRANCH  19  31
ATOM     30  C   UNL     1       2.239   2.624  21.608  0.00  0.00    +0.000 C 
ATOM     31  O   UNL     1       3.407   2.936  20.859  0.00  0.00    +0.000 OA
ENDBRANCH  19  31
ENDBRANCH  17  25
ENDBRANCH   1  17
TORSDOF 6
ENDMDL
MODEL 4
REMARK VINA RESULT:      -9.1      1.789      1.814
REMARK  Name = 
REMARK  7 active torsions:
REMARK  status: ('A' for Active; 'I' for Inactive)
REMARK    1  A    between atoms: C_1  and  O_2
REMARK    2  A    between atoms: O_2  and  C_3
REMARK    3  A    between atoms: C_9  and  C_10
REMARK    4  A    between atoms: C_10  and  C_12
REMARK    5  A    between atoms: C_13  and  C_14
REMARK    6  A    between atoms: N_17  and  C_18
REMARK    7  A    between atoms: C_18  and  C_19
REMARK                            x       y       z     vdW  Elec       q    Type
REMARK                         _______ _______ _______ _____ _____    ______ ____
ROOT
ATOM      1  C   UNL     1       7.352   8.334  17.695  0.00  0.00    +0.000 C 
ATOM      2  C   UNL     1       8.579   8.812  17.943  0.00  0.00    +0.000 C 
ENDROOT
BRANCH   2   3
ATOM      3  C   UNL     1       8.796  10.171  18.465  0.00  0.00    +0.000 A 
ATOM      4  C   UNL     1       8.508  11.307  17.707  0.00  0.00    +0.000 A 
ATOM      5  C   UNL     1       8.851  12.566  18.185  0.00  0.00    +0.000 A 
ATOM      6  N   UNL     1       9.445  12.709  19.391  0.00  0.00    +0.000 N 
ATOM      7  C   UNL     1       9.623  11.635  20.195  0.00  0.00    +0.000 A 
ATOM      8  C   UNL     1       9.304  10.353  19.750  0.00  0.00    +0.000 A 
BRANCH   6   9
ATOM      9  C   UNL     1       9.984  14.035  19.788  0.00  0.00    +0.000 C 
BRANCH   9  10
ATOM     10  C   UNL     1       8.917  15.096  19.777  0.00  0.00    +0.000 A 
ATOM     11  C   UNL     1       8.970  16.148  18.846  0.00  0.00    +0.000 A 
ATOM     12  C   UNL     1       7.998  17.151  18.860  0.00  0.00    +0.000 A 
ATOM     13  C   UNL     1       6.975  17.106  19.798  0.00  0.00    +0.000 A 
ATOM     14  F   UNL     1       6.058  18.080  19.821  0.00  0.00    +0.000 F 
ATOM     15  C   UNL     1       6.891  16.064  20.710  0.00  0.00    +0.000 A 
ATOM     16  C   UNL     1       7.856  15.056  20.700  0.00  0.00    +0.000 A 
ENDBRANCH   9  10
ENDBRANCH   6   9
ENDBRANCH   2   3
BRANCH   1  17
ATOM     17  C   UNL     1       7.130   6.948  17.191  0.00  0.00    +0.000 C 
ATOM     18  O   UNL     1       7.742   6.541  16.210  0.00  0.00    +0.000 OA
BRANCH  17  25
ATOM     19  C   UNL     1       3.221   3.597  19.710  0.00  0.00    +0.000 A 
ATOM     20  C   UNL     1       1.917   3.603  19.213  0.00  0.00    +0.000 A 
ATOM     21  C   UNL     1       1.558   4.453  18.164  0.00  0.00    +0.000 A 
ATOM     22  C   UNL     1       2.512   5.290  17.579  0.00  0.00    +0.000 A 
ATOM     23  C   UNL     1       3.829   5.278  18.045  0.00  0.00    +0.000 A 
ATOM     24  C   UNL     1       4.869   6.098  17.431  0.00  0.00    +0.000 A 
ATOM     25  C   UNL     1       6.124   6.107  17.915  0.00  0.00    +0.000 A 
ATOM     26  C   UNL     1       6.475   5.273  19.087  0.00  0.00    +0.000 A 
ATOM     27  O   UNL     1       7.582   5.298  19.619  0.00  0.00    +0.000 OA
ATOM     28  O   UNL     1       5.489   4.434  19.577  0.00  0.00    +0.000 OA
ATOM     29  C   UNL     1       4.164   4.438  19.110  0.00  0.00    +0.000 A 
BRANCH  19  31
ATOM     30  C   UNL     1       2.435   2.618  21.733  0.00  0.00    +0.000 C 
ATOM     31  O   UNL     1       3.434   2.704  20.725  0.00  0.00    +0.000 OA
ENDBRANCH  19  31
ENDBRANCH  17  25
ENDBRANCH   1  17
TORSDOF 6
ENDMDL
MODEL 5
REMARK VINA RESULT:      -9.1      1.986      2.366
REMARK  Name = 
REMARK  7 active torsions:
REMARK  status: ('A' for Active; 'I' for Inactive)
REMARK    1  A    between atoms: C_1  and  O_2
REMARK    2  A    between atoms: O_2  and  C_3
REMARK    3  A    between atoms: C_9  and  C_10
REMARK    4  A    between atoms: C_10  and  C_12
REMARK    5  A    between atoms: C_13  and  C_14
REMARK    6  A    between atoms: N_17  and  C_18
REMARK    7  A    between atoms: C_18  and  C_19
REMARK                            x       y       z     vdW  Elec       q    Type
REMARK                         _______ _______ _______ _____ _____    ______ ____
ROOT
ATOM      1  C   UNL     1       7.545   8.423  17.694  0.00  0.00    +0.000 C 
ATOM      2  C   UNL     1       8.698   8.752  18.293  0.00  0.00    +0.000 C 
ENDROOT
BRANCH   2   3
ATOM      3  C   UNL     1       8.954  10.111  18.799  0.00  0.00    +0.000 A 
ATOM      4  C   UNL     1       9.272  10.354  20.136  0.00  0.00    +0.000 A 
ATOM      5  C   UNL     1       9.374  11.660  20.599  0.00  0.00    +0.000 A 
ATOM      6  N   UNL     1       9.190  12.706  19.763  0.00  0.00    +0.000 N 
ATOM      7  C   UNL     1       9.002  12.496  18.439  0.00  0.00    +0.000 A 
ATOM      8  C   UNL     1       8.881  11.202  17.934  0.00  0.00    +0.000 A 
BRANCH   6   9
ATOM      9  C   UNL     1       9.104  14.081  20.320  0.00  0.00    +0.000 C 
BRANCH   9  10
ATOM     10  C   UNL     1       7.681  14.476  20.610  0.00  0.00    +0.000 A 
ATOM     11  C   UNL     1       7.090  14.152  21.843  0.00  0.00    +0.000 A 
ATOM     12  C   UNL     1       5.758  14.488  22.097  0.00  0.00    +0.000 A 
ATOM     13  C   UNL     1       5.017  15.147  21.124  0.00  0.00    +0.000 A 
ATOM     14  F   UNL     1       3.736  15.450  21.364  0.00  0.00    +0.000 F 
ATOM     15  C   UNL     1       5.589  15.499  19.910  0.00  0.00    +0.000 A 
ATOM     16  C   UNL     1       6.920  15.169  19.650  0.00  0.00    +0.000 A 
ENDBRANCH   9  10
ENDBRANCH   6   9
ENDBRANCH   2   3
BRANCH   1  17
ATOM     17  C   UNL     1       7.275   7.040  17.206  0.00  0.00    +0.000 C 
ATOM     18  O   UNL     1       7.862   6.606  16.222  0.00  0.00    +0.000 OA
BRANCH  17  25
ATOM     19  C   UNL     1       3.287   3.844  19.801  0.00  0.00    +0.000 A 
ATOM     20  C   UNL     1       1.965   3.939  19.362  0.00  0.00    +0.000 A 
ATOM     21  C   UNL     1       1.612   4.840  18.354  0.00  0.00    +0.000 A 
ATOM     22  C   UNL     1       2.588   5.638  17.751  0.00  0.00    +0.000 A 
ATOM     23  C   UNL     1       3.921   5.537  18.158  0.00  0.00    +0.000 A 
ATOM     24  C   UNL     1       4.981   6.314  17.522  0.00  0.00    +0.000 A 
ATOM     25  C   UNL     1       6.253   6.237  17.950  0.00  0.00    +0.000 A 
ATOM     26  C   UNL     1       6.604   5.348  19.081  0.00  0.00    +0.000 A 
ATOM     27  O   UNL     1       7.731   5.294  19.565  0.00  0.00    +0.000 OA
ATOM     28  O   UNL     1       5.592   4.553  19.592  0.00  0.00    +0.000 OA
ATOM     29  C   UNL     1       4.251   4.647  19.183  0.00  0.00    +0.000 A 
BRANCH  19  31
ATOM     30  C   UNL     1       2.395   2.625  21.642  0.00  0.00    +0.000 C 
ATOM     31  O   UNL     1       3.490   2.910  20.780  0.00  0.00    +0.000 OA
ENDBRANCH  19  31
ENDBRANCH  17  25
ENDBRANCH   1  17
TORSDOF 6
ENDMDL
MODEL 6
REMARK VINA RESULT:      -9.1      6.644      8.895
REMARK  Name = 
REMARK  7 active torsions:
REMARK  status: ('A' for Active; 'I' for Inactive)
REMARK    1  A    between atoms: C_1  and  O_2
REMARK    2  A    between atoms: O_2  and  C_3
REMARK    3  A    between atoms: C_9  and  C_10
REMARK    4  A    between atoms: C_10  and  C_12
REMARK    5  A    between atoms: C_13  and  C_14
REMARK    6  A    between atoms: N_17  and  C_18
REMARK    7  A    between atoms: C_18  and  C_19
REMARK                            x       y       z     vdW  Elec       q    Type
REMARK                         _______ _______ _______ _____ _____    ______ ____
ROOT
ATOM      1  C   UNL     1       1.444   6.020  20.783  0.00  0.00    +0.000 C 
ATOM      2  C   UNL     1       1.803   7.158  20.172  0.00  0.00    +0.000 C 
ENDROOT
BRANCH   2   3
ATOM      3  C   UNL     1       1.161   8.446  20.481  0.00  0.00    +0.000 A 
ATOM      4  C   UNL     1       1.115   9.489  19.555  0.00  0.00    +0.000 A 
ATOM      5  C   UNL     1       0.619  10.730  19.932  0.00  0.00    +0.000 A 
ATOM      6  N   UNL     1       0.157  10.939  21.185  0.00  0.00    +0.000 N 
ATOM      7  C   UNL     1       0.079   9.911  22.063  0.00  0.00    +0.000 A 
ATOM      8  C   UNL     1       0.576   8.652  21.730  0.00  0.00    +0.000 A 
BRANCH   6   9
ATOM      9  C   UNL     1      -0.176  12.320  21.622  0.00  0.00    +0.000 C 
BRANCH   9  10
ATOM     10  C   UNL     1      -1.658  12.502  21.811  0.00  0.00    +0.000 A 
ATOM     11  C   UNL     1      -2.217  12.489  23.099  0.00  0.00    +0.000 A 
ATOM     12  C   UNL     1      -3.597  12.622  23.271  0.00  0.00    +0.000 A 
ATOM     13  C   UNL     1      -4.417  12.770  22.160  0.00  0.00    +0.000 A 
ATOM     14  F   UNL     1      -5.740  12.878  22.327  0.00  0.00    +0.000 F 
ATOM     15  C   UNL     1      -3.883  12.810  20.880  0.00  0.00    +0.000 A 
ATOM     16  C   UNL     1      -2.504  12.680  20.701  0.00  0.00    +0.000 A 
ENDBRANCH   9  10
ENDBRANCH   6   9
ENDBRANCH   2   3
BRANCH   1  17
ATOM     17  C   UNL     1       2.112   4.720  20.489  0.00  0.00    +0.000 C 
ATOM     18  O   UNL     1       1.938   3.755  21.224  0.00  0.00    +0.000 OA
BRANCH  17  25
ATOM     19  C   UNL     1       5.692   4.301  16.031  0.00  0.00    +0.000 A 
ATOM     20  C   UNL     1       7.057   4.489  16.252  0.00  0.00    +0.000 A 
ATOM     21  C   UNL     1       7.534   4.834  17.519  0.00  0.00    +0.000 A 
ATOM     22  C   UNL     1       6.648   4.966  18.591  0.00  0.00    +0.000 A 
ATOM     23  C   UNL     1       5.281   4.754  18.397  0.00  0.00    +0.000 A 
ATOM     24  C   UNL     1       4.325   4.831  19.498  0.00  0.00    +0.000 A 
ATOM     25  C   UNL     1       3.007   4.664  19.289  0.00  0.00    +0.000 A 
ATOM     26  C   UNL     1       2.499   4.391  17.925  0.00  0.00    +0.000 A 
ATOM     27  O   UNL     1       1.303   4.306  17.661  0.00  0.00    +0.000 OA
ATOM     28  O   UNL     1       3.443   4.225  16.926  0.00  0.00    +0.000 OA
ATOM     29  C   UNL     1       4.820   4.433  17.117  0.00  0.00    +0.000 A 
BRANCH  19  31
ATOM     30  C   UNL     1       6.399   4.053  13.771  0.00  0.00    +0.000 C 
ATOM     31  O   UNL     1       5.370   3.951  14.749  0.00  0.00    +0.000 OA
ENDBRANCH  19  31
ENDBRANCH  17  25
ENDBRANCH   1  17
TORSDOF 6
ENDMDL
MODEL 7
REMARK VINA RESULT:      -9.0      6.953      9.333
REMARK  Name = 
REMARK  7 active torsions:
REMARK  status: ('A' for Active; 'I' for Inactive)
REMARK    1  A    between atoms: C_1  and  O_2
REMARK    2  A    between atoms: O_2  and  C_3
REMARK    3  A    between atoms: C_9  and  C_10
REMARK    4  A    between atoms: C_10  and  C_12
REMARK    5  A    between atoms: C_13  and  C_14
REMARK    6  A    between atoms: N_17  and  C_18
REMARK    7  A    between atoms: C_18  and  C_19
REMARK                            x       y       z     vdW  Elec       q    Type
REMARK                         _______ _______ _______ _____ _____    ______ ____
ROOT
ATOM      1  C   UNL     1       1.493   6.993  20.363  0.00  0.00    +0.000 C 
ATOM      2  C   UNL     1       0.884   7.430  21.474  0.00  0.00    +0.000 C 
ENDROOT
BRANCH   2   3
ATOM      3  C   UNL     1       0.528   8.847  21.663  0.00  0.00    +0.000 A 
ATOM      4  C   UNL     1      -0.177   9.287  22.784  0.00  0.00    +0.000 A 
ATOM      5  C   UNL     1      -0.607  10.606  22.859  0.00  0.00    +0.000 A 
ATOM      6  N   UNL     1      -0.332  11.481  21.866  0.00  0.00    +0.000 N 
ATOM      7  C   UNL     1       0.454  11.109  20.828  0.00  0.00    +0.000 A 
ATOM      8  C   UNL     1       0.897   9.792  20.708  0.00  0.00    +0.000 A 
BRANCH   6   9
ATOM      9  C   UNL     1      -0.972  12.821  21.873  0.00  0.00    +0.000 C 
BRANCH   9  10
ATOM     10  C   UNL     1      -2.421  12.749  21.473  0.00  0.00    +0.000 A 
ATOM     11  C   UNL     1      -2.779  12.531  20.132  0.00  0.00    +0.000 A 
ATOM     12  C   UNL     1      -4.124  12.499  19.757  0.00  0.00    +0.000 A 
ATOM     13  C   UNL     1      -5.111  12.684  20.718  0.00  0.00    +0.000 A 
ATOM     14  F   UNL     1      -6.398  12.673  20.351  0.00  0.00    +0.000 F 
ATOM     15  C   UNL     1      -4.780  12.877  22.051  0.00  0.00    +0.000 A 
ATOM     16  C   UNL     1      -3.437  12.906  22.434  0.00  0.00    +0.000 A 
ENDBRANCH   9  10
ENDBRANCH   6   9
ENDBRANCH   2   3
BRANCH   1  17
ATOM     17  C   UNL     1       1.829   5.555  20.160  0.00  0.00    +0.000 C 
ATOM     18  O   UNL     1       1.245   4.687  20.799  0.00  0.00    +0.000 OA
BRANCH  17  25
ATOM     19  C   UNL     1       6.107   4.181  16.601  0.00  0.00    +0.000 A 
ATOM     20  C   UNL     1       7.412   4.515  16.965  0.00  0.00    +0.000 A 
ATOM     21  C   UNL     1       7.664   5.225  18.142  0.00  0.00    +0.000 A 
ATOM     22  C   UNL     1       6.609   5.583  18.987  0.00  0.00    +0.000 A 
ATOM     23  C   UNL     1       5.299   5.233  18.653  0.00  0.00    +0.000 A 
ATOM     24  C   UNL     1       4.173   5.542  19.528  0.00  0.00    +0.000 A 
ATOM     25  C   UNL     1       2.912   5.235  19.176  0.00  0.00    +0.000 A 
ATOM     26  C   UNL     1       2.644   4.566  17.883  0.00  0.00    +0.000 A 
ATOM     27  O   UNL     1       1.510   4.331  17.473  0.00  0.00    +0.000 OA
ATOM     28  O   UNL     1       3.743   4.199  17.127  0.00  0.00    +0.000 OA
ATOM     29  C   UNL     1       5.065   4.544  17.460  0.00  0.00    +0.000 A 
BRANCH  19  31
ATOM     30  C   UNL     1       6.012   4.217  14.222  0.00  0.00    +0.000 C 
ATOM     31  O   UNL     1       6.011   3.473  15.434  0.00  0.00    +0.000 OA
ENDBRANCH  19  31
ENDBRANCH  17  25
ENDBRANCH   1  17
TORSDOF 6
ENDMDL
MODEL 8
REMARK VINA RESULT:      -9.0      6.748      9.377
REMARK  Name = 
REMARK  7 active torsions:
REMARK  status: ('A' for Active; 'I' for Inactive)
REMARK    1  A    between atoms: C_1  and  O_2
REMARK    2  A    between atoms: O_2  and  C_3
REMARK    3  A    between atoms: C_9  and  C_10
REMARK    4  A    between atoms: C_10  and  C_12
REMARK    5  A    between atoms: C_13  and  C_14
REMARK    6  A    between atoms: N_17  and  C_18
REMARK    7  A    between atoms: C_18  and  C_19
REMARK                            x       y       z     vdW  Elec       q    Type
REMARK                         _______ _______ _______ _____ _____    ______ ____
ROOT
ATOM      1  C   UNL     1       1.414   6.526  20.521  0.00  0.00    +0.000 C 
ATOM      2  C   UNL     1       1.940   7.632  19.977  0.00  0.00    +0.000 C 
ENDROOT
BRANCH   2   3
ATOM      3  C   UNL     1       1.256   8.934  20.041  0.00  0.00    +0.000 A 
ATOM      4  C   UNL     1       0.444   9.288  21.120  0.00  0.00    +0.000 A 
ATOM      5  C   UNL     1      -0.288  10.469  21.079  0.00  0.00    +0.000 A 
ATOM      6  N   UNL     1      -0.209  11.295  20.012  0.00  0.00    +0.000 N 
ATOM      7  C   UNL     1       0.664  11.033  19.011  0.00  0.00    +0.000 A 
ATOM      8  C   UNL     1       1.408   9.855  19.006  0.00  0.00    +0.000 A 
BRANCH   6   9
ATOM      9  C   UNL     1      -1.148  12.441  19.903  0.00  0.00    +0.000 C 
BRANCH   9  10
ATOM     10  C   UNL     1      -2.462  12.027  19.298  0.00  0.00    +0.000 A 
ATOM     11  C   UNL     1      -3.672  12.495  19.837  0.00  0.00    +0.000 A 
ATOM     12  C   UNL     1      -4.892  12.082  19.297  0.00  0.00    +0.000 A 
ATOM     13  C   UNL     1      -4.906  11.205  18.220  0.00  0.00    +0.000 A 
ATOM     14  F   UNL     1      -6.077  10.797  17.717  0.00  0.00    +0.000 F 
ATOM     15  C   UNL     1      -3.723  10.751  17.656  0.00  0.00    +0.000 A 
ATOM     16  C   UNL     1      -2.500  11.162  18.189  0.00  0.00    +0.000 A 
ENDBRANCH   9  10
ENDBRANCH   6   9
ENDBRANCH   2   3
BRANCH   1  17
ATOM     17  C   UNL     1       2.119   5.213  20.479  0.00  0.00    +0.000 C 
ATOM     18  O   UNL     1       1.919   4.375  21.350  0.00  0.00    +0.000 OA
BRANCH  17  25
ATOM     19  C   UNL     1       5.958   4.172  16.351  0.00  0.00    +0.000 A 
ATOM     20  C   UNL     1       7.305   4.432  16.611  0.00  0.00    +0.000 A 
ATOM     21  C   UNL     1       7.701   4.991  17.829  0.00  0.00    +0.000 A 
ATOM     22  C   UNL     1       6.752   5.271  18.816  0.00  0.00    +0.000 A 
ATOM     23  C   UNL     1       5.403   4.993  18.584  0.00  0.00    +0.000 A 
ATOM     24  C   UNL     1       4.384   5.222  19.604  0.00  0.00    +0.000 A 
ATOM     25  C   UNL     1       3.083   4.987  19.355  0.00  0.00    +0.000 A 
ATOM     26  C   UNL     1       2.661   4.482  18.029  0.00  0.00    +0.000 A 
ATOM     27  O   UNL     1       1.484   4.322  17.718  0.00  0.00    +0.000 OA
ATOM     28  O   UNL     1       3.664   4.181  17.123  0.00  0.00    +0.000 OA
ATOM     29  C   UNL     1       5.023   4.455  17.352  0.00  0.00    +0.000 A 
BRANCH  19  31
ATOM     30  C   UNL     1       6.515   4.061  14.039  0.00  0.00    +0.000 C 
ATOM     31  O   UNL     1       5.718   3.610  15.128  0.00  0.00    +0.000 OA
ENDBRANCH  19  31
ENDBRANCH  17  25
ENDBRANCH   1  17
TORSDOF 6
ENDMDL
MODEL 9
REMARK VINA RESULT:      -8.9      7.324     10.447
REMARK  Name = 
REMARK  7 active torsions:
REMARK  status: ('A' for Active; 'I' for Inactive)
REMARK    1  A    between atoms: C_1  and  O_2
REMARK    2  A    between atoms: O_2  and  C_3
REMARK    3  A    between atoms: C_9  and  C_10
REMARK    4  A    between atoms: C_10  and  C_12
REMARK    5  A    between atoms: C_13  and  C_14
REMARK    6  A    between atoms: N_17  and  C_18
REMARK    7  A    between atoms: C_18  and  C_19
REMARK                            x       y       z     vdW  Elec       q    Type
REMARK                         _______ _______ _______ _____ _____    ______ ____
ROOT
ATOM      1  C   UNL     1       1.243   9.316  20.068  0.00  0.00    +0.000 C 
ATOM      2  C   UNL     1       1.141   8.111  20.647  0.00  0.00    +0.000 C 
ENDROOT
BRANCH   2   3
ATOM      3  C   UNL     1       1.919   6.952  20.177  0.00  0.00    +0.000 A 
ATOM      4  C   UNL     1       1.825   5.703  20.792  0.00  0.00    +0.000 A 
ATOM      5  C   UNL     1       2.673   4.673  20.403  0.00  0.00    +0.000 A 
ATOM      6  N   UNL     1       3.579   4.858  19.417  0.00  0.00    +0.000 N 
ATOM      7  C   UNL     1       3.605   6.021  18.725  0.00  0.00    +0.000 A 
ATOM      8  C   UNL     1       2.780   7.085  19.089  0.00  0.00    +0.000 A 
BRANCH   6   9
ATOM      9  C   UNL     1       4.605   3.815  19.161  0.00  0.00    +0.000 C 
BRANCH   9  10
ATOM     10  C   UNL     1       5.392   4.102  17.911  0.00  0.00    +0.000 A 
ATOM     11  C   UNL     1       6.679   4.659  17.994  0.00  0.00    +0.000 A 
ATOM     12  C   UNL     1       7.394   4.958  16.832  0.00  0.00    +0.000 A 
ATOM     13  C   UNL     1       6.828   4.702  15.590  0.00  0.00    +0.000 A 
ATOM     14  F   UNL     1       7.508   5.008  14.479  0.00  0.00    +0.000 F 
ATOM     15  C   UNL     1       5.568   4.130  15.486  0.00  0.00    +0.000 A 
ATOM     16  C   UNL     1       4.849   3.825  16.643  0.00  0.00    +0.000 A 
ENDBRANCH   9  10
ENDBRANCH   6   9
ENDBRANCH   2   3
BRANCH   1  17
ATOM     17  C   UNL     1       0.475  10.495  20.560  0.00  0.00    +0.000 C 
ATOM     18  O   UNL     1       0.838  11.095  21.565  0.00  0.00    +0.000 OA
BRANCH  17  25
ATOM     19  C   UNL     1      -4.280  11.706  17.596  0.00  0.00    +0.000 A 
ATOM     20  C   UNL     1      -4.439  11.143  16.329  0.00  0.00    +0.000 A 
ATOM     21  C   UNL     1      -3.432  10.352  15.770  0.00  0.00    +0.000 A 
ATOM     22  C   UNL     1      -2.263  10.090  16.489  0.00  0.00    +0.000 A 
ATOM     23  C   UNL     1      -2.098  10.622  17.770  0.00  0.00    +0.000 A 
ATOM     24  C   UNL     1      -0.915  10.335  18.576  0.00  0.00    +0.000 A 
ATOM     25  C   UNL     1      -0.751  10.885  19.792  0.00  0.00    +0.000 A 
ATOM     26  C   UNL     1      -1.780  11.798  20.340  0.00  0.00    +0.000 A 
ATOM     27  O   UNL     1      -1.650  12.389  21.408  0.00  0.00    +0.000 OA
ATOM     28  O   UNL     1      -2.932  11.966  19.591  0.00  0.00    +0.000 OA
ATOM     29  C   UNL     1      -3.105  11.430  18.303  0.00  0.00    +0.000 A 
BRANCH  19  31
ATOM     30  C   UNL     1      -6.526  11.728  18.389  0.00  0.00    +0.000 C 
ATOM     31  O   UNL     1      -5.351  12.443  18.025  0.00  0.00    +0.000 OA
ENDBRANCH  19  31
ENDBRANCH  17  25
ENDBRANCH   1  17
TORSDOF 6
ENDMDL
