MODEL 1
REMARK VINA RESULT:      -8.3      0.000      0.000
REMARK  Name = 
REMARK  6 active torsions:
REMARK  status: ('A' for Active; 'I' for Inactive)
REMARK    1  A    between atoms: C_1  and  C_2
REMARK    2  A    between atoms: N_4  and  C_5
REMARK    3  A    between atoms: C_8  and  N_9
REMARK    4  A    between atoms: C_10  and  C_12
REMARK    5  A    between atoms: C_12  and  C_13
REMARK    6  A    between atoms: C_13  and  N_14
REMARK                            x       y       z     vdW  Elec       q    Type
REMARK                         _______ _______ _______ _____ _____    ______ ____
ROOT
ATOM      1  N   UNL     1       3.127   6.334  17.291  0.00  0.00    +0.000 N 
ATOM      2  C   UNL     1       4.486   6.116  17.101  0.00  0.00    +0.000 C 
ATOM      3  O   UNL     1       5.387   6.631  17.764  0.00  0.00    +0.000 OA
ATOM      4  H   UNL     1       2.476   5.742  16.790  0.00  0.00    +0.000 HD
ENDROOT
BRANCH   1   8
ATOM      5  C   UNL     1       1.401   8.823  20.287  0.00  0.00    +0.000 A 
ATOM      6  C   UNL     1       1.891   7.561  20.603  0.00  0.00    +0.000 A 
ATOM      7  C   UNL     1       2.482   6.755  19.629  0.00  0.00    +0.000 A 
ATOM      8  C   UNL     1       2.589   7.173  18.305  0.00  0.00    +0.000 A 
ATOM      9  C   UNL     1       2.130   8.455  17.981  0.00  0.00    +0.000 A 
ATOM     10  C   UNL     1       1.518   9.264  18.963  0.00  0.00    +0.000 A 
BRANCH   5  14
ATOM     11  C   UNL     1      -0.826  10.447  22.871  0.00  0.00    +0.000 C 
ATOM     12  C   UNL     1      -0.322   9.312  22.020  0.00  0.00    +0.000 C 
ATOM     13  O   UNL     1      -0.884   8.222  22.060  0.00  0.00    +0.000 OA
ATOM     14  N   UNL     1       0.783   9.653  21.250  0.00  0.00    +0.000 N 
ATOM     15  H   UNL     1       1.231  10.539  21.444  0.00  0.00    +0.000 HD
ENDBRANCH   5  14
ENDBRANCH   1   8
BRANCH   2  16
ATOM     16  C   UNL     1       4.843   5.151  15.988  0.00  0.00    +0.000 C 
BRANCH  16  17
ATOM     17  C   UNL     1       5.156   3.791  16.633  0.00  0.00    +0.000 C 
BRANCH  17  18
ATOM     18  N   UNL     1       4.244   3.359  17.677  0.00  0.00    +0.000 N 
ATOM     19  C   UNL     1       2.893   3.232  17.496  0.00  0.00    +0.000 C 
ATOM     20  O   UNL     1       2.245   3.312  16.471  0.00  0.00    +0.000 OA
ATOM     21  C   UNL     1       2.302   3.071  18.817  0.00  0.00    +0.000 A 
ATOM     22  C   UNL     1       0.982   2.879  19.177  0.00  0.00    +0.000 A 
ATOM     23  C   UNL     1       0.695   2.829  20.543  0.00  0.00    +0.000 A 
ATOM     24  C   UNL     1       1.717   2.989  21.501  0.00  0.00    +0.000 A 
ATOM     25  C   UNL     1       3.047   3.186  21.108  0.00  0.00    +0.000 A 
ATOM     26  C   UNL     1       3.310   3.211  19.752  0.00  0.00    +0.000 A 
ATOM     27  C   UNL     1       4.556   3.435  19.016  0.00  0.00    +0.000 C 
ATOM     28  O   UNL     1       5.618   3.693  19.551  0.00  0.00    +0.000 OA
ENDBRANCH  17  18
ENDBRANCH  16  17
ENDBRANCH   2  16
TORSDOF 5
ENDMDL
MODEL 2
REMARK VINA RESULT:      -8.3      2.195      4.110
REMARK  Name = 
REMARK  6 active torsions:
REMARK  status: ('A' for Active; 'I' for Inactive)
REMARK    1  A    between atoms: C_1  and  C_2
REMARK    2  A    between atoms: N_4  and  C_5
REMARK    3  A    between atoms: C_8  and  N_9
REMARK    4  A    between atoms: C_10  and  C_12
REMARK    5  A    between atoms: C_12  and  C_13
REMARK    6  A    between atoms: C_13  and  N_14
REMARK                            x       y       z     vdW  Elec       q    Type
REMARK                         _______ _______ _______ _____ _____    ______ ____
ROOT
ATOM      1  N   UNL     1       2.692   6.183  20.392  0.00  0.00    +0.000 N 
ATOM      2  C   UNL     1       2.013   4.971  20.408  0.00  0.00    +0.000 C 
ATOM      3  O   UNL     1       0.841   4.808  20.068  0.00  0.00    +0.000 OA
ATOM      4  H   UNL     1       3.693   6.170  20.545  0.00  0.00    +0.000 HD
ENDROOT
BRANCH   1   8
ATOM      5  C   UNL     1       0.897   9.793  19.016  0.00  0.00    +0.000 A 
ATOM      6  C   UNL     1       0.764   9.389  20.339  0.00  0.00    +0.000 A 
ATOM      7  C   UNL     1       1.374   8.222  20.799  0.00  0.00    +0.000 A 
ATOM      8  C   UNL     1       2.123   7.409  19.952  0.00  0.00    +0.000 A 
ATOM      9  C   UNL     1       2.292   7.822  18.626  0.00  0.00    +0.000 A 
ATOM     10  C   UNL     1       1.662   8.995  18.156  0.00  0.00    +0.000 A 
BRANCH   5  14
ATOM     11  C   UNL     1      -0.269  13.300  18.230  0.00  0.00    +0.000 C 
ATOM     12  C   UNL     1       0.658  12.265  18.809  0.00  0.00    +0.000 C 
ATOM     13  O   UNL     1       1.637  12.617  19.461  0.00  0.00    +0.000 OA
ATOM     14  N   UNL     1       0.276  10.962  18.519  0.00  0.00    +0.000 N 
ATOM     15  H   UNL     1      -0.462  10.833  17.838  0.00  0.00    +0.000 HD
ENDBRANCH   5  14
ENDBRANCH   1   8
BRANCH   2  16
ATOM     16  C   UNL     1       2.822   3.776  20.875  0.00  0.00    +0.000 C 
BRANCH  16  17
ATOM     17  C   UNL     1       3.170   2.936  19.635  0.00  0.00    +0.000 C 
BRANCH  17  18
ATOM     18  N   UNL     1       3.891   3.628  18.582  0.00  0.00    +0.000 N 
ATOM     19  C   UNL     1       3.534   3.578  17.262  0.00  0.00    +0.000 C 
ATOM     20  O   UNL     1       2.539   3.098  16.753  0.00  0.00    +0.000 OA
ATOM     21  C   UNL     1       4.643   4.137  16.500  0.00  0.00    +0.000 A 
ATOM     22  C   UNL     1       4.768   4.337  15.140  0.00  0.00    +0.000 A 
ATOM     23  C   UNL     1       5.990   4.831  14.679  0.00  0.00    +0.000 A 
ATOM     24  C   UNL     1       7.047   5.092  15.575  0.00  0.00    +0.000 A 
ATOM     25  C   UNL     1       6.894   4.877  16.951  0.00  0.00    +0.000 A 
ATOM     26  C   UNL     1       5.669   4.407  17.386  0.00  0.00    +0.000 A 
ATOM     27  C   UNL     1       5.197   4.042  18.723  0.00  0.00    +0.000 C 
ATOM     28  O   UNL     1       5.898   4.069  19.717  0.00  0.00    +0.000 OA
ENDBRANCH  17  18
ENDBRANCH  16  17
ENDBRANCH   2  16
TORSDOF 5
ENDMDL
MODEL 3
REMARK VINA RESULT:      -8.2      2.036      3.997
REMARK  Name = 
REMARK  6 active torsions:
REMARK  status: ('A' for Active; 'I' for Inactive)
REMARK    1  A    between atoms: C_1  and  C_2
REMARK    2  A    between atoms: N_4  and  C_5
REMARK    3  A    between atoms: C_8  and  N_9
REMARK    4  A    between atoms: C_10  and  C_12
REMARK    5  A    between atoms: C_12  and  C_13
REMARK    6  A    between atoms: C_13  and  N_14
REMARK                            x       y       z     vdW  Elec       q    Type
REMARK                         _______ _______ _______ _____ _____    ______ ____
ROOT
ATOM      1  N   UNL     1       2.645   5.951  20.478  0.00  0.00    +0.000 N 
ATOM      2  C   UNL     1       1.910   4.772  20.521  0.00  0.00    +0.000 C 
ATOM      3  O   UNL     1       0.704   4.678  20.295  0.00  0.00    +0.000 OA
ATOM      4  H   UNL     1       3.654   5.885  20.530  0.00  0.00    +0.000 HD
ENDROOT
BRANCH   1   8
ATOM      5  C   UNL     1       0.914   9.691  19.399  0.00  0.00    +0.000 A 
ATOM      6  C   UNL     1       0.786   9.192  20.690  0.00  0.00    +0.000 A 
ATOM      7  C   UNL     1       1.376   7.980  21.053  0.00  0.00    +0.000 A 
ATOM      8  C   UNL     1       2.097   7.218  20.139  0.00  0.00    +0.000 A 
ATOM      9  C   UNL     1       2.262   7.727  18.845  0.00  0.00    +0.000 A 
ATOM     10  C   UNL     1       1.652   8.944  18.472  0.00  0.00    +0.000 A 
BRANCH   5  14
ATOM     11  C   UNL     1      -1.274  12.443  18.015  0.00  0.00    +0.000 C 
ATOM     12  C   UNL     1      -0.957  11.038  18.451  0.00  0.00    +0.000 C 
ATOM     13  O   UNL     1      -1.791  10.150  18.306  0.00  0.00    +0.000 OA
ATOM     14  N   UNL     1       0.313  10.907  19.000  0.00  0.00    +0.000 N 
ATOM     15  H   UNL     1       0.824  11.757  19.201  0.00  0.00    +0.000 HD
ENDBRANCH   5  14
ENDBRANCH   1   8
BRANCH   2  16
ATOM     16  C   UNL     1       2.699   3.524  20.865  0.00  0.00    +0.000 C 
BRANCH  16  17
ATOM     17  C   UNL     1       2.992   2.781  19.551  0.00  0.00    +0.000 C 
BRANCH  17  18
ATOM     18  N   UNL     1       3.766   3.515  18.566  0.00  0.00    +0.000 N 
ATOM     19  C   UNL     1       3.451   3.557  17.234  0.00  0.00    +0.000 C 
ATOM     20  O   UNL     1       2.461   3.140  16.667  0.00  0.00    +0.000 OA
ATOM     21  C   UNL     1       4.600   4.129  16.545  0.00  0.00    +0.000 A 
ATOM     22  C   UNL     1       4.775   4.409  15.204  0.00  0.00    +0.000 A 
ATOM     23  C   UNL     1       6.025   4.894  14.813  0.00  0.00    +0.000 A 
ATOM     24  C   UNL     1       7.058   5.068  15.756  0.00  0.00    +0.000 A 
ATOM     25  C   UNL     1       6.854   4.774  17.110  0.00  0.00    +0.000 A 
ATOM     26  C   UNL     1       5.603   4.314  17.476  0.00  0.00    +0.000 A 
ATOM     27  C   UNL     1       5.077   3.881  18.773  0.00  0.00    +0.000 C 
ATOM     28  O   UNL     1       5.746   3.826  19.788  0.00  0.00    +0.000 OA
ENDBRANCH  17  18
ENDBRANCH  16  17
ENDBRANCH   2  16
TORSDOF 5
ENDMDL
MODEL 4
REMARK VINA RESULT:      -8.0      1.993      4.317
REMARK  Name = 
REMARK  6 active torsions:
REMARK  status: ('A' for Active; 'I' for Inactive)
REMARK    1  A    between atoms: C_1  and  C_2
REMARK    2  A    between atoms: N_4  and  C_5
REMARK    3  A    between atoms: C_8  and  N_9
REMARK    4  A    between atoms: C_10  and  C_12
REMARK    5  A    between atoms: C_12  and  C_13
REMARK    6  A    between atoms: C_13  and  N_14
REMARK                            x       y       z     vdW  Elec       q    Type
REMARK                         _______ _______ _______ _____ _____    ______ ____
ROOT
ATOM      1  N   UNL     1       2.659   5.993  20.258  0.00  0.00    +0.000 N 
ATOM      2  C   UNL     1       1.900   4.844  20.447  0.00  0.00    +0.000 C 
ATOM      3  O   UNL     1       0.685   4.759  20.273  0.00  0.00    +0.000 OA
ATOM      4  H   UNL     1       3.668   5.906  20.283  0.00  0.00    +0.000 HD
ENDROOT
BRANCH   1   8
ATOM      5  C   UNL     1       1.164   9.767  18.966  0.00  0.00    +0.000 A 
ATOM      6  C   UNL     1       1.789   8.903  18.074  0.00  0.00    +0.000 A 
ATOM      7  C   UNL     1       2.254   7.655  18.489  0.00  0.00    +0.000 A 
ATOM      8  C   UNL     1       2.129   7.232  19.809  0.00  0.00    +0.000 A 
ATOM      9  C   UNL     1       1.472   8.079  20.710  0.00  0.00    +0.000 A 
ATOM     10  C   UNL     1       1.014   9.348  20.295  0.00  0.00    +0.000 A 
BRANCH   5  14
ATOM     11  C   UNL     1      -0.827  12.839  18.033  0.00  0.00    +0.000 C 
ATOM     12  C   UNL     1      -0.622  11.471  18.627  0.00  0.00    +0.000 C 
ATOM     13  O   UNL     1      -1.577  10.858  19.093  0.00  0.00    +0.000 OA
ATOM     14  N   UNL     1       0.698  11.043  18.577  0.00  0.00    +0.000 N 
ATOM     15  H   UNL     1       1.399  11.723  18.310  0.00  0.00    +0.000 HD
ENDBRANCH   5  14
ENDBRANCH   1   8
BRANCH   2  16
ATOM     16  C   UNL     1       2.672   3.617  20.890  0.00  0.00    +0.000 C 
BRANCH  16  17
ATOM     17  C   UNL     1       2.806   2.686  19.674  0.00  0.00    +0.000 C 
BRANCH  17  18
ATOM     18  N   UNL     1       3.748   3.108  18.653  0.00  0.00    +0.000 N 
ATOM     19  C   UNL     1       4.973   3.652  18.932  0.00  0.00    +0.000 C 
ATOM     20  O   UNL     1       5.540   3.758  20.002  0.00  0.00    +0.000 OA
ATOM     21  C   UNL     1       5.485   4.207  17.686  0.00  0.00    +0.000 A 
ATOM     22  C   UNL     1       6.686   4.836  17.428  0.00  0.00    +0.000 A 
ATOM     23  C   UNL     1       6.878   5.336  16.137  0.00  0.00    +0.000 A 
ATOM     24  C   UNL     1       5.872   5.211  15.158  0.00  0.00    +0.000 A 
ATOM     25  C   UNL     1       4.661   4.570  15.448  0.00  0.00    +0.000 A 
ATOM     26  C   UNL     1       4.502   4.065  16.725  0.00  0.00    +0.000 A 
ATOM     27  C   UNL     1       3.367   3.392  17.360  0.00  0.00    +0.000 C 
ATOM     28  O   UNL     1       2.299   3.203  16.809  0.00  0.00    +0.000 OA
ENDBRANCH  17  18
ENDBRANCH  16  17
ENDBRANCH   2  16
TORSDOF 5
ENDMDL
MODEL 5
REMARK VINA RESULT:      -7.8      0.686      1.844
REMARK  Name = 
REMARK  6 active torsions:
REMARK  status: ('A' for Active; 'I' for Inactive)
REMARK    1  A    between atoms: C_1  and  C_2
REMARK    2  A    between atoms: N_4  and  C_5
REMARK    3  A    between atoms: C_8  and  N_9
REMARK    4  A    between atoms: C_10  and  C_12
REMARK    5  A    between atoms: C_12  and  C_13
REMARK    6  A    between atoms: C_13  and  N_14
REMARK                            x       y       z     vdW  Elec       q    Type
REMARK                         _______ _______ _______ _____ _____    ______ ____
ROOT
ATOM      1  N   UNL     1       3.415   6.508  17.182  0.00  0.00    +0.000 N 
ATOM      2  C   UNL     1       4.801   6.439  17.105  0.00  0.00    +0.000 C 
ATOM      3  O   UNL     1       5.584   7.095  17.792  0.00  0.00    +0.000 OA
ATOM      4  H   UNL     1       2.875   5.814  16.680  0.00  0.00    +0.000 HD
ENDROOT
BRANCH   1   8
ATOM      5  C   UNL     1       1.193   8.973  19.853  0.00  0.00    +0.000 A 
ATOM      6  C   UNL     1       1.657   7.726  20.253  0.00  0.00    +0.000 A 
ATOM      7  C   UNL     1       2.409   6.928  19.389  0.00  0.00    +0.000 A 
ATOM      8  C   UNL     1       2.709   7.340  18.093  0.00  0.00    +0.000 A 
ATOM      9  C   UNL     1       2.276   8.608  17.690  0.00  0.00    +0.000 A 
ATOM     10  C   UNL     1       1.502   9.409  18.558  0.00  0.00    +0.000 A 
BRANCH   5  14
ATOM     11  C   UNL     1      -0.474  10.778  22.724  0.00  0.00    +0.000 C 
ATOM     12  C   UNL     1       0.582   9.923  22.075  0.00  0.00    +0.000 C 
ATOM     13  O   UNL     1       1.471   9.426  22.759  0.00  0.00    +0.000 OA
ATOM     14  N   UNL     1       0.416   9.794  20.702  0.00  0.00    +0.000 N 
ATOM     15  H   UNL     1      -0.269  10.392  20.257  0.00  0.00    +0.000 HD
ENDBRANCH   5  14
ENDBRANCH   1   8
BRANCH   2  16
ATOM     16  C   UNL     1       5.349   5.454  16.092  0.00  0.00    +0.000 C 
BRANCH  16  17
ATOM     17  C   UNL     1       5.143   4.039  16.657  0.00  0.00    +0.000 C 
BRANCH  17  18
ATOM     18  N   UNL     1       4.192   3.924  17.748  0.00  0.00    +0.000 N 
ATOM     19  C   UNL     1       4.557   3.734  19.053  0.00  0.00    +0.000 C 
ATOM     20  O   UNL     1       5.666   3.759  19.552  0.00  0.00    +0.000 OA
ATOM     21  C   UNL     1       3.349   3.378  19.785  0.00  0.00    +0.000 A 
ATOM     22  C   UNL     1       3.176   3.115  21.129  0.00  0.00    +0.000 A 
ATOM     23  C   UNL     1       1.900   2.725  21.542  0.00  0.00    +0.000 A 
ATOM     24  C   UNL     1       0.849   2.593  20.611  0.00  0.00    +0.000 A 
ATOM     25  C   UNL     1       1.053   2.864  19.252  0.00  0.00    +0.000 A 
ATOM     26  C   UNL     1       2.319   3.268  18.870  0.00  0.00    +0.000 A 
ATOM     27  C   UNL     1       2.873   3.582  17.552  0.00  0.00    +0.000 C 
ATOM     28  O   UNL     1       2.245   3.482  16.514  0.00  0.00    +0.000 OA
ENDBRANCH  17  18
ENDBRANCH  16  17
ENDBRANCH   2  16
TORSDOF 5
ENDMDL
MODEL 6
REMARK VINA RESULT:      -7.7      0.380      1.977
REMARK  Name = 
REMARK  6 active torsions:
REMARK  status: ('A' for Active; 'I' for Inactive)
REMARK    1  A    between atoms: C_1  and  C_2
REMARK    2  A    between atoms: N_4  and  C_5
REMARK    3  A    between atoms: C_8  and  N_9
REMARK    4  A    between atoms: C_10  and  C_12
REMARK    5  A    between atoms: C_12  and  C_13
REMARK    6  A    between atoms: C_13  and  N_14
REMARK                            x       y       z     vdW  Elec       q    Type
REMARK                         _______ _______ _______ _____ _____    ______ ____
ROOT
ATOM      1  N   UNL     1       3.246   6.584  17.299  0.00  0.00    +0.000 N 
ATOM      2  C   UNL     1       4.625   6.410  17.282  0.00  0.00    +0.000 C 
ATOM      3  O   UNL     1       5.417   6.942  18.059  0.00  0.00    +0.000 OA
ATOM      4  H   UNL     1       2.683   5.979  16.713  0.00  0.00    +0.000 HD
ENDROOT
BRANCH   1   8
ATOM      5  C   UNL     1       1.288   9.030  20.185  0.00  0.00    +0.000 A 
ATOM      6  C   UNL     1       1.463   9.469  18.879  0.00  0.00    +0.000 A 
ATOM      7  C   UNL     1       2.079   8.659  17.924  0.00  0.00    +0.000 A 
ATOM      8  C   UNL     1       2.557   7.391  18.244  0.00  0.00    +0.000 A 
ATOM      9  C   UNL     1       2.357   6.924  19.548  0.00  0.00    +0.000 A 
ATOM     10  C   UNL     1       1.748   7.749  20.518  0.00  0.00    +0.000 A 
BRANCH   5  14
ATOM     11  C   UNL     1      -0.845  10.544  22.912  0.00  0.00    +0.000 C 
ATOM     12  C   UNL     1      -0.315   9.428  22.051  0.00  0.00    +0.000 C 
ATOM     13  O   UNL     1      -0.770   8.294  22.172  0.00  0.00    +0.000 OA
ATOM     14  N   UNL     1       0.683   9.836  21.176  0.00  0.00    +0.000 N 
ATOM     15  H   UNL     1       1.063  10.766  21.304  0.00  0.00    +0.000 HD
ENDBRANCH   5  14
ENDBRANCH   1   8
BRANCH   2  16
ATOM     16  C   UNL     1       5.151   5.472  16.214  0.00  0.00    +0.000 C 
BRANCH  16  17
ATOM     17  C   UNL     1       4.727   4.044  16.597  0.00  0.00    +0.000 C 
BRANCH  17  18
ATOM     18  N   UNL     1       3.911   3.924  17.792  0.00  0.00    +0.000 N 
ATOM     19  C   UNL     1       4.418   3.630  19.028  0.00  0.00    +0.000 C 
ATOM     20  O   UNL     1       5.578   3.552  19.383  0.00  0.00    +0.000 OA
ATOM     21  C   UNL     1       3.285   3.309  19.886  0.00  0.00    +0.000 A 
ATOM     22  C   UNL     1       3.259   2.975  21.225  0.00  0.00    +0.000 A 
ATOM     23  C   UNL     1       2.018   2.643  21.775  0.00  0.00    +0.000 A 
ATOM     24  C   UNL     1       0.855   2.638  20.978  0.00  0.00    +0.000 A 
ATOM     25  C   UNL     1       0.911   2.979  19.621  0.00  0.00    +0.000 A 
ATOM     26  C   UNL     1       2.146   3.323  19.105  0.00  0.00    +0.000 A 
ATOM     27  C   UNL     1       2.556   3.682  17.745  0.00  0.00    +0.000 C 
ATOM     28  O   UNL     1       1.800   3.687  16.792  0.00  0.00    +0.000 OA
ENDBRANCH  17  18
ENDBRANCH  16  17
ENDBRANCH   2  16
TORSDOF 5
ENDMDL
MODEL 7
REMARK VINA RESULT:      -7.7      6.404      7.360
REMARK  Name = 
REMARK  6 active torsions:
REMARK  status: ('A' for Active; 'I' for Inactive)
REMARK    1  A    between atoms: C_1  and  C_2
REMARK    2  A    between atoms: N_4  and  C_5
REMARK    3  A    between atoms: C_8  and  N_9
REMARK    4  A    between atoms: C_10  and  C_12
REMARK    5  A    between atoms: C_12  and  C_13
REMARK    6  A    between atoms: C_13  and  N_14
REMARK                            x       y       z     vdW  Elec       q    Type
REMARK                         _______ _______ _______ _____ _____    ______ ____
ROOT
ATOM      1  N   UNL     1       9.077   9.105  19.158  0.00  0.00    +0.000 N 
ATOM      2  C   UNL     1       8.138   8.781  18.187  0.00  0.00    +0.000 C 
ATOM      3  O   UNL     1       7.597   9.582  17.425  0.00  0.00    +0.000 OA
ATOM      4  H   UNL     1       9.565   8.347  19.620  0.00  0.00    +0.000 HD
ENDROOT
BRANCH   1   8
ATOM      5  C   UNL     1      10.632  13.000  19.905  0.00  0.00    +0.000 A 
ATOM      6  C   UNL     1      10.739  12.418  18.648  0.00  0.00    +0.000 A 
ATOM      7  C   UNL     1      10.206  11.154  18.393  0.00  0.00    +0.000 A 
ATOM      8  C   UNL     1       9.564  10.420  19.387  0.00  0.00    +0.000 A 
ATOM      9  C   UNL     1       9.420  11.010  20.648  0.00  0.00    +0.000 A 
ATOM     10  C   UNL     1       9.973  12.282  20.911  0.00  0.00    +0.000 A 
BRANCH   5  14
ATOM     11  C   UNL     1      11.402  16.676  20.315  0.00  0.00    +0.000 C 
ATOM     12  C   UNL     1      10.523  15.486  20.038  0.00  0.00    +0.000 C 
ATOM     13  O   UNL     1       9.351  15.654  19.712  0.00  0.00    +0.000 OA
ATOM     14  N   UNL     1      11.178  14.272  20.195  0.00  0.00    +0.000 N 
ATOM     15  H   UNL     1      12.095  14.289  20.622  0.00  0.00    +0.000 HD
ENDBRANCH   5  14
ENDBRANCH   1   8
BRANCH   2  16
ATOM     16  C   UNL     1       7.789   7.309  18.082  0.00  0.00    +0.000 C 
BRANCH  16  17
ATOM     17  C   UNL     1       6.605   7.179  17.110  0.00  0.00    +0.000 C 
BRANCH  17  18
ATOM     18  N   UNL     1       5.580   6.221  17.483  0.00  0.00    +0.000 N 
ATOM     19  C   UNL     1       5.690   4.873  17.272  0.00  0.00    +0.000 C 
ATOM     20  O   UNL     1       6.649   4.233  16.887  0.00  0.00    +0.000 OA
ATOM     21  C   UNL     1       4.372   4.298  17.501  0.00  0.00    +0.000 A 
ATOM     22  C   UNL     1       3.961   2.981  17.445  0.00  0.00    +0.000 A 
ATOM     23  C   UNL     1       2.601   2.729  17.643  0.00  0.00    +0.000 A 
ATOM     24  C   UNL     1       1.698   3.787  17.871  0.00  0.00    +0.000 A 
ATOM     25  C   UNL     1       2.141   5.115  17.920  0.00  0.00    +0.000 A 
ATOM     26  C   UNL     1       3.494   5.337  17.742  0.00  0.00    +0.000 A 
ATOM     27  C   UNL     1       4.267   6.580  17.691  0.00  0.00    +0.000 C 
ATOM     28  O   UNL     1       3.769   7.688  17.768  0.00  0.00    +0.000 OA
ENDBRANCH  17  18
ENDBRANCH  16  17
ENDBRANCH   2  16
TORSDOF 5
ENDMDL
MODEL 8
REMARK VINA RESULT:      -7.6      3.363      8.167
REMARK  Name = 
REMARK  6 active torsions:
REMARK  status: ('A' for Active; 'I' for Inactive)
REMARK    1  A    between atoms: C_1  and  C_2
REMARK    2  A    between atoms: N_4  and  C_5
REMARK    3  A    between atoms: C_8  and  N_9
REMARK    4  A    between atoms: C_10  and  C_12
REMARK    5  A    between atoms: C_12  and  C_13
REMARK    6  A    between atoms: C_13  and  N_14
REMARK                            x       y       z     vdW  Elec       q    Type
REMARK                         _______ _______ _______ _____ _____    ______ ____
ROOT
ATOM      1  N   UNL     1       1.530   8.716  20.498  0.00  0.00    +0.000 N 
ATOM      2  C   UNL     1       0.392   9.027  21.233  0.00  0.00    +0.000 C 
ATOM      3  O   UNL     1      -0.472   8.222  21.580  0.00  0.00    +0.000 OA
ATOM      4  H   UNL     1       2.245   9.427  20.404  0.00  0.00    +0.000 HD
ENDROOT
BRANCH   1   8
ATOM      5  C   UNL     1       2.410   4.762  19.180  0.00  0.00    +0.000 A 
ATOM      6  C   UNL     1       2.651   5.857  18.359  0.00  0.00    +0.000 A 
ATOM      7  C   UNL     1       2.389   7.155  18.799  0.00  0.00    +0.000 A 
ATOM      8  C   UNL     1       1.864   7.404  20.064  0.00  0.00    +0.000 A 
ATOM      9  C   UNL     1       1.648   6.311  20.912  0.00  0.00    +0.000 A 
ATOM     10  C   UNL     1       1.897   4.997  20.462  0.00  0.00    +0.000 A 
BRANCH   5  14
ATOM     11  C   UNL     1       3.809   1.354  18.338  0.00  0.00    +0.000 C 
ATOM     12  C   UNL     1       3.790   2.692  19.028  0.00  0.00    +0.000 C 
ATOM     13  O   UNL     1       4.727   3.021  19.749  0.00  0.00    +0.000 OA
ATOM     14  N   UNL     1       2.649   3.435  18.753  0.00  0.00    +0.000 N 
ATOM     15  H   UNL     1       1.892   2.966  18.271  0.00  0.00    +0.000 HD
ENDBRANCH   5  14
ENDBRANCH   1   8
BRANCH   2  16
ATOM     16  C   UNL     1       0.250  10.483  21.630  0.00  0.00    +0.000 C 
BRANCH  16  17
ATOM     17  C   UNL     1       0.193  11.315  20.338  0.00  0.00    +0.000 C 
BRANCH  17  18
ATOM     18  N   UNL     1      -0.907  11.017  19.440  0.00  0.00    +0.000 N 
ATOM     19  C   UNL     1      -0.758  10.337  18.261  0.00  0.00    +0.000 C 
ATOM     20  O   UNL     1       0.222   9.765  17.823  0.00  0.00    +0.000 OA
ATOM     21  C   UNL     1      -2.002  10.494  17.520  0.00  0.00    +0.000 A 
ATOM     22  C   UNL     1      -2.370   9.980  16.293  0.00  0.00    +0.000 A 
ATOM     23  C   UNL     1      -3.616  10.362  15.790  0.00  0.00    +0.000 A 
ATOM     24  C   UNL     1      -4.443  11.249  16.509  0.00  0.00    +0.000 A 
ATOM     25  C   UNL     1      -4.044  11.758  17.751  0.00  0.00    +0.000 A 
ATOM     26  C   UNL     1      -2.816  11.350  18.238  0.00  0.00    +0.000 A 
ATOM     27  C   UNL     1      -2.093  11.717  19.457  0.00  0.00    +0.000 C 
ATOM     28  O   UNL     1      -2.496  12.537  20.260  0.00  0.00    +0.000 OA
ENDBRANCH  17  18
ENDBRANCH  16  17
ENDBRANCH   2  16
TORSDOF 5
ENDMDL
MODEL 9
REMARK VINA RESULT:      -7.6      6.235      7.229
REMARK  Name = 
REMARK  6 active torsions:
REMARK  status: ('A' for Active; 'I' for Inactive)
REMARK    1  A    between atoms: C_1  and  C_2
REMARK    2  A    between atoms: N_4  and  C_5
REMARK    3  A    between atoms: C_8  and  N_9
REMARK    4  A    between atoms: C_10  and  C_12
REMARK    5  A    between atoms: C_12  and  C_13
REMARK    6  A    between atoms: C_13  and  N_14
REMARK                            x       y       z     vdW  Elec       q    Type
REMARK                         _______ _______ _______ _____ _____    ______ ____
ROOT
ATOM      1  N   UNL     1       9.180   9.242  19.104  0.00  0.00    +0.000 N 
ATOM      2  C   UNL     1       8.197   8.712  18.277  0.00  0.00    +0.000 C 
ATOM      3  O   UNL     1       7.511   9.358  17.485  0.00  0.00    +0.000 OA
ATOM      4  H   UNL     1       9.784   8.597  19.599  0.00  0.00    +0.000 HD
ENDROOT
BRANCH   1   8
ATOM      5  C   UNL     1      10.172  13.385  19.108  0.00  0.00    +0.000 A 
ATOM      6  C   UNL     1       9.608  12.786  20.228  0.00  0.00    +0.000 A 
ATOM      7  C   UNL     1       9.308  11.423  20.239  0.00  0.00    +0.000 A 
ATOM      8  C   UNL     1       9.544  10.616  19.129  0.00  0.00    +0.000 A 
ATOM      9  C   UNL     1      10.143  11.201  18.007  0.00  0.00    +0.000 A 
ATOM     10  C   UNL     1      10.432  12.582  17.990  0.00  0.00    +0.000 A 
BRANCH   5  14
ATOM     11  C   UNL     1      10.333  17.104  18.462  0.00  0.00    +0.000 C 
ATOM     12  C   UNL     1       9.697  15.740  18.446  0.00  0.00    +0.000 C 
ATOM     13  O   UNL     1       8.598  15.585  17.922  0.00  0.00    +0.000 OA
ATOM     14  N   UNL     1      10.471  14.766  19.064  0.00  0.00    +0.000 N 
ATOM     15  H   UNL     1      11.277  15.076  19.590  0.00  0.00    +0.000 HD
ENDBRANCH   5  14
ENDBRANCH   1   8
BRANCH   2  16
ATOM     16  C   UNL     1       7.998   7.213  18.379  0.00  0.00    +0.000 C 
BRANCH  16  17
ATOM     17  C   UNL     1       6.925   6.814  17.352  0.00  0.00    +0.000 C 
BRANCH  17  18
ATOM     18  N   UNL     1       5.786   6.082  17.876  0.00  0.00    +0.000 N 
ATOM     19  C   UNL     1       5.866   4.803  18.358  0.00  0.00    +0.000 C 
ATOM     20  O   UNL     1       6.851   4.120  18.562  0.00  0.00    +0.000 OA
ATOM     21  C   UNL     1       4.500   4.320  18.508  0.00  0.00    +0.000 A 
ATOM     22  C   UNL     1       4.039   3.109  18.983  0.00  0.00    +0.000 A 
ATOM     23  C   UNL     1       2.660   2.893  18.945  0.00  0.00    +0.000 A 
ATOM     24  C   UNL     1       1.790   3.874  18.424  0.00  0.00    +0.000 A 
ATOM     25  C   UNL     1       2.285   5.093  17.947  0.00  0.00    +0.000 A 
ATOM     26  C   UNL     1       3.652   5.292  18.013  0.00  0.00    +0.000 A 
ATOM     27  C   UNL     1       4.485   6.412  17.569  0.00  0.00    +0.000 C 
ATOM     28  O   UNL     1       4.049   7.391  16.993  0.00  0.00    +0.000 OA
ENDBRANCH  17  18
ENDBRANCH  16  17
ENDBRANCH   2  16
TORSDOF 5
ENDMDL
