MODEL 1
REMARK VINA RESULT:      -8.0      0.000      0.000
REMARK  Name = 
REMARK  11 active torsions:
REMARK  status: ('A' for Active; 'I' for Inactive)
REMARK    1  A    between atoms: NE_4  and  CD_5
REMARK    2  A    between atoms: CD_5  and  CG_6
REMARK    3  A    between atoms: CG_6  and  CB_7
REMARK    4  A    between atoms: CB_7  and  CA_8
REMARK    5  A    between atoms: CA_8  and  N_9
REMARK    6  A    between atoms: CA_8  and  C_30
REMARK    7  A    between atoms: C_10  and  C_12
REMARK    8  A    between atoms: C_16  and  N_17
REMARK    9  A    between atoms: N_17  and  S_18
REMARK   10  A    between atoms: S_18  and  C_21
REMARK   11  A    between atoms: C_30  and  OXT_32
REMARK                            x       y       z     vdW  Elec       q    Type
REMARK                         _______ _______ _______ _____ _____    ______ ____
ROOT
ATOM      1  N   ARG A   1       5.161   4.571  17.491  0.00  0.00    +0.000 N 
ATOM      2  C   UNK A   0       4.785   3.762  18.553  0.00  0.00    +0.000 C 
ATOM      3  O   UNK A   0       5.565   3.501  19.463  0.00  0.00    +0.000 OA
ATOM      4  H   ARG A   1       4.460   4.797  16.794  0.00  0.00    +0.000 HD
ENDROOT
BRANCH   2   5
ATOM      5  C   UNK A   0       3.387   3.328  18.555  0.00  0.00    +0.000 A 
ATOM      6  S   UNK A   0       3.015   1.651  18.686  0.00  0.00    +0.000 S 
ATOM      7  C   UNK A   0       1.340   1.932  18.571  0.00  0.00    +0.000 A 
ATOM      8  C   UNK A   0       1.058   3.271  18.436  0.00  0.00    +0.000 A 
ATOM      9  C   UNK A   0       2.230   4.091  18.431  0.00  0.00    +0.000 A 
BRANCH   9  10
ATOM     10  N   UNK A   0       2.124   5.493  18.233  0.00  0.00    +0.000 N 
ATOM     11  H   UNK A   0       1.226   5.833  17.873  0.00  0.00    +0.000 HD
BRANCH  10  12
ATOM     12  S   UNK A   0       2.543   6.432  19.613  0.00  0.00    +0.000 S 
ATOM     13  O   UNK A   0       1.807   5.859  20.728  0.00  0.00    +0.000 OA
ATOM     14  O   UNK A   0       3.983   6.568  19.662  0.00  0.00    +0.000 OA
BRANCH  12  15
ATOM     15  C   UNK A   0       1.867   8.050  19.352  0.00  0.00    +0.000 A 
ATOM     16  N   UNK A   0       1.737   8.492  18.065  0.00  0.00    +0.000 NA
ATOM     17  C   UNK A   0       1.144   9.701  17.862  0.00  0.00    +0.000 A 
ATOM     18  C   UNK A   0       0.617  10.518  18.855  0.00  0.00    +0.000 A 
ATOM     19  C   UNK A   0       0.782  10.010  20.133  0.00  0.00    +0.000 A 
ATOM     20  O   UNK A   0       0.367  10.587  21.293  0.00  0.00    +0.000 OA
ATOM     21  N   UNK A   0       0.724   9.778  22.364  0.00  0.00    +0.000 NA
ATOM     22  C   UNK A   0       1.344   8.726  21.822  0.00  0.00    +0.000 A 
ATOM     23  C   UNK A   0       1.402   8.811  20.418  0.00  0.00    +0.000 A 
ENDBRANCH  12  15
ENDBRANCH  10  12
ENDBRANCH   9  10
ENDBRANCH   2   5
BRANCH   1  24
ATOM     24  CA  ARG A   1       6.544   5.081  17.276  0.00  0.00    +0.000 C 
BRANCH  24  25
ATOM     25  C   ARG A   1       6.540   6.613  17.113  0.00  0.00    +0.000 C 
ATOM     26  O   ARG A   1       7.553   7.287  16.978  0.00  0.00    +0.000 OA
BRANCH  25  27
ATOM     27  OXT ARG A   1       5.313   7.186  17.106  0.00  0.00    +0.000 OA
ATOM     28  HXT ARG A   1       5.191   7.798  17.857  0.00  0.00    +0.000 HD
ENDBRANCH  25  27
ENDBRANCH  24  25
BRANCH  24  29
ATOM     29  CB  ARG A   1       7.160   4.396  16.030  0.00  0.00    +0.000 C 
BRANCH  29  30
ATOM     30  CG  ARG A   1       6.782   4.994  14.655  0.00  0.00    +0.000 C 
BRANCH  30  31
ATOM     31  CD  ARG A   1       5.690   4.151  13.969  0.00  0.00    +0.000 C 
BRANCH  31  35
ATOM     32  NH1 ARG A   1       4.472   3.245  11.568  0.00  0.00    +0.000 NA
ATOM     33  CZ  ARG A   1       5.560   2.719  11.992  0.00  0.00    +0.000 C 
ATOM     34  NH2 ARG A   1       6.141   1.659  11.395  0.00  0.00    +0.000 N 
ATOM     35  NE  ARG A   1       6.260   3.149  13.076  0.00  0.00    +0.000 N 
ATOM     36  HH1 ARG A   1       4.132   2.726  10.757  0.00  0.00    +0.000 HD
ATOM     37 HH21 ARG A   1       5.804   1.469  10.461  0.00  0.00    +0.000 HD
ATOM     38 HH22 ARG A   1       7.152   1.699  11.406  0.00  0.00    +0.000 HD
ATOM     39  HE  ARG A   1       6.791   2.424  13.534  0.00  0.00    +0.000 HD
ENDBRANCH  31  35
ENDBRANCH  30  31
ENDBRANCH  29  30
ENDBRANCH  24  29
ENDBRANCH   1  24
TORSDOF 11
ENDMDL
MODEL 2
REMARK VINA RESULT:      -8.0      1.344      1.676
REMARK  Name = 
REMARK  11 active torsions:
REMARK  status: ('A' for Active; 'I' for Inactive)
REMARK    1  A    between atoms: NE_4  and  CD_5
REMARK    2  A    between atoms: CD_5  and  CG_6
REMARK    3  A    between atoms: CG_6  and  CB_7
REMARK    4  A    between atoms: CB_7  and  CA_8
REMARK    5  A    between atoms: CA_8  and  N_9
REMARK    6  A    between atoms: CA_8  and  C_30
REMARK    7  A    between atoms: C_10  and  C_12
REMARK    8  A    between atoms: C_16  and  N_17
REMARK    9  A    between atoms: N_17  and  S_18
REMARK   10  A    between atoms: S_18  and  C_21
REMARK   11  A    between atoms: C_30  and  OXT_32
REMARK                            x       y       z     vdW  Elec       q    Type
REMARK                         _______ _______ _______ _____ _____    ______ ____
ROOT
ATOM      1  N   ARG A   1       5.861   4.933  17.782  0.00  0.00    +0.000 N 
ATOM      2  C   UNK A   0       5.713   4.632  19.128  0.00  0.00    +0.000 C 
ATOM      3  O   UNK A   0       6.622   4.827  19.928  0.00  0.00    +0.000 OA
ATOM      4  H   ARG A   1       5.060   4.802  17.174  0.00  0.00    +0.000 HD
ENDROOT
BRANCH   2   5
ATOM      5  C   UNK A   0       4.387   4.160  19.529  0.00  0.00    +0.000 A 
ATOM      6  S   UNK A   0       4.058   2.469  19.565  0.00  0.00    +0.000 S 
ATOM      7  C   UNK A   0       2.440   2.714  20.037  0.00  0.00    +0.000 A 
ATOM      8  C   UNK A   0       2.146   4.051  20.169  0.00  0.00    +0.000 A 
ATOM      9  C   UNK A   0       3.263   4.899  19.884  0.00  0.00    +0.000 A 
BRANCH   9  10
ATOM     10  N   UNK A   0       3.115   6.310  19.907  0.00  0.00    +0.000 N 
ATOM     11  H   UNK A   0       3.908   6.844  20.280  0.00  0.00    +0.000 HD
BRANCH  10  12
ATOM     12  S   UNK A   0       2.669   6.996  18.393  0.00  0.00    +0.000 S 
ATOM     13  O   UNK A   0       3.911   7.218  17.671  0.00  0.00    +0.000 OA
ATOM     14  O   UNK A   0       1.605   6.200  17.818  0.00  0.00    +0.000 OA
BRANCH  12  15
ATOM     15  C   UNK A   0       2.002   8.601  18.738  0.00  0.00    +0.000 A 
ATOM     16  N   UNK A   0       2.116   9.566  17.775  0.00  0.00    +0.000 NA
ATOM     17  C   UNK A   0       1.533  10.773  18.009  0.00  0.00    +0.000 A 
ATOM     18  C   UNK A   0       0.788  11.106  19.134  0.00  0.00    +0.000 A 
ATOM     19  C   UNK A   0       0.712  10.085  20.066  0.00  0.00    +0.000 A 
ATOM     20  O   UNK A   0       0.052  10.122  21.256  0.00  0.00    +0.000 OA
ATOM     21  N   UNK A   0       0.215   8.910  21.913  0.00  0.00    +0.000 NA
ATOM     22  C   UNK A   0       0.969   8.165  21.099  0.00  0.00    +0.000 A 
ATOM     23  C   UNK A   0       1.305   8.848  19.915  0.00  0.00    +0.000 A 
ENDBRANCH  12  15
ENDBRANCH  10  12
ENDBRANCH   9  10
ENDBRANCH   2   5
BRANCH   1  24
ATOM     24  CA  ARG A   1       7.138   5.382  17.160  0.00  0.00    +0.000 C 
BRANCH  24  25
ATOM     25  C   ARG A   1       7.467   6.828  17.577  0.00  0.00    +0.000 C 
ATOM     26  O   ARG A   1       7.097   7.817  16.957  0.00  0.00    +0.000 OA
BRANCH  25  27
ATOM     27  OXT ARG A   1       8.194   6.947  18.713  0.00  0.00    +0.000 OA
ATOM     28  HXT ARG A   1       8.349   6.083  19.140  0.00  0.00    +0.000 HD
ENDBRANCH  25  27
ENDBRANCH  24  25
BRANCH  24  29
ATOM     29  CB  ARG A   1       7.032   5.264  15.618  0.00  0.00    +0.000 C 
BRANCH  29  30
ATOM     30  CG  ARG A   1       6.052   4.201  15.072  0.00  0.00    +0.000 C 
BRANCH  30  31
ATOM     31  CD  ARG A   1       6.357   3.874  13.598  0.00  0.00    +0.000 C 
BRANCH  31  35
ATOM     32  NH1 ARG A   1       5.857   1.912  11.607  0.00  0.00    +0.000 NA
ATOM     33  CZ  ARG A   1       5.031   2.869  11.808  0.00  0.00    +0.000 C 
ATOM     34  NH2 ARG A   1       3.938   3.065  11.043  0.00  0.00    +0.000 N 
ATOM     35  NE  ARG A   1       5.142   3.796  12.796  0.00  0.00    +0.000 N 
ATOM     36  HH1 ARG A   1       5.565   1.371  10.791  0.00  0.00    +0.000 HD
ATOM     37 HH21 ARG A   1       3.682   2.272  10.469  0.00  0.00    +0.000 HD
ATOM     38 HH22 ARG A   1       3.138   3.396  11.567  0.00  0.00    +0.000 HD
ATOM     39  HE  ARG A   1       4.723   4.687  12.572  0.00  0.00    +0.000 HD
ENDBRANCH  31  35
ENDBRANCH  30  31
ENDBRANCH  29  30
ENDBRANCH  24  29
ENDBRANCH   1  24
TORSDOF 11
ENDMDL
MODEL 3
REMARK VINA RESULT:      -7.8      1.394      2.085
REMARK  Name = 
REMARK  11 active torsions:
REMARK  status: ('A' for Active; 'I' for Inactive)
REMARK    1  A    between atoms: NE_4  and  CD_5
REMARK    2  A    between atoms: CD_5  and  CG_6
REMARK    3  A    between atoms: CG_6  and  CB_7
REMARK    4  A    between atoms: CB_7  and  CA_8
REMARK    5  A    between atoms: CA_8  and  N_9
REMARK    6  A    between atoms: CA_8  and  C_30
REMARK    7  A    between atoms: C_10  and  C_12
REMARK    8  A    between atoms: C_16  and  N_17
REMARK    9  A    between atoms: N_17  and  S_18
REMARK   10  A    between atoms: S_18  and  C_21
REMARK   11  A    between atoms: C_30  and  OXT_32
REMARK                            x       y       z     vdW  Elec       q    Type
REMARK                         _______ _______ _______ _____ _____    ______ ____
ROOT
ATOM      1  N   ARG A   1       4.916   4.233  18.366  0.00  0.00    +0.000 N 
ATOM      2  C   UNK A   0       4.457   3.272  19.255  0.00  0.00    +0.000 C 
ATOM      3  O   UNK A   0       5.235   2.583  19.906  0.00  0.00    +0.000 OA
ATOM      4  H   ARG A   1       4.229   4.810  17.893  0.00  0.00    +0.000 HD
ENDROOT
BRANCH   2   5
ATOM      5  C   UNK A   0       3.004   3.206  19.422  0.00  0.00    +0.000 A 
ATOM      6  S   UNK A   0       2.141   1.832  18.843  0.00  0.00    +0.000 S 
ATOM      7  C   UNK A   0       0.638   2.476  19.322  0.00  0.00    +0.000 A 
ATOM      8  C   UNK A   0       0.779   3.709  19.913  0.00  0.00    +0.000 A 
ATOM      9  C   UNK A   0       2.142   4.142  19.983  0.00  0.00    +0.000 A 
BRANCH   9  10
ATOM     10  N   UNK A   0       2.460   5.423  20.504  0.00  0.00    +0.000 N 
ATOM     11  H   UNK A   0       3.295   5.477  21.097  0.00  0.00    +0.000 HD
BRANCH  10  12
ATOM     12  S   UNK A   0       2.565   6.661  19.313  0.00  0.00    +0.000 S 
ATOM     13  O   UNK A   0       3.962   7.056  19.265  0.00  0.00    +0.000 OA
ATOM     14  O   UNK A   0       1.874   6.217  18.120  0.00  0.00    +0.000 OA
BRANCH  12  15
ATOM     15  C   UNK A   0       1.676   8.057  19.949  0.00  0.00    +0.000 A 
ATOM     16  N   UNK A   0       1.125   7.954  21.196  0.00  0.00    +0.000 NA
ATOM     17  C   UNK A   0       0.514   9.054  21.716  0.00  0.00    +0.000 A 
ATOM     18  C   UNK A   0       0.431  10.298  21.102  0.00  0.00    +0.000 A 
ATOM     19  C   UNK A   0       1.009  10.331  19.844  0.00  0.00    +0.000 A 
ATOM     20  O   UNK A   0       1.081  11.408  19.015  0.00  0.00    +0.000 OA
ATOM     21  N   UNK A   0       1.726  11.043  17.840  0.00  0.00    +0.000 NA
ATOM     22  C   UNK A   0       2.034   9.751  17.992  0.00  0.00    +0.000 A 
ATOM     23  C   UNK A   0       1.616   9.250  19.239  0.00  0.00    +0.000 A 
ENDBRANCH  12  15
ENDBRANCH  10  12
ENDBRANCH   9  10
ENDBRANCH   2   5
BRANCH   1  24
ATOM     24  CA  ARG A   1       6.349   4.433  18.017  0.00  0.00    +0.000 C 
BRANCH  24  25
ATOM     25  C   ARG A   1       6.970   5.546  18.884  0.00  0.00    +0.000 C 
ATOM     26  O   ARG A   1       7.149   5.450  20.091  0.00  0.00    +0.000 OA
BRANCH  25  27
ATOM     27  OXT ARG A   1       7.337   6.662  18.209  0.00  0.00    +0.000 OA
ATOM     28  HXT ARG A   1       7.087   7.476  18.685  0.00  0.00    +0.000 HD
ENDBRANCH  25  27
ENDBRANCH  24  25
BRANCH  24  29
ATOM     29  CB  ARG A   1       6.472   4.777  16.510  0.00  0.00    +0.000 C 
BRANCH  29  30
ATOM     30  CG  ARG A   1       5.915   3.733  15.516  0.00  0.00    +0.000 C 
BRANCH  30  31
ATOM     31  CD  ARG A   1       5.959   4.267  14.072  0.00  0.00    +0.000 C 
BRANCH  31  35
ATOM     32  NH1 ARG A   1       4.551   3.416  11.757  0.00  0.00    +0.000 NA
ATOM     33  CZ  ARG A   1       5.650   2.857  12.100  0.00  0.00    +0.000 C 
ATOM     34  NH2 ARG A   1       6.158   1.786  11.456  0.00  0.00    +0.000 N 
ATOM     35  NE  ARG A   1       6.437   3.258  13.134  0.00  0.00    +0.000 N 
ATOM     36  HH1 ARG A   1       4.140   2.914  10.969  0.00  0.00    +0.000 HD
ATOM     37 HH21 ARG A   1       5.751   1.613  10.547  0.00  0.00    +0.000 HD
ATOM     38 HH22 ARG A   1       7.168   1.799  11.396  0.00  0.00    +0.000 HD
ATOM     39  HE  ARG A   1       6.978   2.514  13.550  0.00  0.00    +0.000 HD
ENDBRANCH  31  35
ENDBRANCH  30  31
ENDBRANCH  29  30
ENDBRANCH  24  29
ENDBRANCH   1  24
TORSDOF 11
ENDMDL
MODEL 4
REMARK VINA RESULT:      -7.8      1.169      1.836
REMARK  Name = 
REMARK  11 active torsions:
REMARK  status: ('A' for Active; 'I' for Inactive)
REMARK    1  A    between atoms: NE_4  and  CD_5
REMARK    2  A    between atoms: CD_5  and  CG_6
REMARK    3  A    between atoms: CG_6  and  CB_7
REMARK    4  A    between atoms: CB_7  and  CA_8
REMARK    5  A    between atoms: CA_8  and  N_9
REMARK    6  A    between atoms: CA_8  and  C_30
REMARK    7  A    between atoms: C_10  and  C_12
REMARK    8  A    between atoms: C_16  and  N_17
REMARK    9  A    between atoms: N_17  and  S_18
REMARK   10  A    between atoms: S_18  and  C_21
REMARK   11  A    between atoms: C_30  and  OXT_32
REMARK                            x       y       z     vdW  Elec       q    Type
REMARK                         _______ _______ _______ _____ _____    ______ ____
ROOT
ATOM      1  N   ARG A   1       5.078   4.741  17.564  0.00  0.00    +0.000 N 
ATOM      2  C   UNK A   0       4.866   4.001  18.717  0.00  0.00    +0.000 C 
ATOM      3  O   UNK A   0       5.762   3.831  19.538  0.00  0.00    +0.000 OA
ATOM      4  H   ARG A   1       4.289   4.894  16.945  0.00  0.00    +0.000 HD
ENDROOT
BRANCH   2   5
ATOM      5  C   UNK A   0       3.498   3.525  18.923  0.00  0.00    +0.000 A 
ATOM      6  S   UNK A   0       3.002   2.028  18.228  0.00  0.00    +0.000 S 
ATOM      7  C   UNK A   0       1.414   2.188  18.821  0.00  0.00    +0.000 A 
ATOM      8  C   UNK A   0       1.253   3.352  19.535  0.00  0.00    +0.000 A 
ATOM      9  C   UNK A   0       2.450   4.132  19.608  0.00  0.00    +0.000 A 
BRANCH   9  10
ATOM     10  N   UNK A   0       2.443   5.397  20.252  0.00  0.00    +0.000 N 
ATOM     11  H   UNK A   0       3.167   5.548  20.964  0.00  0.00    +0.000 HD
BRANCH  10  12
ATOM     12  S   UNK A   0       2.462   6.737  19.172  0.00  0.00    +0.000 S 
ATOM     13  O   UNK A   0       3.851   7.155  19.075  0.00  0.00    +0.000 OA
ATOM     14  O   UNK A   0       1.704   6.390  17.988  0.00  0.00    +0.000 OA
BRANCH  12  15
ATOM     15  C   UNK A   0       1.602   8.057  19.983  0.00  0.00    +0.000 A 
ATOM     16  N   UNK A   0       1.144   7.842  21.253  0.00  0.00    +0.000 NA
ATOM     17  C   UNK A   0       0.555   8.882  21.904  0.00  0.00    +0.000 A 
ATOM     18  C   UNK A   0       0.410  10.170  21.403  0.00  0.00    +0.000 A 
ATOM     19  C   UNK A   0       0.894  10.318  20.114  0.00  0.00    +0.000 A 
ATOM     20  O   UNK A   0       0.890  11.460  19.374  0.00  0.00    +0.000 OA
ATOM     21  N   UNK A   0       1.454  11.205  18.130  0.00  0.00    +0.000 NA
ATOM     22  C   UNK A   0       1.791   9.913  18.152  0.00  0.00    +0.000 A 
ATOM     23  C   UNK A   0       1.472   9.303  19.380  0.00  0.00    +0.000 A 
ENDBRANCH  12  15
ENDBRANCH  10  12
ENDBRANCH   9  10
ENDBRANCH   2   5
BRANCH   1  24
ATOM     24  CA  ARG A   1       6.403   5.277  17.144  0.00  0.00    +0.000 C 
BRANCH  24  25
ATOM     25  C   ARG A   1       6.277   6.742  16.683  0.00  0.00    +0.000 C 
ATOM     26  O   ARG A   1       7.016   7.641  17.062  0.00  0.00    +0.000 OA
BRANCH  25  27
ATOM     27  OXT ARG A   1       5.284   6.980  15.794  0.00  0.00    +0.000 OA
ATOM     28  HXT ARG A   1       5.401   6.469  14.970  0.00  0.00    +0.000 HD
ENDBRANCH  25  27
ENDBRANCH  24  25
BRANCH  24  29
ATOM     29  CB  ARG A   1       6.983   4.392  16.011  0.00  0.00    +0.000 C 
BRANCH  29  30
ATOM     30  CG  ARG A   1       5.961   3.631  15.136  0.00  0.00    +0.000 C 
BRANCH  30  31
ATOM     31  CD  ARG A   1       6.060   4.071  13.663  0.00  0.00    +0.000 C 
BRANCH  31  35
ATOM     32  NH1 ARG A   1       4.460   3.113  11.521  0.00  0.00    +0.000 NA
ATOM     33  CZ  ARG A   1       5.549   2.521  11.843  0.00  0.00    +0.000 C 
ATOM     34  NH2 ARG A   1       5.957   1.373  11.265  0.00  0.00    +0.000 N 
ATOM     35  NE  ARG A   1       6.422   2.961  12.789  0.00  0.00    +0.000 N 
ATOM     36  HH1 ARG A   1       3.973   2.571  10.805  0.00  0.00    +0.000 HD
ATOM     37 HH21 ARG A   1       5.482   1.149  10.400  0.00  0.00    +0.000 HD
ATOM     38 HH22 ARG A   1       6.960   1.322  11.143  0.00  0.00    +0.000 HD
ATOM     39  HE  ARG A   1       6.949   2.224  13.234  0.00  0.00    +0.000 HD
ENDBRANCH  31  35
ENDBRANCH  30  31
ENDBRANCH  29  30
ENDBRANCH  24  29
ENDBRANCH   1  24
TORSDOF 11
ENDMDL
MODEL 5
REMARK VINA RESULT:      -7.8      1.556      1.883
REMARK  Name = 
REMARK  11 active torsions:
REMARK  status: ('A' for Active; 'I' for Inactive)
REMARK    1  A    between atoms: NE_4  and  CD_5
REMARK    2  A    between atoms: CD_5  and  CG_6
REMARK    3  A    between atoms: CG_6  and  CB_7
REMARK    4  A    between atoms: CB_7  and  CA_8
REMARK    5  A    between atoms: CA_8  and  N_9
REMARK    6  A    between atoms: CA_8  and  C_30
REMARK    7  A    between atoms: C_10  and  C_12
REMARK    8  A    between atoms: C_16  and  N_17
REMARK    9  A    between atoms: N_17  and  S_18
REMARK   10  A    between atoms: S_18  and  C_21
REMARK   11  A    between atoms: C_30  and  OXT_32
REMARK                            x       y       z     vdW  Elec       q    Type
REMARK                         _______ _______ _______ _____ _____    ______ ____
ROOT
ATOM      1  N   ARG A   1       5.397   4.828  19.021  0.00  0.00    +0.000 N 
ATOM      2  C   UNK A   0       4.728   3.650  19.320  0.00  0.00    +0.000 C 
ATOM      3  O   UNK A   0       5.272   2.558  19.189  0.00  0.00    +0.000 OA
ATOM      4  H   ARG A   1       4.919   5.705  19.197  0.00  0.00    +0.000 HD
ENDROOT
BRANCH   2   5
ATOM      5  C   UNK A   0       3.385   3.808  19.879  0.00  0.00    +0.000 A 
ATOM      6  S   UNK A   0       2.429   2.414  20.211  0.00  0.00    +0.000 S 
ATOM      7  C   UNK A   0       1.108   3.349  20.742  0.00  0.00    +0.000 A 
ATOM      8  C   UNK A   0       1.378   4.695  20.673  0.00  0.00    +0.000 A 
ATOM      9  C   UNK A   0       2.693   4.977  20.182  0.00  0.00    +0.000 A 
BRANCH   9  10
ATOM     10  N   UNK A   0       3.112   6.318  19.985  0.00  0.00    +0.000 N 
ATOM     11  H   UNK A   0       4.106   6.512  20.149  0.00  0.00    +0.000 HD
BRANCH  10  12
ATOM     12  S   UNK A   0       2.680   6.972  18.453  0.00  0.00    +0.000 S 
ATOM     13  O   UNK A   0       3.927   7.162  17.731  0.00  0.00    +0.000 OA
ATOM     14  O   UNK A   0       1.608   6.176  17.894  0.00  0.00    +0.000 OA
BRANCH  12  15
ATOM     15  C   UNK A   0       2.031   8.594  18.757  0.00  0.00    +0.000 A 
ATOM     16  N   UNK A   0       2.196   9.545  17.788  0.00  0.00    +0.000 NA
ATOM     17  C   UNK A   0       1.627  10.765  17.988  0.00  0.00    +0.000 A 
ATOM     18  C   UNK A   0       0.852  11.125  19.083  0.00  0.00    +0.000 A 
ATOM     19  C   UNK A   0       0.726  10.117  20.024  0.00  0.00    +0.000 A 
ATOM     20  O   UNK A   0       0.027  10.181  21.190  0.00  0.00    +0.000 OA
ATOM     21  N   UNK A   0       0.146   8.973  21.866  0.00  0.00    +0.000 NA
ATOM     22  C   UNK A   0       0.913   8.205  21.087  0.00  0.00    +0.000 A 
ATOM     23  C   UNK A   0       1.301   8.868  19.907  0.00  0.00    +0.000 A 
ENDBRANCH  12  15
ENDBRANCH  10  12
ENDBRANCH   9  10
ENDBRANCH   2   5
BRANCH   1  24
ATOM     24  CA  ARG A   1       6.750   4.887  18.402  0.00  0.00    +0.000 C 
BRANCH  24  25
ATOM     25  C   ARG A   1       7.668   5.843  19.190  0.00  0.00    +0.000 C 
ATOM     26  O   ARG A   1       8.151   6.865  18.721  0.00  0.00    +0.000 OA
BRANCH  25  27
ATOM     27  OXT ARG A   1       7.898   5.486  20.476  0.00  0.00    +0.000 OA
ATOM     28  HXT ARG A   1       8.850   5.477  20.688  0.00  0.00    +0.000 HD
ENDBRANCH  25  27
ENDBRANCH  24  25
BRANCH  24  29
ATOM     29  CB  ARG A   1       6.624   5.340  16.925  0.00  0.00    +0.000 C 
BRANCH  29  30
ATOM     30  CG  ARG A   1       5.970   4.336  15.948  0.00  0.00    +0.000 C 
BRANCH  30  31
ATOM     31  CD  ARG A   1       6.717   4.311  14.601  0.00  0.00    +0.000 C 
BRANCH  31  35
ATOM     32  NH1 ARG A   1       7.161   4.193  11.798  0.00  0.00    +0.000 NA
ATOM     33  CZ  ARG A   1       6.416   3.331  12.382  0.00  0.00    +0.000 C 
ATOM     34  NH2 ARG A   1       5.728   2.384  11.711  0.00  0.00    +0.000 N 
ATOM     35  NE  ARG A   1       6.222   3.255  13.726  0.00  0.00    +0.000 N 
ATOM     36  HH1 ARG A   1       7.120   4.055  10.787  0.00  0.00    +0.000 HD
ATOM     37 HH21 ARG A   1       6.033   2.244  10.757  0.00  0.00    +0.000 HD
ATOM     38 HH22 ARG A   1       5.681   1.501  12.203  0.00  0.00    +0.000 HD
ATOM     39  HE  ARG A   1       5.327   2.869  13.989  0.00  0.00    +0.000 HD
ENDBRANCH  31  35
ENDBRANCH  30  31
ENDBRANCH  29  30
ENDBRANCH  24  29
ENDBRANCH   1  24
TORSDOF 11
ENDMDL
MODEL 6
REMARK VINA RESULT:      -7.6      2.319      4.994
REMARK  Name = 
REMARK  11 active torsions:
REMARK  status: ('A' for Active; 'I' for Inactive)
REMARK    1  A    between atoms: NE_4  and  CD_5
REMARK    2  A    between atoms: CD_5  and  CG_6
REMARK    3  A    between atoms: CG_6  and  CB_7
REMARK    4  A    between atoms: CB_7  and  CA_8
REMARK    5  A    between atoms: CA_8  and  N_9
REMARK    6  A    between atoms: CA_8  and  C_30
REMARK    7  A    between atoms: C_10  and  C_12
REMARK    8  A    between atoms: C_16  and  N_17
REMARK    9  A    between atoms: N_17  and  S_18
REMARK   10  A    between atoms: S_18  and  C_21
REMARK   11  A    between atoms: C_30  and  OXT_32
REMARK                            x       y       z     vdW  Elec       q    Type
REMARK                         _______ _______ _______ _____ _____    ______ ____
ROOT
ATOM      1  N   ARG A   1       4.816   5.223  17.247  0.00  0.00    +0.000 N 
ATOM      2  C   UNK A   0       4.582   5.450  18.596  0.00  0.00    +0.000 C 
ATOM      3  O   UNK A   0       5.311   4.970  19.458  0.00  0.00    +0.000 OA
ATOM      4  H   ARG A   1       4.213   5.688  16.576  0.00  0.00    +0.000 HD
ENDROOT
BRANCH   2   5
ATOM      5  C   UNK A   0       3.479   6.361  18.904  0.00  0.00    +0.000 A 
ATOM      6  S   UNK A   0       3.170   7.706  17.873  0.00  0.00    +0.000 S 
ATOM      7  C   UNK A   0       1.885   8.257  18.845  0.00  0.00    +0.000 A 
ATOM      8  C   UNK A   0       1.686   7.442  19.934  0.00  0.00    +0.000 A 
ATOM      9  C   UNK A   0       2.596   6.338  19.979  0.00  0.00    +0.000 A 
BRANCH   9  10
ATOM     10  N   UNK A   0       2.573   5.435  21.074  0.00  0.00    +0.000 N 
ATOM     11  H   UNK A   0       2.369   5.841  21.993  0.00  0.00    +0.000 HD
BRANCH  10  12
ATOM     12  S   UNK A   0       1.542   4.077  20.844  0.00  0.00    +0.000 S 
ATOM     13  O   UNK A   0       1.506   3.379  22.118  0.00  0.00    +0.000 OA
ATOM     14  O   UNK A   0       0.322   4.523  20.203  0.00  0.00    +0.000 OA
BRANCH  12  15
ATOM     15  C   UNK A   0       2.369   2.995  19.709  0.00  0.00    +0.000 A 
ATOM     16  N   UNK A   0       1.913   2.943  18.421  0.00  0.00    +0.000 NA
ATOM     17  C   UNK A   0       2.599   2.174  17.531  0.00  0.00    +0.000 A 
ATOM     18  C   UNK A   0       3.758   1.460  17.807  0.00  0.00    +0.000 A 
ATOM     19  C   UNK A   0       4.164   1.556  19.127  0.00  0.00    +0.000 A 
ATOM     20  O   UNK A   0       5.260   0.969  19.682  0.00  0.00    +0.000 OA
ATOM     21  N   UNK A   0       5.324   1.296  21.031  0.00  0.00    +0.000 NA
ATOM     22  C   UNK A   0       4.265   2.079  21.257  0.00  0.00    +0.000 A 
ATOM     23  C   UNK A   0       3.502   2.288  20.092  0.00  0.00    +0.000 A 
ENDBRANCH  12  15
ENDBRANCH  10  12
ENDBRANCH   9  10
ENDBRANCH   2   5
BRANCH   1  24
ATOM     24  CA  ARG A   1       5.856   4.296  16.722  0.00  0.00    +0.000 C 
BRANCH  24  25
ATOM     25  C   ARG A   1       7.265   4.881  16.939  0.00  0.00    +0.000 C 
ATOM     26  O   ARG A   1       8.211   4.237  17.375  0.00  0.00    +0.000 OA
BRANCH  25  27
ATOM     27  OXT ARG A   1       7.407   6.182  16.589  0.00  0.00    +0.000 OA
ATOM     28  HXT ARG A   1       8.263   6.352  16.153  0.00  0.00    +0.000 HD
ENDBRANCH  25  27
ENDBRANCH  24  25
BRANCH  24  29
ATOM     29  CB  ARG A   1       5.597   4.027  15.218  0.00  0.00    +0.000 C 
BRANCH  29  30
ATOM     30  CG  ARG A   1       6.785   4.266  14.259  0.00  0.00    +0.000 C 
BRANCH  30  31
ATOM     31  CD  ARG A   1       6.339   4.158  12.789  0.00  0.00    +0.000 C 
BRANCH  31  35
ATOM     32  NH1 ARG A   1       4.498   2.660  11.228  0.00  0.00    +0.000 NA
ATOM     33  CZ  ARG A   1       5.626   2.161  11.573  0.00  0.00    +0.000 C 
ATOM     34  NH2 ARG A   1       5.974   0.885  11.307  0.00  0.00    +0.000 N 
ATOM     35  NE  ARG A   1       6.603   2.834  12.237  0.00  0.00    +0.000 N 
ATOM     36  HH1 ARG A   1       3.933   1.946  10.766  0.00  0.00    +0.000 HD
ATOM     37 HH21 ARG A   1       5.399   0.432  10.610  0.00  0.00    +0.000 HD
ATOM     38 HH22 ARG A   1       6.955   0.777  11.084  0.00  0.00    +0.000 HD
ATOM     39  HE  ARG A   1       7.191   2.245  12.809  0.00  0.00    +0.000 HD
ENDBRANCH  31  35
ENDBRANCH  30  31
ENDBRANCH  29  30
ENDBRANCH  24  29
ENDBRANCH   1  24
TORSDOF 11
ENDMDL
MODEL 7
REMARK VINA RESULT:      -7.3      3.275      4.859
REMARK  Name = 
REMARK  11 active torsions:
REMARK  status: ('A' for Active; 'I' for Inactive)
REMARK    1  A    between atoms: NE_4  and  CD_5
REMARK    2  A    between atoms: CD_5  and  CG_6
REMARK    3  A    between atoms: CG_6  and  CB_7
REMARK    4  A    between atoms: CB_7  and  CA_8
REMARK    5  A    between atoms: CA_8  and  N_9
REMARK    6  A    between atoms: CA_8  and  C_30
REMARK    7  A    between atoms: C_10  and  C_12
REMARK    8  A    between atoms: C_16  and  N_17
REMARK    9  A    between atoms: N_17  and  S_18
REMARK   10  A    between atoms: S_18  and  C_21
REMARK   11  A    between atoms: C_30  and  OXT_32
REMARK                            x       y       z     vdW  Elec       q    Type
REMARK                         _______ _______ _______ _____ _____    ______ ____
ROOT
ATOM      1  N   ARG A   1       5.775   5.461  18.512  0.00  0.00    +0.000 N 
ATOM      2  C   UNK A   0       4.773   4.563  18.174  0.00  0.00    +0.000 C 
ATOM      3  O   UNK A   0       4.770   3.991  17.089  0.00  0.00    +0.000 OA
ATOM      4  H   ARG A   1       5.757   5.865  19.442  0.00  0.00    +0.000 HD
ENDROOT
BRANCH   2   5
ATOM      5  C   UNK A   0       3.790   4.285  19.223  0.00  0.00    +0.000 A 
ATOM      6  S   UNK A   0       3.346   2.657  19.566  0.00  0.00    +0.000 S 
ATOM      7  C   UNK A   0       2.225   3.130  20.758  0.00  0.00    +0.000 A 
ATOM      8  C   UNK A   0       2.182   4.497  20.900  0.00  0.00    +0.000 A 
ATOM      9  C   UNK A   0       3.086   5.178  20.024  0.00  0.00    +0.000 A 
BRANCH   9  10
ATOM     10  N   UNK A   0       3.121   6.597  19.994  0.00  0.00    +0.000 N 
ATOM     11  H   UNK A   0       4.026   7.033  20.205  0.00  0.00    +0.000 HD
BRANCH  10  12
ATOM     12  S   UNK A   0       2.520   7.285  18.536  0.00  0.00    +0.000 S 
ATOM     13  O   UNK A   0       3.686   7.609  17.733  0.00  0.00    +0.000 OA
ATOM     14  O   UNK A   0       1.472   6.431  18.017  0.00  0.00    +0.000 OA
BRANCH  12  15
ATOM     15  C   UNK A   0       1.772   8.832  18.973  0.00  0.00    +0.000 A 
ATOM     16  N   UNK A   0       1.901   9.877  18.101  0.00  0.00    +0.000 NA
ATOM     17  C   UNK A   0       1.259  11.040  18.400  0.00  0.00    +0.000 A 
ATOM     18  C   UNK A   0       0.443  11.251  19.504  0.00  0.00    +0.000 A 
ATOM     19  C   UNK A   0       0.356  10.153  20.343  0.00  0.00    +0.000 A 
ATOM     20  O   UNK A   0      -0.368  10.067  21.492  0.00  0.00    +0.000 OA
ATOM     21  N   UNK A   0      -0.193   8.809  22.055  0.00  0.00    +0.000 NA
ATOM     22  C   UNK A   0       0.632   8.162  21.227  0.00  0.00    +0.000 A 
ATOM     23  C   UNK A   0       1.004   8.954  20.124  0.00  0.00    +0.000 A 
ENDBRANCH  12  15
ENDBRANCH  10  12
ENDBRANCH   9  10
ENDBRANCH   2   5
BRANCH   1  24
ATOM     24  CA  ARG A   1       6.842   5.914  17.578  0.00  0.00    +0.000 C 
BRANCH  24  25
ATOM     25  C   ARG A   1       7.663   4.715  17.065  0.00  0.00    +0.000 C 
ATOM     26  O   ARG A   1       8.408   4.048  17.770  0.00  0.00    +0.000 OA
BRANCH  25  27
ATOM     27  OXT ARG A   1       7.490   4.421  15.754  0.00  0.00    +0.000 OA
ATOM     28  HXT ARG A   1       8.197   3.840  15.414  0.00  0.00    +0.000 HD
ENDBRANCH  25  27
ENDBRANCH  24  25
BRANCH  24  29
ATOM     29  CB  ARG A   1       7.756   6.940  18.296  0.00  0.00    +0.000 C 
BRANCH  29  30
ATOM     30  CG  ARG A   1       7.882   8.333  17.638  0.00  0.00    +0.000 C 
BRANCH  30  31
ATOM     31  CD  ARG A   1       8.664   9.303  18.544  0.00  0.00    +0.000 C 
BRANCH  31  35
ATOM     32  NH1 ARG A   1      10.637  11.235  19.205  0.00  0.00    +0.000 NA
ATOM     33  CZ  ARG A   1       9.675  11.524  18.411  0.00  0.00    +0.000 C 
ATOM     34  NH2 ARG A   1       9.480  12.764  17.919  0.00  0.00    +0.000 N 
ATOM     35  NE  ARG A   1       8.742  10.640  17.967  0.00  0.00    +0.000 N 
ATOM     36  HH1 ARG A   1      11.182  12.075  19.405  0.00  0.00    +0.000 HD
ATOM     37 HH21 ARG A   1      10.275  13.382  18.015  0.00  0.00    +0.000 HD
ATOM     38 HH22 ARG A   1       9.141  12.766  16.965  0.00  0.00    +0.000 HD
ATOM     39  HE  ARG A   1       7.851  11.061  17.747  0.00  0.00    +0.000 HD
ENDBRANCH  31  35
ENDBRANCH  30  31
ENDBRANCH  29  30
ENDBRANCH  24  29
ENDBRANCH   1  24
TORSDOF 11
ENDMDL
MODEL 8
REMARK VINA RESULT:      -7.3      1.367      1.619
REMARK  Name = 
REMARK  11 active torsions:
REMARK  status: ('A' for Active; 'I' for Inactive)
REMARK    1  A    between atoms: NE_4  and  CD_5
REMARK    2  A    between atoms: CD_5  and  CG_6
REMARK    3  A    between atoms: CG_6  and  CB_7
REMARK    4  A    between atoms: CB_7  and  CA_8
REMARK    5  A    between atoms: CA_8  and  N_9
REMARK    6  A    between atoms: CA_8  and  C_30
REMARK    7  A    between atoms: C_10  and  C_12
REMARK    8  A    between atoms: C_16  and  N_17
REMARK    9  A    between atoms: N_17  and  S_18
REMARK   10  A    between atoms: S_18  and  C_21
REMARK   11  A    between atoms: C_30  and  OXT_32
REMARK                            x       y       z     vdW  Elec       q    Type
REMARK                         _______ _______ _______ _____ _____    ______ ____
ROOT
ATOM      1  N   ARG A   1       5.311   4.120  17.478  0.00  0.00    +0.000 N 
ATOM      2  C   UNK A   0       5.270   4.461  18.822  0.00  0.00    +0.000 C 
ATOM      3  O   UNK A   0       6.178   5.099  19.344  0.00  0.00    +0.000 OA
ATOM      4  H   ARG A   1       4.509   3.637  17.085  0.00  0.00    +0.000 HD
ENDROOT
BRANCH   2   5
ATOM      5  C   UNK A   0       4.047   4.090  19.534  0.00  0.00    +0.000 A 
ATOM      6  S   UNK A   0       3.627   2.427  19.700  0.00  0.00    +0.000 S 
ATOM      7  C   UNK A   0       2.182   2.792  20.524  0.00  0.00    +0.000 A 
ATOM      8  C   UNK A   0       2.013   4.148  20.676  0.00  0.00    +0.000 A 
ATOM      9  C   UNK A   0       3.085   4.911  20.114  0.00  0.00    +0.000 A 
BRANCH   9  10
ATOM     10  N   UNK A   0       3.038   6.330  20.124  0.00  0.00    +0.000 N 
ATOM     11  H   UNK A   0       3.873   6.809  20.478  0.00  0.00    +0.000 HD
BRANCH  10  12
ATOM     12  S   UNK A   0       2.613   7.031  18.611  0.00  0.00    +0.000 S 
ATOM     13  O   UNK A   0       3.867   7.312  17.932  0.00  0.00    +0.000 OA
ATOM     14  O   UNK A   0       1.596   6.210  17.988  0.00  0.00    +0.000 OA
BRANCH  12  15
ATOM     15  C   UNK A   0       1.878   8.604  18.967  0.00  0.00    +0.000 A 
ATOM     16  N   UNK A   0       1.995   9.595  18.032  0.00  0.00    +0.000 NA
ATOM     17  C   UNK A   0       1.362  10.776  18.271  0.00  0.00    +0.000 A 
ATOM     18  C   UNK A   0       0.565  11.056  19.374  0.00  0.00    +0.000 A 
ATOM     19  C   UNK A   0       0.490  10.011  20.279  0.00  0.00    +0.000 A 
ATOM     20  O   UNK A   0      -0.215   9.997  21.443  0.00  0.00    +0.000 OA
ATOM     21  N   UNK A   0      -0.034   8.775  22.078  0.00  0.00    +0.000 NA
ATOM     22  C   UNK A   0       0.774   8.077  21.276  0.00  0.00    +0.000 A 
ATOM     23  C   UNK A   0       1.130   8.799  20.122  0.00  0.00    +0.000 A 
ENDBRANCH  12  15
ENDBRANCH  10  12
ENDBRANCH   9  10
ENDBRANCH   2   5
BRANCH   1  24
ATOM     24  CA  ARG A   1       6.479   4.364  16.587  0.00  0.00    +0.000 C 
BRANCH  24  25
ATOM     25  C   ARG A   1       6.581   5.857  16.219  0.00  0.00    +0.000 C 
ATOM     26  O   ARG A   1       5.737   6.457  15.567  0.00  0.00    +0.000 OA
BRANCH  25  27
ATOM     27  OXT ARG A   1       7.681   6.489  16.691  0.00  0.00    +0.000 OA
ATOM     28  HXT ARG A   1       7.455   7.181  17.341  0.00  0.00    +0.000 HD
ENDBRANCH  25  27
ENDBRANCH  24  25
BRANCH  24  29
ATOM     29  CB  ARG A   1       6.348   3.491  15.312  0.00  0.00    +0.000 C 
BRANCH  29  30
ATOM     30  CG  ARG A   1       5.561   4.105  14.133  0.00  0.00    +0.000 C 
BRANCH  30  31
ATOM     31  CD  ARG A   1       6.433   4.178  12.865  0.00  0.00    +0.000 C 
BRANCH  31  35
ATOM     32  NH1 ARG A   1       4.563   2.768  11.259  0.00  0.00    +0.000 NA
ATOM     33  CZ  ARG A   1       5.672   2.228  11.602  0.00  0.00    +0.000 C 
ATOM     34  NH2 ARG A   1       5.984   0.949  11.313  0.00  0.00    +0.000 N 
ATOM     35  NE  ARG A   1       6.663   2.858  12.288  0.00  0.00    +0.000 N 
ATOM     36  HH1 ARG A   1       3.981   2.081  10.777  0.00  0.00    +0.000 HD
ATOM     37 HH21 ARG A   1       5.402   0.527  10.602  0.00  0.00    +0.000 HD
ATOM     38 HH22 ARG A   1       6.963   0.816  11.096  0.00  0.00    +0.000 HD
ATOM     39  HE  ARG A   1       7.228   2.240  12.852  0.00  0.00    +0.000 HD
ENDBRANCH  31  35
ENDBRANCH  30  31
ENDBRANCH  29  30
ENDBRANCH  24  29
ENDBRANCH   1  24
TORSDOF 11
ENDMDL
MODEL 9
REMARK VINA RESULT:      -7.3      3.217      4.901
REMARK  Name = 
REMARK  11 active torsions:
REMARK  status: ('A' for Active; 'I' for Inactive)
REMARK    1  A    between atoms: NE_4  and  CD_5
REMARK    2  A    between atoms: CD_5  and  CG_6
REMARK    3  A    between atoms: CG_6  and  CB_7
REMARK    4  A    between atoms: CB_7  and  CA_8
REMARK    5  A    between atoms: CA_8  and  N_9
REMARK    6  A    between atoms: CA_8  and  C_30
REMARK    7  A    between atoms: C_10  and  C_12
REMARK    8  A    between atoms: C_16  and  N_17
REMARK    9  A    between atoms: N_17  and  S_18
REMARK   10  A    between atoms: S_18  and  C_21
REMARK   11  A    between atoms: C_30  and  OXT_32
REMARK                            x       y       z     vdW  Elec       q    Type
REMARK                         _______ _______ _______ _____ _____    ______ ____
ROOT
ATOM      1  N   ARG A   1       5.473   5.585  17.745  0.00  0.00    +0.000 N 
ATOM      2  C   UNK A   0       5.506   5.048  19.024  0.00  0.00    +0.000 C 
ATOM      3  O   UNK A   0       6.535   5.058  19.693  0.00  0.00    +0.000 OA
ATOM      4  H   ARG A   1       4.584   5.597  17.258  0.00  0.00    +0.000 HD
ENDROOT
BRANCH   2   5
ATOM      5  C   UNK A   0       4.226   4.561  19.540  0.00  0.00    +0.000 A 
ATOM      6  S   UNK A   0       3.920   2.867  19.599  0.00  0.00    +0.000 S 
ATOM      7  C   UNK A   0       2.347   3.093  20.214  0.00  0.00    +0.000 A 
ATOM      8  C   UNK A   0       2.052   4.426  20.376  0.00  0.00    +0.000 A 
ATOM      9  C   UNK A   0       3.130   5.287  19.996  0.00  0.00    +0.000 A 
BRANCH   9  10
ATOM     10  N   UNK A   0       2.970   6.696  20.037  0.00  0.00    +0.000 N 
ATOM     11  H   UNK A   0       3.773   7.234  20.381  0.00  0.00    +0.000 HD
BRANCH  10  12
ATOM     12  S   UNK A   0       2.455   7.389  18.549  0.00  0.00    +0.000 S 
ATOM     13  O   UNK A   0       3.646   7.951  17.934  0.00  0.00    +0.000 OA
ATOM     14  O   UNK A   0       1.637   6.424  17.845  0.00  0.00    +0.000 OA
BRANCH  12  15
ATOM     15  C   UNK A   0       1.414   8.764  18.960  0.00  0.00    +0.000 A 
ATOM     16  N   UNK A   0       0.925   9.530  17.938  0.00  0.00    +0.000 NA
ATOM     17  C   UNK A   0       0.062  10.535  18.250  0.00  0.00    +0.000 A 
ATOM     18  C   UNK A   0      -0.405  10.832  19.525  0.00  0.00    +0.000 A 
ATOM     19  C   UNK A   0       0.128  10.018  20.511  0.00  0.00    +0.000 A 
ATOM     20  O   UNK A   0      -0.146  10.074  21.843  0.00  0.00    +0.000 OA
ATOM     21  N   UNK A   0       0.590   9.102  22.507  0.00  0.00    +0.000 NA
ATOM     22  C   UNK A   0       1.290   8.477  21.555  0.00  0.00    +0.000 A 
ATOM     23  C   UNK A   0       1.033   9.003  20.275  0.00  0.00    +0.000 A 
ENDBRANCH  12  15
ENDBRANCH  10  12
ENDBRANCH   9  10
ENDBRANCH   2   5
BRANCH   1  24
ATOM     24  CA  ARG A   1       6.670   6.092  17.019  0.00  0.00    +0.000 C 
BRANCH  24  25
ATOM     25  C   ARG A   1       7.468   4.925  16.404  0.00  0.00    +0.000 C 
ATOM     26  O   ARG A   1       7.551   4.717  15.201  0.00  0.00    +0.000 OA
BRANCH  25  27
ATOM     27  OXT ARG A   1       8.107   4.133  17.297  0.00  0.00    +0.000 OA
ATOM     28  HXT ARG A   1       8.053   3.189  17.053  0.00  0.00    +0.000 HD
ENDBRANCH  25  27
ENDBRANCH  24  25
BRANCH  24  29
ATOM     29  CB  ARG A   1       7.557   6.911  17.992  0.00  0.00    +0.000 C 
BRANCH  29  30
ATOM     30  CG  ARG A   1       7.950   8.334  17.535  0.00  0.00    +0.000 C 
BRANCH  30  31
ATOM     31  CD  ARG A   1       8.575   9.133  18.695  0.00  0.00    +0.000 C 
BRANCH  31  35
ATOM     32  NH1 ARG A   1       9.752  11.076  20.399  0.00  0.00    +0.000 NA
ATOM     33  CZ  ARG A   1       9.533  11.333  19.164  0.00  0.00    +0.000 C 
ATOM     34  NH2 ARG A   1       9.751  12.546  18.618  0.00  0.00    +0.000 N 
ATOM     35  NE  ARG A   1       9.061  10.436  18.256  0.00  0.00    +0.000 N 
ATOM     36  HH1 ARG A   1      10.079  11.920  20.873  0.00  0.00    +0.000 HD
ATOM     37 HH21 ARG A   1      10.328  13.159  19.180  0.00  0.00    +0.000 HD
ATOM     38 HH22 ARG A   1      10.100  12.500  17.670  0.00  0.00    +0.000 HD
ATOM     39  HE  ARG A   1       8.535  10.854  17.503  0.00  0.00    +0.000 HD
ENDBRANCH  31  35
ENDBRANCH  30  31
ENDBRANCH  29  30
ENDBRANCH  24  29
ENDBRANCH   1  24
TORSDOF 11
ENDMDL
