MODEL 1
REMARK VINA RESULT:      -6.3      0.000      0.000
REMARK  Name = 
REMARK  16 active torsions:
REMARK  status: ('A' for Active; 'I' for Inactive)
REMARK    1  A    between atoms: C_2  and  C_3
REMARK    2  A    between atoms: C_3  and  C_4
REMARK    3  A    between atoms: N_10  and  C_11
REMARK    4  A    between atoms: C_11  and  C_12
REMARK    5  A    between atoms: C_12  and  C_13
REMARK    6  A    between atoms: C_13  and  N_14
REMARK    7  A    between atoms: N_14  and  C_15
REMARK    8  A    between atoms: C_15  and  C_16
REMARK    9  A    between atoms: C_16  and  C_17
REMARK   10  A    between atoms: C_17  and  C_18
REMARK   11  A    between atoms: C_18  and  N_19
REMARK   12  A    between atoms: N_19  and  C_20
REMARK   13  A    between atoms: C_20  and  C_21
REMARK   14  A    between atoms: C_21  and  C_22
REMARK   15  A    between atoms: C_22  and  N_23
REMARK   16  A    between atoms: C_24  and  C_26
REMARK                            x       y       z     vdW  Elec       q    Type
REMARK                         _______ _______ _______ _____ _____    ______ ____
ROOT
ATOM      1  C   UNL     1       2.795   7.169  19.716  0.00  0.00    +0.000 C 
ENDROOT
BRANCH   1   2
ATOM      2  N   UNL     1       1.918   6.411  20.614  0.00  0.00    +0.000 NA
ATOM      3  H   UNL     1       2.064   6.718  21.578  0.00  0.00    +0.000 HD
BRANCH   2   4
ATOM      4  C   UNL     1       2.207   4.987  20.511  0.00  0.00    +0.000 C 
BRANCH   4   5
ATOM      5  C   UNL     1       0.895   4.212  20.541  0.00  0.00    +0.000 C 
BRANCH   5   6
ATOM      6  C   UNL     1       1.035   2.918  19.751  0.00  0.00    +0.000 C 
BRANCH   6   9
ATOM      7  O   UNL     1       1.722   3.571  17.081  0.00  0.00    +0.000 OA
ATOM      8  C   UNL     1       2.592   3.140  17.839  0.00  0.00    +0.000 C 
ATOM      9  N   UNL     1       2.348   2.807  19.156  0.00  0.00    +0.000 N 
ATOM     10  H   UNL     1       3.095   2.430  19.723  0.00  0.00    +0.000 HD
BRANCH   8  11
ATOM     11  C   UNL     1       4.032   2.933  17.385  0.00  0.00    +0.000 C 
BRANCH  11  12
ATOM     12  C   UNL     1       4.838   4.207  17.361  0.00  0.00    +0.000 A 
ATOM     13  C   UNL     1       5.511   4.657  18.509  0.00  0.00    +0.000 A 
ATOM     14  C   UNL     1       6.196   5.874  18.497  0.00  0.00    +0.000 A 
ATOM     15  C   UNL     1       6.257   6.630  17.328  0.00  0.00    +0.000 A 
ATOM     16  C   UNL     1       5.635   6.168  16.169  0.00  0.00    +0.000 A 
ATOM     17  C   UNL     1       4.927   4.966  16.184  0.00  0.00    +0.000 A 
ENDBRANCH  11  12
ENDBRANCH   8  11
ENDBRANCH   6   9
ENDBRANCH   5   6
ENDBRANCH   4   5
ENDBRANCH   2   4
ENDBRANCH   1   2
BRANCH   1  18
ATOM     18  C   UNL     1       2.462   6.861  18.260  0.00  0.00    +0.000 C 
BRANCH  18  19
ATOM     19  C   UNL     1       1.797   8.064  17.594  0.00  0.00    +0.000 C 
BRANCH  19  20
ATOM     20  C   UNL     1       2.262   9.362  18.251  0.00  0.00    +0.000 C 
BRANCH  20  21
ATOM     21  N   UNL     1       1.282  10.408  17.981  0.00  0.00    +0.000 NA
ATOM     22  H   UNL     1       0.684  10.092  17.219  0.00  0.00    +0.000 HD
BRANCH  21  23
ATOM     23  C   UNL     1       0.478  10.683  19.171  0.00  0.00    +0.000 C 
BRANCH  23  24
ATOM     24  C   UNL     1       0.253  12.185  19.326  0.00  0.00    +0.000 C 
BRANCH  24  25
ATOM     25  C   UNL     1      -0.614  12.731  18.199  0.00  0.00    +0.000 C 
BRANCH  25  26
ATOM     26  N   UNL     1      -1.344  11.690  17.520  0.00  0.00    +0.000 N 
ATOM     27  C   UNL     1      -2.650  11.363  17.861  0.00  0.00    +0.000 C 
ATOM     28  O   UNL     1      -3.272  11.941  18.751  0.00  0.00    +0.000 OA
ATOM     29  H   UNL     1      -0.898  11.223  16.735  0.00  0.00    +0.000 HD
BRANCH  27  30
ATOM     30  C   UNL     1      -3.247  10.207  17.047  0.00  0.00    +0.000 C 
ATOM     31  F   UNL     1      -3.540   9.111  17.809  0.00  0.00    +0.000 F 
ATOM     32  F   UNL     1      -4.407  10.550  16.420  0.00  0.00    +0.000 F 
ATOM     33  F   UNL     1      -2.397   9.771  16.075  0.00  0.00    +0.000 F 
ENDBRANCH  27  30
ENDBRANCH  25  26
ENDBRANCH  24  25
ENDBRANCH  23  24
ENDBRANCH  21  23
ENDBRANCH  20  21
ENDBRANCH  19  20
ENDBRANCH  18  19
ENDBRANCH   1  18
TORSDOF 16
ENDMDL
MODEL 2
REMARK VINA RESULT:      -6.2      2.002      3.814
REMARK  Name = 
REMARK  16 active torsions:
REMARK  status: ('A' for Active; 'I' for Inactive)
REMARK    1  A    between atoms: C_2  and  C_3
REMARK    2  A    between atoms: C_3  and  C_4
REMARK    3  A    between atoms: N_10  and  C_11
REMARK    4  A    between atoms: C_11  and  C_12
REMARK    5  A    between atoms: C_12  and  C_13
REMARK    6  A    between atoms: C_13  and  N_14
REMARK    7  A    between atoms: N_14  and  C_15
REMARK    8  A    between atoms: C_15  and  C_16
REMARK    9  A    between atoms: C_16  and  C_17
REMARK   10  A    between atoms: C_17  and  C_18
REMARK   11  A    between atoms: C_18  and  N_19
REMARK   12  A    between atoms: N_19  and  C_20
REMARK   13  A    between atoms: C_20  and  C_21
REMARK   14  A    between atoms: C_21  and  C_22
REMARK   15  A    between atoms: C_22  and  N_23
REMARK   16  A    between atoms: C_24  and  C_26
REMARK                            x       y       z     vdW  Elec       q    Type
REMARK                         _______ _______ _______ _____ _____    ______ ____
ROOT
ATOM      1  C   UNL     1       2.294   6.381  20.012  0.00  0.00    +0.000 C 
ENDROOT
BRANCH   1   2
ATOM      2  N   UNL     1       3.490   6.262  19.171  0.00  0.00    +0.000 NA
ATOM      3  H   UNL     1       4.223   6.879  19.526  0.00  0.00    +0.000 HD
BRANCH   2   4
ATOM      4  C   UNL     1       3.174   6.625  17.797  0.00  0.00    +0.000 C 
BRANCH   4   5
ATOM      5  C   UNL     1       4.457   7.040  17.087  0.00  0.00    +0.000 C 
BRANCH   5   6
ATOM      6  C   UNL     1       5.153   5.817  16.508  0.00  0.00    +0.000 C 
BRANCH   6   9
ATOM      7  O   UNL     1       5.817   3.978  18.557  0.00  0.00    +0.000 OA
ATOM      8  C   UNL     1       4.837   3.758  17.844  0.00  0.00    +0.000 C 
ATOM      9  N   UNL     1       4.436   4.604  16.831  0.00  0.00    +0.000 N 
ATOM     10  H   UNL     1       3.640   4.357  16.259  0.00  0.00    +0.000 HD
BRANCH   8  11
ATOM     11  C   UNL     1       3.970   2.517  18.020  0.00  0.00    +0.000 C 
BRANCH  11  12
ATOM     12  C   UNL     1       2.969   2.644  19.140  0.00  0.00    +0.000 A 
ATOM     13  C   UNL     1       1.605   2.839  18.870  0.00  0.00    +0.000 A 
ATOM     14  C   UNL     1       0.695   3.026  19.913  0.00  0.00    +0.000 A 
ATOM     15  C   UNL     1       1.129   2.973  21.236  0.00  0.00    +0.000 A 
ATOM     16  C   UNL     1       2.473   2.730  21.517  0.00  0.00    +0.000 A 
ATOM     17  C   UNL     1       3.389   2.568  20.477  0.00  0.00    +0.000 A 
ENDBRANCH  11  12
ENDBRANCH   8  11
ENDBRANCH   6   9
ENDBRANCH   5   6
ENDBRANCH   4   5
ENDBRANCH   2   4
ENDBRANCH   1   2
BRANCH   1  18
ATOM     18  C   UNL     1       1.924   7.847  20.208  0.00  0.00    +0.000 C 
BRANCH  18  19
ATOM     19  C   UNL     1       0.908   7.999  21.339  0.00  0.00    +0.000 C 
BRANCH  19  20
ATOM     20  C   UNL     1       1.193   9.263  22.146  0.00  0.00    +0.000 C 
BRANCH  20  21
ATOM     21  N   UNL     1       0.915  10.428  21.315  0.00  0.00    +0.000 NA
ATOM     22  H   UNL     1       1.386  10.299  20.421  0.00  0.00    +0.000 HD
BRANCH  21  23
ATOM     23  C   UNL     1      -0.524  10.585  21.107  0.00  0.00    +0.000 C 
BRANCH  23  24
ATOM     24  C   UNL     1      -0.804  11.156  19.720  0.00  0.00    +0.000 C 
BRANCH  24  25
ATOM     25  C   UNL     1      -0.516  10.127  18.633  0.00  0.00    +0.000 C 
BRANCH  25  26
ATOM     26  N   UNL     1      -1.209  10.425  17.404  0.00  0.00    +0.000 N 
ATOM     27  C   UNL     1      -2.510   9.998  17.170  0.00  0.00    +0.000 C 
ATOM     28  O   UNL     1      -3.158   9.352  17.991  0.00  0.00    +0.000 OA
ATOM     29  H   UNL     1      -0.741  11.010  16.717  0.00  0.00    +0.000 HD
BRANCH  27  30
ATOM     30  C   UNL     1      -3.065  10.385  15.792  0.00  0.00    +0.000 C 
ATOM     31  F   UNL     1      -2.485  11.511  15.278  0.00  0.00    +0.000 F 
ATOM     32  F   UNL     1      -2.881   9.408  14.859  0.00  0.00    +0.000 F 
ATOM     33  F   UNL     1      -4.403  10.636  15.830  0.00  0.00    +0.000 F 
ENDBRANCH  27  30
ENDBRANCH  25  26
ENDBRANCH  24  25
ENDBRANCH  23  24
ENDBRANCH  21  23
ENDBRANCH  20  21
ENDBRANCH  19  20
ENDBRANCH  18  19
ENDBRANCH   1  18
TORSDOF 16
ENDMDL
MODEL 3
REMARK VINA RESULT:      -6.2      3.375      8.651
REMARK  Name = 
REMARK  16 active torsions:
REMARK  status: ('A' for Active; 'I' for Inactive)
REMARK    1  A    between atoms: C_2  and  C_3
REMARK    2  A    between atoms: C_3  and  C_4
REMARK    3  A    between atoms: N_10  and  C_11
REMARK    4  A    between atoms: C_11  and  C_12
REMARK    5  A    between atoms: C_12  and  C_13
REMARK    6  A    between atoms: C_13  and  N_14
REMARK    7  A    between atoms: N_14  and  C_15
REMARK    8  A    between atoms: C_15  and  C_16
REMARK    9  A    between atoms: C_16  and  C_17
REMARK   10  A    between atoms: C_17  and  C_18
REMARK   11  A    between atoms: C_18  and  N_19
REMARK   12  A    between atoms: N_19  and  C_20
REMARK   13  A    between atoms: C_20  and  C_21
REMARK   14  A    between atoms: C_21  and  C_22
REMARK   15  A    between atoms: C_22  and  N_23
REMARK   16  A    between atoms: C_24  and  C_26
REMARK                            x       y       z     vdW  Elec       q    Type
REMARK                         _______ _______ _______ _____ _____    ______ ____
ROOT
ATOM      1  C   UNL     1       1.262   8.906  19.975  0.00  0.00    +0.000 C 
ENDROOT
BRANCH   1   2
ATOM      2  N   UNL     1       1.227   8.821  21.439  0.00  0.00    +0.000 NA
ATOM      3  H   UNL     1       1.702   7.969  21.745  0.00  0.00    +0.000 HD
BRANCH   2   4
ATOM      4  C   UNL     1      -0.151   8.803  21.908  0.00  0.00    +0.000 C 
BRANCH   4   5
ATOM      5  C   UNL     1      -0.251   9.630  23.184  0.00  0.00    +0.000 C 
BRANCH   5   6
ATOM      6  C   UNL     1      -1.083  10.880  22.932  0.00  0.00    +0.000 C 
BRANCH   6   9
ATOM      7  O   UNL     1      -1.726  13.445  21.916  0.00  0.00    +0.000 OA
ATOM      8  C   UNL     1      -1.339  12.569  21.140  0.00  0.00    +0.000 C 
ATOM      9  N   UNL     1      -0.995  11.298  21.551  0.00  0.00    +0.000 N 
ATOM     10  H   UNL     1      -0.711  10.611  20.865  0.00  0.00    +0.000 HD
BRANCH   8  11
ATOM     11  C   UNL     1      -1.204  12.816  19.643  0.00  0.00    +0.000 C 
BRANCH  11  12
ATOM     12  C   UNL     1      -1.873  11.759  18.802  0.00  0.00    +0.000 A 
ATOM     13  C   UNL     1      -1.117  10.773  18.146  0.00  0.00    +0.000 A 
ATOM     14  C   UNL     1      -1.739   9.841  17.312  0.00  0.00    +0.000 A 
ATOM     15  C   UNL     1      -3.124   9.853  17.162  0.00  0.00    +0.000 A 
ATOM     16  C   UNL     1      -3.889  10.795  17.848  0.00  0.00    +0.000 A 
ATOM     17  C   UNL     1      -3.269  11.744  18.661  0.00  0.00    +0.000 A 
ENDBRANCH  11  12
ENDBRANCH   8  11
ENDBRANCH   6   9
ENDBRANCH   5   6
ENDBRANCH   4   5
ENDBRANCH   2   4
ENDBRANCH   1   2
BRANCH   1  18
ATOM     18  C   UNL     1       2.093   7.767  19.394  0.00  0.00    +0.000 C 
BRANCH  18  19
ATOM     19  C   UNL     1       2.516   8.087  17.962  0.00  0.00    +0.000 C 
BRANCH  19  20
ATOM     20  C   UNL     1       3.734   7.255  17.567  0.00  0.00    +0.000 C 
BRANCH  20  21
ATOM     21  N   UNL     1       3.585   5.910  18.109  0.00  0.00    +0.000 NA
ATOM     22  H   UNL     1       2.617   5.794  18.406  0.00  0.00    +0.000 HD
BRANCH  21  23
ATOM     23  C   UNL     1       3.926   4.906  17.102  0.00  0.00    +0.000 C 
BRANCH  23  24
ATOM     24  C   UNL     1       4.754   3.785  17.725  0.00  0.00    +0.000 C 
BRANCH  24  25
ATOM     25  C   UNL     1       3.897   2.557  18.004  0.00  0.00    +0.000 C 
BRANCH  25  26
ATOM     26  N   UNL     1       2.678   2.889  18.699  0.00  0.00    +0.000 N 
ATOM     27  C   UNL     1       2.587   2.856  20.084  0.00  0.00    +0.000 C 
ATOM     28  O   UNL     1       3.535   2.555  20.808  0.00  0.00    +0.000 OA
ATOM     29  H   UNL     1       1.883   3.205  18.150  0.00  0.00    +0.000 HD
BRANCH  27  30
ATOM     30  C   UNL     1       1.200   3.210  20.636  0.00  0.00    +0.000 C 
ATOM     31  F   UNL     1       0.928   2.603  21.830  0.00  0.00    +0.000 F 
ATOM     32  F   UNL     1       1.045   4.547  20.850  0.00  0.00    +0.000 F 
ATOM     33  F   UNL     1       0.200   2.835  19.789  0.00  0.00    +0.000 F 
ENDBRANCH  27  30
ENDBRANCH  25  26
ENDBRANCH  24  25
ENDBRANCH  23  24
ENDBRANCH  21  23
ENDBRANCH  20  21
ENDBRANCH  19  20
ENDBRANCH  18  19
ENDBRANCH   1  18
TORSDOF 16
ENDMDL
MODEL 4
REMARK VINA RESULT:      -6.1      1.630      3.395
REMARK  Name = 
REMARK  16 active torsions:
REMARK  status: ('A' for Active; 'I' for Inactive)
REMARK    1  A    between atoms: C_2  and  C_3
REMARK    2  A    between atoms: C_3  and  C_4
REMARK    3  A    between atoms: N_10  and  C_11
REMARK    4  A    between atoms: C_11  and  C_12
REMARK    5  A    between atoms: C_12  and  C_13
REMARK    6  A    between atoms: C_13  and  N_14
REMARK    7  A    between atoms: N_14  and  C_15
REMARK    8  A    between atoms: C_15  and  C_16
REMARK    9  A    between atoms: C_16  and  C_17
REMARK   10  A    between atoms: C_17  and  C_18
REMARK   11  A    between atoms: C_18  and  N_19
REMARK   12  A    between atoms: N_19  and  C_20
REMARK   13  A    between atoms: C_20  and  C_21
REMARK   14  A    between atoms: C_21  and  C_22
REMARK   15  A    between atoms: C_22  and  N_23
REMARK   16  A    between atoms: C_24  and  C_26
REMARK                            x       y       z     vdW  Elec       q    Type
REMARK                         _______ _______ _______ _____ _____    ______ ____
ROOT
ATOM      1  C   UNL     1       4.136   7.129  17.910  0.00  0.00    +0.000 C 
ENDROOT
BRANCH   1   2
ATOM      2  N   UNL     1       4.886   6.768  16.704  0.00  0.00    +0.000 NA
ATOM      3  H   UNL     1       4.611   5.834  16.393  0.00  0.00    +0.000 HD
BRANCH   2   4
ATOM      4  C   UNL     1       6.316   6.785  16.979  0.00  0.00    +0.000 C 
BRANCH   4   5
ATOM      5  C   UNL     1       6.589   5.967  18.236  0.00  0.00    +0.000 C 
BRANCH   5   6
ATOM      6  C   UNL     1       6.708   4.492  17.882  0.00  0.00    +0.000 C 
BRANCH   6   9
ATOM      7  O   UNL     1       4.775   3.954  15.882  0.00  0.00    +0.000 OA
ATOM      8  C   UNL     1       4.560   3.593  17.040  0.00  0.00    +0.000 C 
ATOM      9  N   UNL     1       5.450   3.804  18.073  0.00  0.00    +0.000 N 
ATOM     10  H   UNL     1       5.207   3.512  19.010  0.00  0.00    +0.000 HD
BRANCH   8  11
ATOM     11  C   UNL     1       3.278   2.873  17.439  0.00  0.00    +0.000 C 
BRANCH  11  12
ATOM     12  C   UNL     1       2.779   3.259  18.808  0.00  0.00    +0.000 A 
ATOM     13  C   UNL     1       1.977   4.398  18.989  0.00  0.00    +0.000 A 
ATOM     14  C   UNL     1       1.578   4.787  20.270  0.00  0.00    +0.000 A 
ATOM     15  C   UNL     1       1.936   4.019  21.377  0.00  0.00    +0.000 A 
ATOM     16  C   UNL     1       2.690   2.859  21.203  0.00  0.00    +0.000 A 
ATOM     17  C   UNL     1       3.112   2.482  19.928  0.00  0.00    +0.000 A 
ENDBRANCH  11  12
ENDBRANCH   8  11
ENDBRANCH   6   9
ENDBRANCH   5   6
ENDBRANCH   4   5
ENDBRANCH   2   4
ENDBRANCH   1   2
BRANCH   1  18
ATOM     18  C   UNL     1       3.257   8.347  17.647  0.00  0.00    +0.000 C 
BRANCH  18  19
ATOM     19  C   UNL     1       1.881   8.165  18.284  0.00  0.00    +0.000 C 
BRANCH  19  20
ATOM     20  C   UNL     1       1.009   9.393  18.030  0.00  0.00    +0.000 C 
BRANCH  20  21
ATOM     21  N   UNL     1       1.044  10.251  19.208  0.00  0.00    +0.000 NA
ATOM     22  H   UNL     1       1.787   9.919  19.820  0.00  0.00    +0.000 HD
BRANCH  21  23
ATOM     23  C   UNL     1       1.290  11.642  18.828  0.00  0.00    +0.000 C 
BRANCH  23  24
ATOM     24  C   UNL     1       0.173  12.543  19.348  0.00  0.00    +0.000 C 
BRANCH  24  25
ATOM     25  C   UNL     1      -0.771  12.953  18.225  0.00  0.00    +0.000 C 
BRANCH  25  26
ATOM     26  N   UNL     1      -1.373  11.815  17.576  0.00  0.00    +0.000 N 
ATOM     27  C   UNL     1      -2.657  11.384  17.887  0.00  0.00    +0.000 C 
ATOM     28  O   UNL     1      -3.366  11.945  18.720  0.00  0.00    +0.000 OA
ATOM     29  H   UNL     1      -0.854  11.353  16.835  0.00  0.00    +0.000 HD
BRANCH  27  30
ATOM     30  C   UNL     1      -3.110  10.137  17.115  0.00  0.00    +0.000 C 
ATOM     31  F   UNL     1      -3.680   9.189  17.917  0.00  0.00    +0.000 F 
ATOM     32  F   UNL     1      -4.034  10.422  16.154  0.00  0.00    +0.000 F 
ATOM     33  F   UNL     1      -2.073   9.520  16.483  0.00  0.00    +0.000 F 
ENDBRANCH  27  30
ENDBRANCH  25  26
ENDBRANCH  24  25
ENDBRANCH  23  24
ENDBRANCH  21  23
ENDBRANCH  20  21
ENDBRANCH  19  20
ENDBRANCH  18  19
ENDBRANCH   1  18
TORSDOF 16
ENDMDL
MODEL 5
REMARK VINA RESULT:      -6.0      2.239      4.285
REMARK  Name = 
REMARK  16 active torsions:
REMARK  status: ('A' for Active; 'I' for Inactive)
REMARK    1  A    between atoms: C_2  and  C_3
REMARK    2  A    between atoms: C_3  and  C_4
REMARK    3  A    between atoms: N_10  and  C_11
REMARK    4  A    between atoms: C_11  and  C_12
REMARK    5  A    between atoms: C_12  and  C_13
REMARK    6  A    between atoms: C_13  and  N_14
REMARK    7  A    between atoms: N_14  and  C_15
REMARK    8  A    between atoms: C_15  and  C_16
REMARK    9  A    between atoms: C_16  and  C_17
REMARK   10  A    between atoms: C_17  and  C_18
REMARK   11  A    between atoms: C_18  and  N_19
REMARK   12  A    between atoms: N_19  and  C_20
REMARK   13  A    between atoms: C_20  and  C_21
REMARK   14  A    between atoms: C_21  and  C_22
REMARK   15  A    between atoms: C_22  and  N_23
REMARK   16  A    between atoms: C_24  and  C_26
REMARK                            x       y       z     vdW  Elec       q    Type
REMARK                         _______ _______ _______ _____ _____    ______ ____
ROOT
ATOM      1  C   UNL     1       5.441   6.958  17.538  0.00  0.00    +0.000 C 
ENDROOT
BRANCH   1   2
ATOM      2  N   UNL     1       6.731   6.654  16.910  0.00  0.00    +0.000 NA
ATOM      3  H   UNL     1       6.655   6.767  15.897  0.00  0.00    +0.000 HD
BRANCH   2   4
ATOM      4  C   UNL     1       7.128   5.287  17.216  0.00  0.00    +0.000 C 
BRANCH   4   5
ATOM      5  C   UNL     1       7.122   4.469  15.930  0.00  0.00    +0.000 C 
BRANCH   5   6
ATOM      6  C   UNL     1       5.707   4.014  15.607  0.00  0.00    +0.000 C 
BRANCH   6   9
ATOM      7  O   UNL     1       3.047   3.717  16.535  0.00  0.00    +0.000 OA
ATOM      8  C   UNL     1       3.923   2.968  16.968  0.00  0.00    +0.000 C 
ATOM      9  N   UNL     1       5.240   3.035  16.563  0.00  0.00    +0.000 N 
ATOM     10  H   UNL     1       5.922   2.412  16.975  0.00  0.00    +0.000 HD
BRANCH   8  11
ATOM     11  C   UNL     1       3.626   1.887  18.000  0.00  0.00    +0.000 C 
BRANCH  11  12
ATOM     12  C   UNL     1       2.830   2.390  19.178  0.00  0.00    +0.000 A 
ATOM     13  C   UNL     1       3.421   2.519  20.446  0.00  0.00    +0.000 A 
ATOM     14  C   UNL     1       2.657   2.919  21.545  0.00  0.00    +0.000 A 
ATOM     15  C   UNL     1       1.310   3.238  21.382  0.00  0.00    +0.000 A 
ATOM     16  C   UNL     1       0.727   3.161  20.118  0.00  0.00    +0.000 A 
ATOM     17  C   UNL     1       1.480   2.738  19.022  0.00  0.00    +0.000 A 
ENDBRANCH  11  12
ENDBRANCH   8  11
ENDBRANCH   6   9
ENDBRANCH   5   6
ENDBRANCH   4   5
ENDBRANCH   2   4
ENDBRANCH   1   2
BRANCH   1  18
ATOM     18  C   UNL     1       5.207   6.051  18.742  0.00  0.00    +0.000 C 
BRANCH  18  19
ATOM     19  C   UNL     1       3.717   5.961  19.066  0.00  0.00    +0.000 C 
BRANCH  19  20
ATOM     20  C   UNL     1       2.945   7.056  18.333  0.00  0.00    +0.000 C 
BRANCH  20  21
ATOM     21  N   UNL     1       2.340   7.948  19.315  0.00  0.00    +0.000 NA
ATOM     22  H   UNL     1       1.689   8.561  18.826  0.00  0.00    +0.000 HD
BRANCH  21  23
ATOM     23  C   UNL     1       1.634   7.183  20.342  0.00  0.00    +0.000 C 
BRANCH  23  24
ATOM     24  C   UNL     1       0.970   8.123  21.345  0.00  0.00    +0.000 C 
BRANCH  24  25
ATOM     25  C   UNL     1       0.905   9.547  20.805  0.00  0.00    +0.000 C 
BRANCH  25  26
ATOM     26  N   UNL     1      -0.227   9.748  19.936  0.00  0.00    +0.000 N 
ATOM     27  C   UNL     1      -0.087  10.250  18.648  0.00  0.00    +0.000 C 
ATOM     28  O   UNL     1       1.003  10.544  18.162  0.00  0.00    +0.000 OA
ATOM     29  H   UNL     1      -1.145   9.462  20.267  0.00  0.00    +0.000 HD
BRANCH  27  30
ATOM     30  C   UNL     1      -1.410  10.424  17.889  0.00  0.00    +0.000 C 
ATOM     31  F   UNL     1      -2.503  10.073  18.631  0.00  0.00    +0.000 F 
ATOM     32  F   UNL     1      -1.622  11.711  17.492  0.00  0.00    +0.000 F 
ATOM     33  F   UNL     1      -1.459   9.659  16.763  0.00  0.00    +0.000 F 
ENDBRANCH  27  30
ENDBRANCH  25  26
ENDBRANCH  24  25
ENDBRANCH  23  24
ENDBRANCH  21  23
ENDBRANCH  20  21
ENDBRANCH  19  20
ENDBRANCH  18  19
ENDBRANCH   1  18
TORSDOF 16
ENDMDL
MODEL 6
REMARK VINA RESULT:      -6.0      2.765      4.476
REMARK  Name = 
REMARK  16 active torsions:
REMARK  status: ('A' for Active; 'I' for Inactive)
REMARK    1  A    between atoms: C_2  and  C_3
REMARK    2  A    between atoms: C_3  and  C_4
REMARK    3  A    between atoms: N_10  and  C_11
REMARK    4  A    between atoms: C_11  and  C_12
REMARK    5  A    between atoms: C_12  and  C_13
REMARK    6  A    between atoms: C_13  and  N_14
REMARK    7  A    between atoms: N_14  and  C_15
REMARK    8  A    between atoms: C_15  and  C_16
REMARK    9  A    between atoms: C_16  and  C_17
REMARK   10  A    between atoms: C_17  and  C_18
REMARK   11  A    between atoms: C_18  and  N_19
REMARK   12  A    between atoms: N_19  and  C_20
REMARK   13  A    between atoms: C_20  and  C_21
REMARK   14  A    between atoms: C_21  and  C_22
REMARK   15  A    between atoms: C_22  and  N_23
REMARK   16  A    between atoms: C_24  and  C_26
REMARK                            x       y       z     vdW  Elec       q    Type
REMARK                         _______ _______ _______ _____ _____    ______ ____
ROOT
ATOM      1  C   UNL     1       1.750   2.581  19.696  0.00  0.00    +0.000 C 
ENDROOT
BRANCH   1   2
ATOM      2  N   UNL     1       1.261   2.787  18.330  0.00  0.00    +0.000 NA
ATOM      3  H   UNL     1       0.896   1.907  17.959  0.00  0.00    +0.000 HD
BRANCH   2   4
ATOM      4  C   UNL     1       2.341   3.261  17.476  0.00  0.00    +0.000 C 
BRANCH   4   5
ATOM      5  C   UNL     1       3.620   2.512  17.833  0.00  0.00    +0.000 C 
BRANCH   5   6
ATOM      6  C   UNL     1       4.572   3.432  18.584  0.00  0.00    +0.000 C 
BRANCH   6   9
ATOM      7  O   UNL     1       4.849   5.537  16.708  0.00  0.00    +0.000 OA
ATOM      8  C   UNL     1       5.794   4.768  16.895  0.00  0.00    +0.000 C 
ATOM      9  N   UNL     1       5.748   3.724  17.795  0.00  0.00    +0.000 N 
ATOM     10  H   UNL     1       6.545   3.107  17.885  0.00  0.00    +0.000 HD
BRANCH   8  11
ATOM     11  C   UNL     1       7.109   4.903  16.139  0.00  0.00    +0.000 C 
BRANCH  11  12
ATOM     12  C   UNL     1       6.977   4.643  14.660  0.00  0.00    +0.000 A 
ATOM     13  C   UNL     1       6.050   3.707  14.172  0.00  0.00    +0.000 A 
ATOM     14  C   UNL     1       5.984   3.422  12.806  0.00  0.00    +0.000 A 
ATOM     15  C   UNL     1       6.808   4.100  11.910  0.00  0.00    +0.000 A 
ATOM     16  C   UNL     1       7.696   5.067  12.378  0.00  0.00    +0.000 A 
ATOM     17  C   UNL     1       7.783   5.336  13.744  0.00  0.00    +0.000 A 
ENDBRANCH  11  12
ENDBRANCH   8  11
ENDBRANCH   6   9
ENDBRANCH   5   6
ENDBRANCH   4   5
ENDBRANCH   2   4
ENDBRANCH   1   2
BRANCH   1  18
ATOM     18  C   UNL     1       1.136   3.606  20.644  0.00  0.00    +0.000 C 
BRANCH  18  19
ATOM     19  C   UNL     1       2.154   4.686  21.002  0.00  0.00    +0.000 C 
BRANCH  19  20
ATOM     20  C   UNL     1       1.812   5.996  20.296  0.00  0.00    +0.000 C 
BRANCH  20  21
ATOM     21  N   UNL     1       2.854   6.294  19.320  0.00  0.00    +0.000 NA
ATOM     22  H   UNL     1       3.311   5.419  19.067  0.00  0.00    +0.000 HD
BRANCH  21  23
ATOM     23  C   UNL     1       2.283   6.925  18.130  0.00  0.00    +0.000 C 
BRANCH  23  24
ATOM     24  C   UNL     1       2.843   8.334  17.952  0.00  0.00    +0.000 C 
BRANCH  24  25
ATOM     25  C   UNL     1       1.722   9.361  17.843  0.00  0.00    +0.000 C 
BRANCH  25  26
ATOM     26  N   UNL     1       1.020   9.535  19.090  0.00  0.00    +0.000 N 
ATOM     27  C   UNL     1       0.395  10.729  19.423  0.00  0.00    +0.000 C 
ATOM     28  O   UNL     1       0.388  11.709  18.679  0.00  0.00    +0.000 OA
ATOM     29  H   UNL     1       0.942   8.736  19.714  0.00  0.00    +0.000 HD
BRANCH  27  30
ATOM     30  C   UNL     1      -0.272  10.732  20.805  0.00  0.00    +0.000 C 
ATOM     31  F   UNL     1      -0.579   9.478  21.254  0.00  0.00    +0.000 F 
ATOM     32  F   UNL     1       0.515  11.293  21.766  0.00  0.00    +0.000 F 
ATOM     33  F   UNL     1      -1.443  11.429  20.809  0.00  0.00    +0.000 F 
ENDBRANCH  27  30
ENDBRANCH  25  26
ENDBRANCH  24  25
ENDBRANCH  23  24
ENDBRANCH  21  23
ENDBRANCH  20  21
ENDBRANCH  19  20
ENDBRANCH  18  19
ENDBRANCH   1  18
TORSDOF 16
ENDMDL
MODEL 7
REMARK VINA RESULT:      -6.0      6.821      8.491
REMARK  Name = 
REMARK  16 active torsions:
REMARK  status: ('A' for Active; 'I' for Inactive)
REMARK    1  A    between atoms: C_2  and  C_3
REMARK    2  A    between atoms: C_3  and  C_4
REMARK    3  A    between atoms: N_10  and  C_11
REMARK    4  A    between atoms: C_11  and  C_12
REMARK    5  A    between atoms: C_12  and  C_13
REMARK    6  A    between atoms: C_13  and  N_14
REMARK    7  A    between atoms: N_14  and  C_15
REMARK    8  A    between atoms: C_15  and  C_16
REMARK    9  A    between atoms: C_16  and  C_17
REMARK   10  A    between atoms: C_17  and  C_18
REMARK   11  A    between atoms: C_18  and  N_19
REMARK   12  A    between atoms: N_19  and  C_20
REMARK   13  A    between atoms: C_20  and  C_21
REMARK   14  A    between atoms: C_21  and  C_22
REMARK   15  A    between atoms: C_22  and  N_23
REMARK   16  A    between atoms: C_24  and  C_26
REMARK                            x       y       z     vdW  Elec       q    Type
REMARK                         _______ _______ _______ _____ _____    ______ ____
ROOT
ATOM      1  C   UNL     1       7.820   7.817  17.781  0.00  0.00    +0.000 C 
ENDROOT
BRANCH   1   2
ATOM      2  N   UNL     1       8.266   7.097  18.978  0.00  0.00    +0.000 NA
ATOM      3  H   UNL     1       9.286   7.028  18.979  0.00  0.00    +0.000 HD
BRANCH   2   4
ATOM      4  C   UNL     1       7.690   5.760  19.002  0.00  0.00    +0.000 C 
BRANCH   4   5
ATOM      5  C   UNL     1       7.658   5.208  17.582  0.00  0.00    +0.000 C 
BRANCH   5   6
ATOM      6  C   UNL     1       6.393   4.390  17.368  0.00  0.00    +0.000 C 
BRANCH   6   9
ATOM      7  O   UNL     1       4.809   6.303  16.005  0.00  0.00    +0.000 OA
ATOM      8  C   UNL     1       4.523   6.000  17.164  0.00  0.00    +0.000 C 
ATOM      9  N   UNL     1       5.233   5.071  17.897  0.00  0.00    +0.000 N 
ATOM     10  H   UNL     1       4.969   4.884  18.855  0.00  0.00    +0.000 HD
BRANCH   8  11
ATOM     11  C   UNL     1       3.346   6.630  17.899  0.00  0.00    +0.000 C 
BRANCH  11  12
ATOM     12  C   UNL     1       2.481   5.622  18.613  0.00  0.00    +0.000 A 
ATOM     13  C   UNL     1       2.233   5.733  19.991  0.00  0.00    +0.000 A 
ATOM     14  C   UNL     1       1.489   4.757  20.658  0.00  0.00    +0.000 A 
ATOM     15  C   UNL     1       0.947   3.687  19.949  0.00  0.00    +0.000 A 
ATOM     16  C   UNL     1       1.145   3.594  18.572  0.00  0.00    +0.000 A 
ATOM     17  C   UNL     1       1.909   4.553  17.907  0.00  0.00    +0.000 A 
ENDBRANCH  11  12
ENDBRANCH   8  11
ENDBRANCH   6   9
ENDBRANCH   5   6
ENDBRANCH   4   5
ENDBRANCH   2   4
ENDBRANCH   1   2
BRANCH   1  18
ATOM     18  C   UNL     1       8.263   9.275  17.839  0.00  0.00    +0.000 C 
BRANCH  18  19
ATOM     19  C   UNL     1       9.135   9.523  19.068  0.00  0.00    +0.000 C 
BRANCH  19  20
ATOM     20  C   UNL     1       9.479  11.006  19.188  0.00  0.00    +0.000 C 
BRANCH  20  21
ATOM     21  N   UNL     1       9.476  11.382  20.597  0.00  0.00    +0.000 NA
ATOM     22  H   UNL     1       9.833  10.594  21.135  0.00  0.00    +0.000 HD
BRANCH  21  23
ATOM     23  C   UNL     1      10.310  12.562  20.820  0.00  0.00    +0.000 C 
BRANCH  23  24
ATOM     24  C   UNL     1       9.624  13.526  21.784  0.00  0.00    +0.000 C 
BRANCH  24  25
ATOM     25  C   UNL     1       8.119  13.291  21.819  0.00  0.00    +0.000 C 
BRANCH  25  26
ATOM     26  N   UNL     1       7.593  13.326  23.161  0.00  0.00    +0.000 N 
ATOM     27  C   UNL     1       7.571  12.199  23.973  0.00  0.00    +0.000 C 
ATOM     28  O   UNL     1       8.005  11.107  23.610  0.00  0.00    +0.000 OA
ATOM     29  H   UNL     1       7.279  14.219  23.532  0.00  0.00    +0.000 HD
BRANCH  27  30
ATOM     30  C   UNL     1       6.943  12.426  25.355  0.00  0.00    +0.000 C 
ATOM     31  F   UNL     1       5.658  11.970  25.440  0.00  0.00    +0.000 F 
ATOM     32  F   UNL     1       7.631  11.803  26.352  0.00  0.00    +0.000 F 
ATOM     33  F   UNL     1       6.895  13.747  25.685  0.00  0.00    +0.000 F 
ENDBRANCH  27  30
ENDBRANCH  25  26
ENDBRANCH  24  25
ENDBRANCH  23  24
ENDBRANCH  21  23
ENDBRANCH  20  21
ENDBRANCH  19  20
ENDBRANCH  18  19
ENDBRANCH   1  18
TORSDOF 16
ENDMDL
MODEL 8
REMARK VINA RESULT:      -5.9      3.500      9.071
REMARK  Name = 
REMARK  16 active torsions:
REMARK  status: ('A' for Active; 'I' for Inactive)
REMARK    1  A    between atoms: C_2  and  C_3
REMARK    2  A    between atoms: C_3  and  C_4
REMARK    3  A    between atoms: N_10  and  C_11
REMARK    4  A    between atoms: C_11  and  C_12
REMARK    5  A    between atoms: C_12  and  C_13
REMARK    6  A    between atoms: C_13  and  N_14
REMARK    7  A    between atoms: N_14  and  C_15
REMARK    8  A    between atoms: C_15  and  C_16
REMARK    9  A    between atoms: C_16  and  C_17
REMARK   10  A    between atoms: C_17  and  C_18
REMARK   11  A    between atoms: C_18  and  N_19
REMARK   12  A    between atoms: N_19  and  C_20
REMARK   13  A    between atoms: C_20  and  C_21
REMARK   14  A    between atoms: C_21  and  C_22
REMARK   15  A    between atoms: C_22  and  N_23
REMARK   16  A    between atoms: C_24  and  C_26
REMARK                            x       y       z     vdW  Elec       q    Type
REMARK                         _______ _______ _______ _____ _____    ______ ____
ROOT
ATOM      1  C   UNL     1       0.969  10.223  18.806  0.00  0.00    +0.000 C 
ENDROOT
BRANCH   1   2
ATOM      2  N   UNL     1       1.255  11.398  19.635  0.00  0.00    +0.000 NA
ATOM      3  H   UNL     1       0.379  11.819  19.950  0.00  0.00    +0.000 HD
BRANCH   2   4
ATOM      4  C   UNL     1       2.016  12.377  18.871  0.00  0.00    +0.000 C 
BRANCH   4   5
ATOM      5  C   UNL     1       1.080  13.496  18.429  0.00  0.00    +0.000 C 
BRANCH   5   6
ATOM      6  C   UNL     1       0.037  13.760  19.505  0.00  0.00    +0.000 C 
BRANCH   6   9
ATOM      7  O   UNL     1      -1.583  11.883  20.875  0.00  0.00    +0.000 OA
ATOM      8  C   UNL     1      -1.988  12.370  19.819  0.00  0.00    +0.000 C 
ATOM      9  N   UNL     1      -1.270  13.298  19.093  0.00  0.00    +0.000 N 
ATOM     10  H   UNL     1      -1.640  13.641  18.217  0.00  0.00    +0.000 HD
BRANCH   8  11
ATOM     11  C   UNL     1      -3.333  11.988  19.214  0.00  0.00    +0.000 C 
BRANCH  11  12
ATOM     12  C   UNL     1      -3.209  11.224  17.920  0.00  0.00    +0.000 A 
ATOM     13  C   UNL     1      -2.256  10.202  17.774  0.00  0.00    +0.000 A 
ATOM     14  C   UNL     1      -2.101   9.548  16.549  0.00  0.00    +0.000 A 
ATOM     15  C   UNL     1      -2.925   9.875  15.474  0.00  0.00    +0.000 A 
ATOM     16  C   UNL     1      -3.907  10.853  15.622  0.00  0.00    +0.000 A 
ATOM     17  C   UNL     1      -4.048  11.526  16.836  0.00  0.00    +0.000 A 
ENDBRANCH  11  12
ENDBRANCH   8  11
ENDBRANCH   6   9
ENDBRANCH   5   6
ENDBRANCH   4   5
ENDBRANCH   2   4
ENDBRANCH   1   2
BRANCH   1  18
ATOM     18  C   UNL     1       1.410   8.948  19.518  0.00  0.00    +0.000 C 
BRANCH  18  19
ATOM     19  C   UNL     1       2.307   8.108  18.611  0.00  0.00    +0.000 C 
BRANCH  19  20
ATOM     20  C   UNL     1       2.517   6.718  19.207  0.00  0.00    +0.000 C 
BRANCH  20  21
ATOM     21  N   UNL     1       3.773   6.173  18.708  0.00  0.00    +0.000 NA
ATOM     22  H   UNL     1       4.124   5.507  19.395  0.00  0.00    +0.000 HD
BRANCH  21  23
ATOM     23  C   UNL     1       3.575   5.509  17.420  0.00  0.00    +0.000 C 
BRANCH  23  24
ATOM     24  C   UNL     1       4.329   4.183  17.381  0.00  0.00    +0.000 C 
BRANCH  24  25
ATOM     25  C   UNL     1       3.431   3.027  17.805  0.00  0.00    +0.000 C 
BRANCH  25  26
ATOM     26  N   UNL     1       3.276   2.954  19.236  0.00  0.00    +0.000 N 
ATOM     27  C   UNL     1       2.039   3.093  19.851  0.00  0.00    +0.000 C 
ATOM     28  O   UNL     1       0.998   3.276  19.222  0.00  0.00    +0.000 OA
ATOM     29  H   UNL     1       4.096   2.742  19.798  0.00  0.00    +0.000 HD
BRANCH  27  30
ATOM     30  C   UNL     1       2.081   3.019  21.383  0.00  0.00    +0.000 C 
ATOM     31  F   UNL     1       0.932   2.515  21.927  0.00  0.00    +0.000 F 
ATOM     32  F   UNL     1       3.092   2.229  21.843  0.00  0.00    +0.000 F 
ATOM     33  F   UNL     1       2.259   4.244  21.952  0.00  0.00    +0.000 F 
ENDBRANCH  27  30
ENDBRANCH  25  26
ENDBRANCH  24  25
ENDBRANCH  23  24
ENDBRANCH  21  23
ENDBRANCH  20  21
ENDBRANCH  19  20
ENDBRANCH  18  19
ENDBRANCH   1  18
TORSDOF 16
ENDMDL
MODEL 9
REMARK VINA RESULT:      -5.9      2.901      3.805
REMARK  Name = 
REMARK  16 active torsions:
REMARK  status: ('A' for Active; 'I' for Inactive)
REMARK    1  A    between atoms: C_2  and  C_3
REMARK    2  A    between atoms: C_3  and  C_4
REMARK    3  A    between atoms: N_10  and  C_11
REMARK    4  A    between atoms: C_11  and  C_12
REMARK    5  A    between atoms: C_12  and  C_13
REMARK    6  A    between atoms: C_13  and  N_14
REMARK    7  A    between atoms: N_14  and  C_15
REMARK    8  A    between atoms: C_15  and  C_16
REMARK    9  A    between atoms: C_16  and  C_17
REMARK   10  A    between atoms: C_17  and  C_18
REMARK   11  A    between atoms: C_18  and  N_19
REMARK   12  A    between atoms: N_19  and  C_20
REMARK   13  A    between atoms: C_20  and  C_21
REMARK   14  A    between atoms: C_21  and  C_22
REMARK   15  A    between atoms: C_22  and  N_23
REMARK   16  A    between atoms: C_24  and  C_26
REMARK                            x       y       z     vdW  Elec       q    Type
REMARK                         _______ _______ _______ _____ _____    ______ ____
ROOT
ATOM      1  C   UNL     1       1.685   4.370  20.559  0.00  0.00    +0.000 C 
ENDROOT
BRANCH   1   2
ATOM      2  N   UNL     1       2.899   3.738  20.033  0.00  0.00    +0.000 NA
ATOM      3  H   UNL     1       3.168   4.187  19.155  0.00  0.00    +0.000 HD
BRANCH   2   4
ATOM      4  C   UNL     1       2.665   2.320  19.800  0.00  0.00    +0.000 C 
BRANCH   4   5
ATOM      5  C   UNL     1       3.601   1.838  18.697  0.00  0.00    +0.000 C 
BRANCH   5   6
ATOM      6  C   UNL     1       3.139   2.373  17.350  0.00  0.00    +0.000 C 
BRANCH   6   9
ATOM      7  O   UNL     1       5.418   3.347  15.978  0.00  0.00    +0.000 OA
ATOM      8  C   UNL     1       4.644   4.148  16.506  0.00  0.00    +0.000 C 
ATOM      9  N   UNL     1       3.507   3.762  17.183  0.00  0.00    +0.000 N 
ATOM     10  H   UNL     1       2.924   4.462  17.622  0.00  0.00    +0.000 HD
BRANCH   8  11
ATOM     11  C   UNL     1       4.879   5.652  16.456  0.00  0.00    +0.000 C 
BRANCH  11  12
ATOM     12  C   UNL     1       6.028   6.106  17.320  0.00  0.00    +0.000 A 
ATOM     13  C   UNL     1       6.688   7.319  17.064  0.00  0.00    +0.000 A 
ATOM     14  C   UNL     1       7.796   7.697  17.826  0.00  0.00    +0.000 A 
ATOM     15  C   UNL     1       8.227   6.892  18.879  0.00  0.00    +0.000 A 
ATOM     16  C   UNL     1       7.548   5.710  19.174  0.00  0.00    +0.000 A 
ATOM     17  C   UNL     1       6.457   5.317  18.398  0.00  0.00    +0.000 A 
ENDBRANCH  11  12
ENDBRANCH   8  11
ENDBRANCH   6   9
ENDBRANCH   5   6
ENDBRANCH   4   5
ENDBRANCH   2   4
ENDBRANCH   1   2
BRANCH   1  18
ATOM     18  C   UNL     1       1.838   5.887  20.576  0.00  0.00    +0.000 C 
BRANCH  18  19
ATOM     19  C   UNL     1       2.846   6.338  19.521  0.00  0.00    +0.000 C 
BRANCH  19  20
ATOM     20  C   UNL     1       2.124   6.937  18.316  0.00  0.00    +0.000 C 
BRANCH  20  21
ATOM     21  N   UNL     1       2.711   8.236  18.010  0.00  0.00    +0.000 NA
ATOM     22  H   UNL     1       3.077   8.202  17.059  0.00  0.00    +0.000 HD
BRANCH  21  23
ATOM     23  C   UNL     1       1.711   9.297  18.125  0.00  0.00    +0.000 C 
BRANCH  23  24
ATOM     24  C   UNL     1       1.180   9.376  19.554  0.00  0.00    +0.000 C 
BRANCH  24  25
ATOM     25  C   UNL     1      -0.109  10.187  19.618  0.00  0.00    +0.000 C 
BRANCH  25  26
ATOM     26  N   UNL     1      -0.532  10.430  20.974  0.00  0.00    +0.000 N 
ATOM     27  C   UNL     1      -1.179  11.602  21.345  0.00  0.00    +0.000 C 
ATOM     28  O   UNL     1      -1.443  12.500  20.547  0.00  0.00    +0.000 OA
ATOM     29  H   UNL     1      -0.394   9.693  21.660  0.00  0.00    +0.000 HD
BRANCH  27  30
ATOM     30  C   UNL     1      -1.521  11.691  22.838  0.00  0.00    +0.000 C 
ATOM     31  F   UNL     1      -0.993  12.796  23.444  0.00  0.00    +0.000 F 
ATOM     32  F   UNL     1      -2.864  11.743  23.067  0.00  0.00    +0.000 F 
ATOM     33  F   UNL     1      -1.051  10.620  23.537  0.00  0.00    +0.000 F 
ENDBRANCH  27  30
ENDBRANCH  25  26
ENDBRANCH  24  25
ENDBRANCH  23  24
ENDBRANCH  21  23
ENDBRANCH  20  21
ENDBRANCH  19  20
ENDBRANCH  18  19
ENDBRANCH   1  18
TORSDOF 16
ENDMDL
