MODEL 1
REMARK VINA RESULT:      -7.9      0.000      0.000
REMARK  Name = 
REMARK  2 active torsions:
REMARK  status: ('A' for Active; 'I' for Inactive)
REMARK    1  A    between atoms: C_4  and  C_5
REMARK    2  A    between atoms: C_11  and  C_12
REMARK                            x       y       z     vdW  Elec       q    Type
REMARK                         _______ _______ _______ _____ _____    ______ ____
ROOT
ATOM      1  C   UNL     1       2.382   6.106  19.659  0.00  0.00    +0.000 C 
ATOM      2  N   UNL     1       3.476   5.683  19.088  0.00  0.00    +0.000 NA
ATOM      3  N   UNL     1       3.861   4.392  19.331  0.00  0.00    +0.000 N 
ATOM      4  C   UNL     1       3.452   3.540  20.325  0.00  0.00    +0.000 A 
ATOM      5  N   UNL     1       4.052   2.383  20.232  0.00  0.00    +0.000 NA
ATOM      6  N   UNL     1       4.886   2.452  19.139  0.00  0.00    +0.000 NA
ATOM      7  C   UNL     1       4.807   3.666  18.618  0.00  0.00    +0.000 A 
ATOM      8  S   UNL     1       2.305   4.049  21.501  0.00  0.00    +0.000 S 
ATOM      9  C   UNL     1       1.422   5.236  20.466  0.00  0.00    +0.000 C 
ENDROOT
BRANCH   1  13
ATOM     10  C   UNL     1       1.264  10.184  18.874  0.00  0.00    +0.000 A 
ATOM     11  C   UNL     1       1.014   9.634  20.130  0.00  0.00    +0.000 A 
ATOM     12  C   UNL     1       1.374   8.311  20.404  0.00  0.00    +0.000 A 
ATOM     13  C   UNL     1       1.995   7.535  19.418  0.00  0.00    +0.000 A 
ATOM     14  C   UNL     1       2.234   8.094  18.154  0.00  0.00    +0.000 A 
ATOM     15  C   UNL     1       1.870   9.414  17.884  0.00  0.00    +0.000 A 
ENDBRANCH   1  13
BRANCH   7  16
ATOM     16  C   UNL     1       5.534   4.148  17.446  0.00  0.00    +0.000 A 
ATOM     17  C   UNL     1       4.928   4.141  16.185  0.00  0.00    +0.000 A 
ATOM     18  C   UNL     1       5.626   4.607  15.071  0.00  0.00    +0.000 A 
ATOM     19  C   UNL     1       6.921   5.062  15.248  0.00  0.00    +0.000 A 
ATOM     20  N   UNL     1       7.550   5.078  16.442  0.00  0.00    +0.000 NA
ATOM     21  C   UNL     1       6.844   4.619  17.505  0.00  0.00    +0.000 A 
ENDBRANCH   7  16
TORSDOF 2
ENDMDL
MODEL 2
REMARK VINA RESULT:      -7.9      0.066      1.056
REMARK  Name = 
REMARK  2 active torsions:
REMARK  status: ('A' for Active; 'I' for Inactive)
REMARK    1  A    between atoms: C_4  and  C_5
REMARK    2  A    between atoms: C_11  and  C_12
REMARK                            x       y       z     vdW  Elec       q    Type
REMARK                         _______ _______ _______ _____ _____    ______ ____
ROOT
ATOM      1  C   UNL     1       2.361   6.141  19.587  0.00  0.00    +0.000 C 
ATOM      2  N   UNL     1       3.459   5.711  19.028  0.00  0.00    +0.000 NA
ATOM      3  N   UNL     1       3.844   4.426  19.293  0.00  0.00    +0.000 N 
ATOM      4  C   UNL     1       3.433   3.589  20.298  0.00  0.00    +0.000 A 
ATOM      5  N   UNL     1       4.035   2.431  20.227  0.00  0.00    +0.000 NA
ATOM      6  N   UNL     1       4.874   2.484  19.136  0.00  0.00    +0.000 NA
ATOM      7  C   UNL     1       4.795   3.690  18.596  0.00  0.00    +0.000 A 
ATOM      8  S   UNL     1       2.280   4.114  21.462  0.00  0.00    +0.000 S 
ATOM      9  C   UNL     1       1.400   5.283  20.404  0.00  0.00    +0.000 C 
ENDROOT
BRANCH   1  13
ATOM     10  C   UNL     1       1.258  10.245  18.923  0.00  0.00    +0.000 A 
ATOM     11  C   UNL     1       1.866   9.524  17.897  0.00  0.00    +0.000 A 
ATOM     12  C   UNL     1       2.228   8.187  18.094  0.00  0.00    +0.000 A 
ATOM     13  C   UNL     1       1.973   7.566  19.323  0.00  0.00    +0.000 A 
ATOM     14  C   UNL     1       1.369   8.303  20.353  0.00  0.00    +0.000 A 
ATOM     15  C   UNL     1       1.012   9.637  20.152  0.00  0.00    +0.000 A 
ENDBRANCH   1  13
BRANCH   7  16
ATOM     16  C   UNL     1       5.527   4.155  17.419  0.00  0.00    +0.000 A 
ATOM     17  C   UNL     1       4.909   4.171  16.163  0.00  0.00    +0.000 A 
ATOM     18  C   UNL     1       5.611   4.621  15.045  0.00  0.00    +0.000 A 
ATOM     19  C   UNL     1       6.921   5.036  15.213  0.00  0.00    +0.000 A 
ATOM     20  N   UNL     1       7.560   5.027  16.401  0.00  0.00    +0.000 NA
ATOM     21  C   UNL     1       6.851   4.585  17.469  0.00  0.00    +0.000 A 
ENDBRANCH   7  16
TORSDOF 2
ENDMDL
MODEL 3
REMARK VINA RESULT:      -7.5      1.354      1.890
REMARK  Name = 
REMARK  2 active torsions:
REMARK  status: ('A' for Active; 'I' for Inactive)
REMARK    1  A    between atoms: C_4  and  C_5
REMARK    2  A    between atoms: C_11  and  C_12
REMARK                            x       y       z     vdW  Elec       q    Type
REMARK                         _______ _______ _______ _____ _____    ______ ____
ROOT
ATOM      1  C   UNL     1       2.004   6.072  20.230  0.00  0.00    +0.000 C 
ATOM      2  N   UNL     1       3.264   5.972  19.905  0.00  0.00    +0.000 NA
ATOM      3  N   UNL     1       3.790   4.714  19.788  0.00  0.00    +0.000 N 
ATOM      4  C   UNL     1       3.295   3.522  20.252  0.00  0.00    +0.000 A 
ATOM      5  N   UNL     1       4.090   2.530  19.948  0.00  0.00    +0.000 NA
ATOM      6  N   UNL     1       5.150   3.065  19.252  0.00  0.00    +0.000 NA
ATOM      7  C   UNL     1       4.998   4.379  19.187  0.00  0.00    +0.000 A 
ATOM      8  S   UNL     1       1.817   3.467  21.128  0.00  0.00    +0.000 S 
ATOM      9  C   UNL     1       1.035   4.900  20.356  0.00  0.00    +0.000 C 
ENDROOT
BRANCH   1  13
ATOM     10  C   UNL     1       0.412  10.049  20.610  0.00  0.00    +0.000 A 
ATOM     11  C   UNL     1       0.221   9.132  21.643  0.00  0.00    +0.000 A 
ATOM     12  C   UNL     1       0.735   7.836  21.537  0.00  0.00    +0.000 A 
ATOM     13  C   UNL     1       1.451   7.457  20.396  0.00  0.00    +0.000 A 
ATOM     14  C   UNL     1       1.629   8.383  19.358  0.00  0.00    +0.000 A 
ATOM     15  C   UNL     1       1.112   9.675  19.466  0.00  0.00    +0.000 A 
ENDBRANCH   1  13
BRANCH   7  16
ATOM     16  C   UNL     1       5.905   5.319  18.532  0.00  0.00    +0.000 A 
ATOM     17  C   UNL     1       7.090   5.714  19.163  0.00  0.00    +0.000 A 
ATOM     18  C   UNL     1       7.954   6.607  18.530  0.00  0.00    +0.000 A 
ATOM     19  C   UNL     1       7.604   7.090  17.281  0.00  0.00    +0.000 A 
ATOM     20  N   UNL     1       6.468   6.746  16.640  0.00  0.00    +0.000 NA
ATOM     21  C   UNL     1       5.649   5.876  17.281  0.00  0.00    +0.000 A 
ENDBRANCH   7  16
TORSDOF 2
ENDMDL
MODEL 4
REMARK VINA RESULT:      -7.4      3.712      5.660
REMARK  Name = 
REMARK  2 active torsions:
REMARK  status: ('A' for Active; 'I' for Inactive)
REMARK    1  A    between atoms: C_4  and  C_5
REMARK    2  A    between atoms: C_11  and  C_12
REMARK                            x       y       z     vdW  Elec       q    Type
REMARK                         _______ _______ _______ _____ _____    ______ ____
ROOT
ATOM      1  C   UNL     1       4.748   4.064  17.066  0.00  0.00    +0.000 C 
ATOM      2  N   UNL     1       4.889   4.076  15.769  0.00  0.00    +0.000 NA
ATOM      3  N   UNL     1       6.038   4.619  15.261  0.00  0.00    +0.000 N 
ATOM      4  C   UNL     1       6.953   5.437  15.873  0.00  0.00    +0.000 A 
ATOM      5  N   UNL     1       7.923   5.756  15.057  0.00  0.00    +0.000 NA
ATOM      6  N   UNL     1       7.660   5.129  13.859  0.00  0.00    +0.000 NA
ATOM      7  C   UNL     1       6.511   4.478  13.962  0.00  0.00    +0.000 A 
ATOM      8  S   UNL     1       6.734   5.933  17.505  0.00  0.00    +0.000 S 
ATOM      9  C   UNL     1       5.821   4.480  18.068  0.00  0.00    +0.000 C 
ENDROOT
BRANCH   1  13
ATOM     10  C   UNL     1       1.122   2.399  18.670  0.00  0.00    +0.000 A 
ATOM     11  C   UNL     1       1.142   3.731  18.260  0.00  0.00    +0.000 A 
ATOM     12  C   UNL     1       2.311   4.287  17.733  0.00  0.00    +0.000 A 
ATOM     13  C   UNL     1       3.465   3.505  17.608  0.00  0.00    +0.000 A 
ATOM     14  C   UNL     1       3.438   2.168  18.032  0.00  0.00    +0.000 A 
ATOM     15  C   UNL     1       2.270   1.618  18.560  0.00  0.00    +0.000 A 
ENDBRANCH   1  13
BRANCH   7  16
ATOM     16  C   UNL     1       5.876   3.683  12.913  0.00  0.00    +0.000 A 
ATOM     17  C   UNL     1       4.616   4.040  12.420  0.00  0.00    +0.000 A 
ATOM     18  C   UNL     1       4.019   3.280  11.415  0.00  0.00    +0.000 A 
ATOM     19  C   UNL     1       4.697   2.173  10.934  0.00  0.00    +0.000 A 
ATOM     20  N   UNL     1       5.907   1.785  11.387  0.00  0.00    +0.000 NA
ATOM     21  C   UNL     1       6.462   2.545  12.363  0.00  0.00    +0.000 A 
ENDBRANCH   7  16
TORSDOF 2
ENDMDL
MODEL 5
REMARK VINA RESULT:      -7.4      3.718      5.678
REMARK  Name = 
REMARK  2 active torsions:
REMARK  status: ('A' for Active; 'I' for Inactive)
REMARK    1  A    between atoms: C_4  and  C_5
REMARK    2  A    between atoms: C_11  and  C_12
REMARK                            x       y       z     vdW  Elec       q    Type
REMARK                         _______ _______ _______ _____ _____    ______ ____
ROOT
ATOM      1  C   UNL     1       4.797   4.048  17.072  0.00  0.00    +0.000 C 
ATOM      2  N   UNL     1       4.927   4.062  15.774  0.00  0.00    +0.000 NA
ATOM      3  N   UNL     1       6.064   4.618  15.255  0.00  0.00    +0.000 N 
ATOM      4  C   UNL     1       6.975   5.448  15.859  0.00  0.00    +0.000 A 
ATOM      5  N   UNL     1       7.934   5.778  15.035  0.00  0.00    +0.000 NA
ATOM      6  N   UNL     1       7.668   5.147  13.840  0.00  0.00    +0.000 NA
ATOM      7  C   UNL     1       6.528   4.482  13.953  0.00  0.00    +0.000 A 
ATOM      8  S   UNL     1       6.765   5.941  17.493  0.00  0.00    +0.000 S 
ATOM      9  C   UNL     1       5.874   4.478  18.065  0.00  0.00    +0.000 C 
ENDROOT
BRANCH   1  13
ATOM     10  C   UNL     1       1.103   2.469  18.606  0.00  0.00    +0.000 A 
ATOM     11  C   UNL     1       2.216   1.636  18.506  0.00  0.00    +0.000 A 
ATOM     12  C   UNL     1       3.426   2.134  18.014  0.00  0.00    +0.000 A 
ATOM     13  C   UNL     1       3.526   3.474  17.625  0.00  0.00    +0.000 A 
ATOM     14  C   UNL     1       2.398   4.303  17.720  0.00  0.00    +0.000 A 
ATOM     15  C   UNL     1       1.192   3.801  18.210  0.00  0.00    +0.000 A 
ENDBRANCH   1  13
BRANCH   7  16
ATOM     16  C   UNL     1       5.894   3.679  12.909  0.00  0.00    +0.000 A 
ATOM     17  C   UNL     1       4.632   4.029  12.417  0.00  0.00    +0.000 A 
ATOM     18  C   UNL     1       4.034   3.261  11.418  0.00  0.00    +0.000 A 
ATOM     19  C   UNL     1       4.716   2.154  10.942  0.00  0.00    +0.000 A 
ATOM     20  N   UNL     1       5.928   1.773  11.393  0.00  0.00    +0.000 NA
ATOM     21  C   UNL     1       6.482   2.540  12.365  0.00  0.00    +0.000 A 
ENDBRANCH   7  16
TORSDOF 2
ENDMDL
MODEL 6
REMARK VINA RESULT:      -7.4      1.367      2.168
REMARK  Name = 
REMARK  2 active torsions:
REMARK  status: ('A' for Active; 'I' for Inactive)
REMARK    1  A    between atoms: C_4  and  C_5
REMARK    2  A    between atoms: C_11  and  C_12
REMARK                            x       y       z     vdW  Elec       q    Type
REMARK                         _______ _______ _______ _____ _____    ______ ____
ROOT
ATOM      1  C   UNL     1       1.991   6.091  20.207  0.00  0.00    +0.000 C 
ATOM      2  N   UNL     1       3.253   5.991  19.889  0.00  0.00    +0.000 NA
ATOM      3  N   UNL     1       3.783   4.735  19.781  0.00  0.00    +0.000 N 
ATOM      4  C   UNL     1       3.288   3.544  20.247  0.00  0.00    +0.000 A 
ATOM      5  N   UNL     1       4.085   2.551  19.952  0.00  0.00    +0.000 NA
ATOM      6  N   UNL     1       5.149   3.086  19.259  0.00  0.00    +0.000 NA
ATOM      7  C   UNL     1       4.994   4.399  19.188  0.00  0.00    +0.000 A 
ATOM      8  S   UNL     1       1.805   3.489  21.116  0.00  0.00    +0.000 S 
ATOM      9  C   UNL     1       1.025   4.917  20.333  0.00  0.00    +0.000 C 
ENDROOT
BRANCH   1  13
ATOM     10  C   UNL     1       0.404  10.050  20.755  0.00  0.00    +0.000 A 
ATOM     11  C   UNL     1       1.065   9.734  19.569  0.00  0.00    +0.000 A 
ATOM     12  C   UNL     1       1.584   8.451  19.372  0.00  0.00    +0.000 A 
ATOM     13  C   UNL     1       1.435   7.475  20.364  0.00  0.00    +0.000 A 
ATOM     14  C   UNL     1       0.776   7.805  21.558  0.00  0.00    +0.000 A 
ATOM     15  C   UNL     1       0.262   9.088  21.751  0.00  0.00    +0.000 A 
ENDBRANCH   1  13
BRANCH   7  16
ATOM     16  C   UNL     1       5.903   5.338  18.533  0.00  0.00    +0.000 A 
ATOM     17  C   UNL     1       7.090   5.728  19.163  0.00  0.00    +0.000 A 
ATOM     18  C   UNL     1       7.956   6.620  18.531  0.00  0.00    +0.000 A 
ATOM     19  C   UNL     1       7.604   7.107  17.283  0.00  0.00    +0.000 A 
ATOM     20  N   UNL     1       6.467   6.768  16.643  0.00  0.00    +0.000 NA
ATOM     21  C   UNL     1       5.646   5.898  17.284  0.00  0.00    +0.000 A 
ENDBRANCH   7  16
TORSDOF 2
ENDMDL
MODEL 7
REMARK VINA RESULT:      -7.3      0.612      1.045
REMARK  Name = 
REMARK  2 active torsions:
REMARK  status: ('A' for Active; 'I' for Inactive)
REMARK    1  A    between atoms: C_4  and  C_5
REMARK    2  A    between atoms: C_11  and  C_12
REMARK                            x       y       z     vdW  Elec       q    Type
REMARK                         _______ _______ _______ _____ _____    ______ ____
ROOT
ATOM      1  C   UNL     1       2.325   6.093  19.702  0.00  0.00    +0.000 C 
ATOM      2  N   UNL     1       3.415   5.664  19.127  0.00  0.00    +0.000 NA
ATOM      3  N   UNL     1       3.791   4.370  19.366  0.00  0.00    +0.000 N 
ATOM      4  C   UNL     1       3.379   3.519  20.359  0.00  0.00    +0.000 A 
ATOM      5  N   UNL     1       3.970   2.357  20.263  0.00  0.00    +0.000 NA
ATOM      6  N   UNL     1       4.802   2.423  19.167  0.00  0.00    +0.000 NA
ATOM      7  C   UNL     1       4.730   3.639  18.649  0.00  0.00    +0.000 A 
ATOM      8  S   UNL     1       2.239   4.033  21.540  0.00  0.00    +0.000 S 
ATOM      9  C   UNL     1       1.361   5.229  20.510  0.00  0.00    +0.000 C 
ENDROOT
BRANCH   1  13
ATOM     10  C   UNL     1       1.235  10.181  18.930  0.00  0.00    +0.000 A 
ATOM     11  C   UNL     1       0.981   9.629  20.184  0.00  0.00    +0.000 A 
ATOM     12  C   UNL     1       1.332   8.303  20.454  0.00  0.00    +0.000 A 
ATOM     13  C   UNL     1       1.948   7.526  19.466  0.00  0.00    +0.000 A 
ATOM     14  C   UNL     1       2.190   8.087  18.203  0.00  0.00    +0.000 A 
ATOM     15  C   UNL     1       1.835   9.410  17.938  0.00  0.00    +0.000 A 
ENDBRANCH   1  13
BRANCH   7  16
ATOM     16  C   UNL     1       5.458   4.119  17.476  0.00  0.00    +0.000 A 
ATOM     17  C   UNL     1       6.714   4.717  17.619  0.00  0.00    +0.000 A 
ATOM     18  C   UNL     1       7.405   5.168  16.495  0.00  0.00    +0.000 A 
ATOM     19  C   UNL     1       6.814   5.015  15.253  0.00  0.00    +0.000 A 
ATOM     20  N   UNL     1       5.601   4.455  15.067  0.00  0.00    +0.000 NA
ATOM     21  C   UNL     1       4.955   4.026  16.180  0.00  0.00    +0.000 A 
ENDBRANCH   7  16
TORSDOF 2
ENDMDL
MODEL 8
REMARK VINA RESULT:      -7.2      0.613      1.487
REMARK  Name = 
REMARK  2 active torsions:
REMARK  status: ('A' for Active; 'I' for Inactive)
REMARK    1  A    between atoms: C_4  and  C_5
REMARK    2  A    between atoms: C_11  and  C_12
REMARK                            x       y       z     vdW  Elec       q    Type
REMARK                         _______ _______ _______ _____ _____    ______ ____
ROOT
ATOM      1  C   UNL     1       2.309   6.084  19.688  0.00  0.00    +0.000 C 
ATOM      2  N   UNL     1       3.405   5.657  19.123  0.00  0.00    +0.000 NA
ATOM      3  N   UNL     1       3.788   4.368  19.374  0.00  0.00    +0.000 N 
ATOM      4  C   UNL     1       3.374   3.521  20.371  0.00  0.00    +0.000 A 
ATOM      5  N   UNL     1       3.974   2.363  20.286  0.00  0.00    +0.000 NA
ATOM      6  N   UNL     1       4.813   2.426  19.196  0.00  0.00    +0.000 NA
ATOM      7  C   UNL     1       4.736   3.638  18.669  0.00  0.00    +0.000 A 
ATOM      8  S   UNL     1       2.223   4.037  21.540  0.00  0.00    +0.000 S 
ATOM      9  C   UNL     1       1.345   5.220  20.495  0.00  0.00    +0.000 C 
ENDROOT
BRANCH   1  13
ATOM     10  C   UNL     1       1.217  10.197  19.068  0.00  0.00    +0.000 A 
ATOM     11  C   UNL     1       1.803   9.479  18.027  0.00  0.00    +0.000 A 
ATOM     12  C   UNL     1       2.161   8.140  18.210  0.00  0.00    +0.000 A 
ATOM     13  C   UNL     1       1.924   7.513  19.438  0.00  0.00    +0.000 A 
ATOM     14  C   UNL     1       1.343   8.246  20.483  0.00  0.00    +0.000 A 
ATOM     15  C   UNL     1       0.989   9.584  20.296  0.00  0.00    +0.000 A 
ENDBRANCH   1  13
BRANCH   7  16
ATOM     16  C   UNL     1       5.469   4.114  17.497  0.00  0.00    +0.000 A 
ATOM     17  C   UNL     1       6.746   4.666  17.638  0.00  0.00    +0.000 A 
ATOM     18  C   UNL     1       7.442   5.114  16.515  0.00  0.00    +0.000 A 
ATOM     19  C   UNL     1       6.834   5.003  15.277  0.00  0.00    +0.000 A 
ATOM     20  N   UNL     1       5.601   4.488  15.093  0.00  0.00    +0.000 NA
ATOM     21  C   UNL     1       4.951   4.061  16.205  0.00  0.00    +0.000 A 
ENDBRANCH   7  16
TORSDOF 2
ENDMDL
MODEL 9
REMARK VINA RESULT:      -7.2      3.690      5.653
REMARK  Name = 
REMARK  2 active torsions:
REMARK  status: ('A' for Active; 'I' for Inactive)
REMARK    1  A    between atoms: C_4  and  C_5
REMARK    2  A    between atoms: C_11  and  C_12
REMARK                            x       y       z     vdW  Elec       q    Type
REMARK                         _______ _______ _______ _____ _____    ______ ____
ROOT
ATOM      1  C   UNL     1       4.730   4.091  17.146  0.00  0.00    +0.000 C 
ATOM      2  N   UNL     1       4.888   4.111  15.851  0.00  0.00    +0.000 NA
ATOM      3  N   UNL     1       6.036   4.669  15.360  0.00  0.00    +0.000 N 
ATOM      4  C   UNL     1       6.933   5.496  15.988  0.00  0.00    +0.000 A 
ATOM      5  N   UNL     1       7.910   5.829  15.186  0.00  0.00    +0.000 NA
ATOM      6  N   UNL     1       7.670   5.205  13.982  0.00  0.00    +0.000 NA
ATOM      7  C   UNL     1       6.528   4.540  14.067  0.00  0.00    +0.000 A 
ATOM      8  S   UNL     1       6.688   5.981  17.619  0.00  0.00    +0.000 S 
ATOM      9  C   UNL     1       5.785   4.515  18.164  0.00  0.00    +0.000 C 
ENDROOT
BRANCH   1  13
ATOM     10  C   UNL     1       1.104   2.377  18.698  0.00  0.00    +0.000 A 
ATOM     11  C   UNL     1       1.104   3.700  18.259  0.00  0.00    +0.000 A 
ATOM     12  C   UNL     1       2.273   4.272  17.748  0.00  0.00    +0.000 A 
ATOM     13  C   UNL     1       3.447   3.514  17.669  0.00  0.00    +0.000 A 
ATOM     14  C   UNL     1       3.440   2.187  18.122  0.00  0.00    +0.000 A 
ATOM     15  C   UNL     1       2.271   1.621  18.634  0.00  0.00    +0.000 A 
ENDBRANCH   1  13
BRANCH   7  16
ATOM     16  C   UNL     1       5.916   3.742  13.006  0.00  0.00    +0.000 A 
ATOM     17  C   UNL     1       6.621   2.684  12.422  0.00  0.00    +0.000 A 
ATOM     18  C   UNL     1       6.030   1.924  11.414  0.00  0.00    +0.000 A 
ATOM     19  C   UNL     1       4.747   2.249  11.009  0.00  0.00    +0.000 A 
ATOM     20  N   UNL     1       4.034   3.266  11.535  0.00  0.00    +0.000 NA
ATOM     21  C   UNL     1       4.636   3.987  12.514  0.00  0.00    +0.000 A 
ENDBRANCH   7  16
TORSDOF 2
ENDMDL
