MODEL 1
REMARK VINA RESULT:      -7.9      0.000      0.000
REMARK  Name = 
REMARK  11 active torsions:
REMARK  status: ('A' for Active; 'I' for Inactive)
REMARK    1  A    between atoms: C_1  and  C_2
REMARK    2  A    between atoms: C_2  and  C_3
REMARK    3  A    between atoms: C_3  and  C_4
REMARK    4  A    between atoms: C_6  and  C_7
REMARK    5  A    between atoms: C_10  and  C_11
REMARK    6  A    between atoms: C_11  and  O_13
REMARK    7  A    between atoms: O_13  and  C_14
REMARK    8  A    between atoms: C_14  and  C_15
REMARK    9  A    between atoms: C_16  and  C_17
REMARK   10  A    between atoms: C_22  and  O_23
REMARK   11  A    between atoms: C_25  and  O_26
REMARK                            x       y       z     vdW  Elec       q    Type
REMARK                         _______ _______ _______ _____ _____    ______ ____
ROOT
ATOM      1  C   UNL     1       4.684   3.652  18.614  0.00  0.00    +0.000 A 
ATOM      2  N   UNL     1       4.923   2.434  19.195  0.00  0.00    +0.000 N 
ATOM      3  N   UNL     1       4.077   2.108  20.176  0.00  0.00    +0.000 NA
ATOM      4  C   UNL     1       3.289   3.196  20.322  0.00  0.00    +0.000 A 
ATOM      5  C   UNL     1       3.628   4.182  19.345  0.00  0.00    +0.000 A 
ATOM      6  H   UNL     1       5.654   1.770  18.954  0.00  0.00    +0.000 HD
ENDROOT
BRANCH   1   9
ATOM      7  C   UNL     1       5.886   4.587  15.147  0.00  0.00    +0.000 A 
ATOM      8  C   UNL     1       5.087   4.144  16.215  0.00  0.00    +0.000 A 
ATOM      9  C   UNL     1       5.537   4.177  17.544  0.00  0.00    +0.000 A 
ATOM     10  C   UNL     1       6.798   4.737  17.791  0.00  0.00    +0.000 A 
ATOM     11  C   UNL     1       7.583   5.239  16.756  0.00  0.00    +0.000 A 
ATOM     12  C   UNL     1       7.133   5.144  15.442  0.00  0.00    +0.000 A 
BRANCH  10  13
ATOM     13  O   UNL     1       7.335   4.806  19.049  0.00  0.00    +0.000 OA
ATOM     14  H   UNL     1       8.066   4.163  19.090  0.00  0.00    +0.000 HD
ENDBRANCH  10  13
BRANCH  12  15
ATOM     15  O   UNL     1       7.914   5.599  14.419  0.00  0.00    +0.000 OA
ATOM     16  H   UNL     1       7.873   6.569  14.398  0.00  0.00    +0.000 HD
ENDBRANCH  12  15
BRANCH   7  17
ATOM     17  C   UNL     1       5.394   4.418  13.727  0.00  0.00    +0.000 C 
BRANCH  17  19
ATOM     18  C   UNL     1       5.292   2.840  11.733  0.00  0.00    +0.000 C 
ATOM     19  C   UNL     1       6.103   3.320  12.927  0.00  0.00    +0.000 C 
ENDBRANCH  17  19
ENDBRANCH   7  17
ENDBRANCH   1   9
BRANCH   5  20
ATOM     20  C   UNL     1       3.003   5.503  19.228  0.00  0.00    +0.000 A 
ATOM     21  C   UNL     1       2.861   6.249  18.074  0.00  0.00    +0.000 A 
ATOM     22  S   UNL     1       2.134   7.760  18.434  0.00  0.00    +0.000 S 
ATOM     23  C   UNL     1       2.039   7.292  20.081  0.00  0.00    +0.000 A 
ATOM     24  N   UNL     1       2.569   6.125  20.383  0.00  0.00    +0.000 NA
ENDBRANCH   5  20
BRANCH   4  25
ATOM     25  C   UNL     1       2.281   3.270  21.385  0.00  0.00    +0.000 C 
ATOM     26  O   UNL     1       2.469   3.759  22.495  0.00  0.00    +0.000 OA
BRANCH  25  27
ATOM     27  O   UNL     1       1.107   2.679  20.999  0.00  0.00    +0.000 OA
BRANCH  27  28
ATOM     28  C   UNL     1       0.482   3.230  19.837  0.00  0.00    +0.000 C 
ATOM     29  C   UNL     1       0.605   2.208  18.721  0.00  0.00    +0.000 C 
ENDBRANCH  27  28
ENDBRANCH  25  27
ENDBRANCH   4  25
TORSDOF 9
ENDMDL
MODEL 2
REMARK VINA RESULT:      -7.7      3.027      6.837
REMARK  Name = 
REMARK  11 active torsions:
REMARK  status: ('A' for Active; 'I' for Inactive)
REMARK    1  A    between atoms: C_1  and  C_2
REMARK    2  A    between atoms: C_2  and  C_3
REMARK    3  A    between atoms: C_3  and  C_4
REMARK    4  A    between atoms: C_6  and  C_7
REMARK    5  A    between atoms: C_10  and  C_11
REMARK    6  A    between atoms: C_11  and  O_13
REMARK    7  A    between atoms: O_13  and  C_14
REMARK    8  A    between atoms: C_14  and  C_15
REMARK    9  A    between atoms: C_16  and  C_17
REMARK   10  A    between atoms: C_22  and  O_23
REMARK   11  A    between atoms: C_25  and  O_26
REMARK                            x       y       z     vdW  Elec       q    Type
REMARK                         _______ _______ _______ _____ _____    ______ ____
ROOT
ATOM      1  C   UNL     1       4.273   6.664  17.595  0.00  0.00    +0.000 A 
ATOM      2  N   UNL     1       5.273   7.429  17.053  0.00  0.00    +0.000 N 
ATOM      3  N   UNL     1       6.190   6.741  16.367  0.00  0.00    +0.000 NA
ATOM      4  C   UNL     1       5.841   5.446  16.533  0.00  0.00    +0.000 A 
ATOM      5  C   UNL     1       4.630   5.358  17.285  0.00  0.00    +0.000 A 
ATOM      6  H   UNL     1       5.376   8.438  17.111  0.00  0.00    +0.000 HD
ENDROOT
BRANCH   1   9
ATOM      7  C   UNL     1       1.503   9.007  18.681  0.00  0.00    +0.000 A 
ATOM      8  C   UNL     1       2.502   8.372  17.924  0.00  0.00    +0.000 A 
ATOM      9  C   UNL     1       3.203   7.255  18.404  0.00  0.00    +0.000 A 
ATOM     10  C   UNL     1       2.828   6.738  19.652  0.00  0.00    +0.000 A 
ATOM     11  C   UNL     1       1.799   7.312  20.394  0.00  0.00    +0.000 A 
ATOM     12  C   UNL     1       1.158   8.451  19.915  0.00  0.00    +0.000 A 
BRANCH  10  13
ATOM     13  O   UNL     1       3.455   5.659  20.217  0.00  0.00    +0.000 OA
ATOM     14  H   UNL     1       2.762   5.031  20.493  0.00  0.00    +0.000 HD
ENDBRANCH  10  13
BRANCH  12  15
ATOM     15  O   UNL     1       0.175   9.043  20.656  0.00  0.00    +0.000 OA
ATOM     16  H   UNL     1      -0.658   9.015  20.156  0.00  0.00    +0.000 HD
ENDBRANCH  12  15
BRANCH   7  17
ATOM     17  C   UNL     1       0.865  10.275  18.160  0.00  0.00    +0.000 C 
BRANCH  17  19
ATOM     18  C   UNL     1       2.520  12.205  18.028  0.00  0.00    +0.000 C 
ATOM     19  C   UNL     1       1.380  11.566  18.807  0.00  0.00    +0.000 C 
ENDBRANCH  17  19
ENDBRANCH   7  17
ENDBRANCH   1   9
BRANCH   5  20
ATOM     20  C   UNL     1       3.975   4.108  17.686  0.00  0.00    +0.000 A 
ATOM     21  C   UNL     1       2.793   3.600  17.184  0.00  0.00    +0.000 A 
ATOM     22  S   UNL     1       2.380   2.150  18.004  0.00  0.00    +0.000 S 
ATOM     23  C   UNL     1       3.814   2.299  18.932  0.00  0.00    +0.000 A 
ATOM     24  N   UNL     1       4.534   3.379  18.718  0.00  0.00    +0.000 NA
ENDBRANCH   5  20
BRANCH   4  25
ATOM     25  C   UNL     1       6.673   4.359  16.007  0.00  0.00    +0.000 C 
ATOM     26  O   UNL     1       7.789   4.066  16.426  0.00  0.00    +0.000 OA
BRANCH  25  27
ATOM     27  O   UNL     1       6.065   3.734  14.950  0.00  0.00    +0.000 OA
BRANCH  27  28
ATOM     28  C   UNL     1       6.536   4.102  13.651  0.00  0.00    +0.000 C 
ATOM     29  C   UNL     1       5.642   3.422  12.629  0.00  0.00    +0.000 C 
ENDBRANCH  27  28
ENDBRANCH  25  27
ENDBRANCH   4  25
TORSDOF 9
ENDMDL
MODEL 3
REMARK VINA RESULT:      -7.7      3.068      6.965
REMARK  Name = 
REMARK  11 active torsions:
REMARK  status: ('A' for Active; 'I' for Inactive)
REMARK    1  A    between atoms: C_1  and  C_2
REMARK    2  A    between atoms: C_2  and  C_3
REMARK    3  A    between atoms: C_3  and  C_4
REMARK    4  A    between atoms: C_6  and  C_7
REMARK    5  A    between atoms: C_10  and  C_11
REMARK    6  A    between atoms: C_11  and  O_13
REMARK    7  A    between atoms: O_13  and  C_14
REMARK    8  A    between atoms: C_14  and  C_15
REMARK    9  A    between atoms: C_16  and  C_17
REMARK   10  A    between atoms: C_22  and  O_23
REMARK   11  A    between atoms: C_25  and  O_26
REMARK                            x       y       z     vdW  Elec       q    Type
REMARK                         _______ _______ _______ _____ _____    ______ ____
ROOT
ATOM      1  C   UNL     1       3.531   6.850  17.661  0.00  0.00    +0.000 A 
ATOM      2  N   UNL     1       4.472   7.549  16.950  0.00  0.00    +0.000 N 
ATOM      3  N   UNL     1       5.243   6.799  16.158  0.00  0.00    +0.000 NA
ATOM      4  C   UNL     1       4.863   5.528  16.417  0.00  0.00    +0.000 A 
ATOM      5  C   UNL     1       3.776   5.520  17.344  0.00  0.00    +0.000 A 
ATOM      6  H   UNL     1       4.629   8.553  16.959  0.00  0.00    +0.000 HD
ENDROOT
BRANCH   1   9
ATOM      7  C   UNL     1       1.064   9.354  19.068  0.00  0.00    +0.000 A 
ATOM      8  C   UNL     1       1.907   8.650  18.192  0.00  0.00    +0.000 A 
ATOM      9  C   UNL     1       2.623   7.515  18.600  0.00  0.00    +0.000 A 
ATOM     10  C   UNL     1       2.420   7.051  19.908  0.00  0.00    +0.000 A 
ATOM     11  C   UNL     1       1.542   7.695  20.775  0.00  0.00    +0.000 A 
ATOM     12  C   UNL     1       0.886   8.851  20.359  0.00  0.00    +0.000 A 
BRANCH  10  13
ATOM     13  O   UNL     1       3.077   5.959  20.409  0.00  0.00    +0.000 OA
ATOM     14  H   UNL     1       3.906   6.277  20.812  0.00  0.00    +0.000 HD
ENDBRANCH  10  13
BRANCH  12  15
ATOM     15  O   UNL     1       0.054   9.510  21.218  0.00  0.00    +0.000 OA
ATOM     16  H   UNL     1      -0.691   8.929  21.445  0.00  0.00    +0.000 HD
ENDBRANCH  12  15
BRANCH   7  17
ATOM     17  C   UNL     1       0.411  10.637  18.606  0.00  0.00    +0.000 C 
BRANCH  17  19
ATOM     18  C   UNL     1      -1.597   9.881  17.237  0.00  0.00    +0.000 C 
ATOM     19  C   UNL     1      -1.117  10.579  18.500  0.00  0.00    +0.000 C 
ENDBRANCH  17  19
ENDBRANCH   7  17
ENDBRANCH   1   9
BRANCH   5  20
ATOM     20  C   UNL     1       3.133   4.315  17.878  0.00  0.00    +0.000 A 
ATOM     21  C   UNL     1       1.827   3.917  17.669  0.00  0.00    +0.000 A 
ATOM     22  S   UNL     1       1.500   2.482  18.551  0.00  0.00    +0.000 S 
ATOM     23  C   UNL     1       3.121   2.490  19.112  0.00  0.00    +0.000 A 
ATOM     24  N   UNL     1       3.857   3.516  18.741  0.00  0.00    +0.000 NA
ENDBRANCH   5  20
BRANCH   4  25
ATOM     25  C   UNL     1       5.556   4.387  15.809  0.00  0.00    +0.000 C 
ATOM     26  O   UNL     1       6.369   3.672  16.387  0.00  0.00    +0.000 OA
BRANCH  25  27
ATOM     27  O   UNL     1       5.215   4.244  14.489  0.00  0.00    +0.000 OA
BRANCH  27  28
ATOM     28  C   UNL     1       6.279   3.888  13.603  0.00  0.00    +0.000 C 
ATOM     29  C   UNL     1       5.654   3.394  12.310  0.00  0.00    +0.000 C 
ENDBRANCH  27  28
ENDBRANCH  25  27
ENDBRANCH   4  25
TORSDOF 9
ENDMDL
MODEL 4
REMARK VINA RESULT:      -7.5      3.165      7.031
REMARK  Name = 
REMARK  11 active torsions:
REMARK  status: ('A' for Active; 'I' for Inactive)
REMARK    1  A    between atoms: C_1  and  C_2
REMARK    2  A    between atoms: C_2  and  C_3
REMARK    3  A    between atoms: C_3  and  C_4
REMARK    4  A    between atoms: C_6  and  C_7
REMARK    5  A    between atoms: C_10  and  C_11
REMARK    6  A    between atoms: C_11  and  O_13
REMARK    7  A    between atoms: O_13  and  C_14
REMARK    8  A    between atoms: C_14  and  C_15
REMARK    9  A    between atoms: C_16  and  C_17
REMARK   10  A    between atoms: C_22  and  O_23
REMARK   11  A    between atoms: C_25  and  O_26
REMARK                            x       y       z     vdW  Elec       q    Type
REMARK                         _______ _______ _______ _____ _____    ______ ____
ROOT
ATOM      1  C   UNL     1       3.158   7.127  18.009  0.00  0.00    +0.000 A 
ATOM      2  N   UNL     1       4.147   7.791  17.331  0.00  0.00    +0.000 N 
ATOM      3  N   UNL     1       4.953   7.006  16.612  0.00  0.00    +0.000 NA
ATOM      4  C   UNL     1       4.543   5.749  16.890  0.00  0.00    +0.000 A 
ATOM      5  C   UNL     1       3.404   5.784  17.752  0.00  0.00    +0.000 A 
ATOM      6  H   UNL     1       4.315   8.793  17.316  0.00  0.00    +0.000 HD
ENDROOT
BRANCH   1   9
ATOM      7  C   UNL     1       0.605   9.672  19.167  0.00  0.00    +0.000 A 
ATOM      8  C   UNL     1       1.490   8.930  18.368  0.00  0.00    +0.000 A 
ATOM      9  C   UNL     1       2.206   7.833  18.872  0.00  0.00    +0.000 A 
ATOM     10  C   UNL     1       1.958   7.446  20.197  0.00  0.00    +0.000 A 
ATOM     11  C   UNL     1       1.039   8.128  20.990  0.00  0.00    +0.000 A 
ATOM     12  C   UNL     1       0.384   9.245  20.480  0.00  0.00    +0.000 A 
BRANCH  10  13
ATOM     13  O   UNL     1       2.611   6.398  20.789  0.00  0.00    +0.000 OA
ATOM     14  H   UNL     1       2.138   5.582  20.540  0.00  0.00    +0.000 HD
ENDBRANCH  10  13
BRANCH  12  15
ATOM     15  O   UNL     1      -0.489   9.942  21.265  0.00  0.00    +0.000 OA
ATOM     16  H   UNL     1      -0.478  10.876  20.997  0.00  0.00    +0.000 HD
ENDBRANCH  12  15
BRANCH   7  17
ATOM     17  C   UNL     1      -0.047  10.914  18.603  0.00  0.00    +0.000 C 
BRANCH  17  19
ATOM     18  C   UNL     1      -1.813   9.932  17.055  0.00  0.00    +0.000 C 
ATOM     19  C   UNL     1      -1.542  10.772  18.294  0.00  0.00    +0.000 C 
ENDBRANCH  17  19
ENDBRANCH   7  17
ENDBRANCH   1   9
BRANCH   5  20
ATOM     20  C   UNL     1       2.716   4.606  18.289  0.00  0.00    +0.000 A 
ATOM     21  C   UNL     1       1.493   4.108  17.880  0.00  0.00    +0.000 A 
ATOM     22  S   UNL     1       1.056   2.757  18.843  0.00  0.00    +0.000 S 
ATOM     23  C   UNL     1       2.533   2.923  19.699  0.00  0.00    +0.000 A 
ATOM     24  N   UNL     1       3.287   3.947  19.361  0.00  0.00    +0.000 NA
ENDBRANCH   5  20
BRANCH   4  25
ATOM     25  C   UNL     1       5.255   4.581  16.362  0.00  0.00    +0.000 C 
ATOM     26  O   UNL     1       5.075   4.094  15.250  0.00  0.00    +0.000 OA
BRANCH  25  27
ATOM     27  O   UNL     1       6.123   4.066  17.290  0.00  0.00    +0.000 OA
BRANCH  27  28
ATOM     28  C   UNL     1       7.456   4.581  17.253  0.00  0.00    +0.000 C 
ATOM     29  C   UNL     1       7.677   5.375  18.529  0.00  0.00    +0.000 C 
ENDBRANCH  27  28
ENDBRANCH  25  27
ENDBRANCH   4  25
TORSDOF 9
ENDMDL
MODEL 5
REMARK VINA RESULT:      -7.4      3.617      7.095
REMARK  Name = 
REMARK  11 active torsions:
REMARK  status: ('A' for Active; 'I' for Inactive)
REMARK    1  A    between atoms: C_1  and  C_2
REMARK    2  A    between atoms: C_2  and  C_3
REMARK    3  A    between atoms: C_3  and  C_4
REMARK    4  A    between atoms: C_6  and  C_7
REMARK    5  A    between atoms: C_10  and  C_11
REMARK    6  A    between atoms: C_11  and  O_13
REMARK    7  A    between atoms: O_13  and  C_14
REMARK    8  A    between atoms: C_14  and  C_15
REMARK    9  A    between atoms: C_16  and  C_17
REMARK   10  A    between atoms: C_22  and  O_23
REMARK   11  A    between atoms: C_25  and  O_26
REMARK                            x       y       z     vdW  Elec       q    Type
REMARK                         _______ _______ _______ _____ _____    ______ ____
ROOT
ATOM      1  C   UNL     1       2.674   7.489  18.180  0.00  0.00    +0.000 A 
ATOM      2  N   UNL     1       3.711   8.009  17.450  0.00  0.00    +0.000 N 
ATOM      3  N   UNL     1       4.585   7.105  17.002  0.00  0.00    +0.000 NA
ATOM      4  C   UNL     1       4.167   5.934  17.532  0.00  0.00    +0.000 A 
ATOM      5  C   UNL     1       2.957   6.132  18.265  0.00  0.00    +0.000 A 
ATOM      6  H   UNL     1       3.868   8.985  17.215  0.00  0.00    +0.000 HD
ENDROOT
BRANCH   1   9
ATOM      7  C   UNL     1      -0.214   9.925  18.455  0.00  0.00    +0.000 A 
ATOM      8  C   UNL     1       0.759   9.051  17.940  0.00  0.00    +0.000 A 
ATOM      9  C   UNL     1       1.642   8.346  18.772  0.00  0.00    +0.000 A 
ATOM     10  C   UNL     1       1.481   8.484  20.158  0.00  0.00    +0.000 A 
ATOM     11  C   UNL     1       0.484   9.296  20.694  0.00  0.00    +0.000 A 
ATOM     12  C   UNL     1      -0.342  10.024  19.843  0.00  0.00    +0.000 A 
BRANCH  10  13
ATOM     13  O   UNL     1       2.296   7.850  21.058  0.00  0.00    +0.000 OA
ATOM     14  H   UNL     1       3.210   7.929  20.730  0.00  0.00    +0.000 HD
ENDBRANCH  10  13
BRANCH  12  15
ATOM     15  O   UNL     1      -1.296  10.852  20.361  0.00  0.00    +0.000 OA
ATOM     16  H   UNL     1      -0.901  11.384  21.071  0.00  0.00    +0.000 HD
ENDBRANCH  12  15
BRANCH   7  17
ATOM     17  C   UNL     1      -1.057  10.746  17.506  0.00  0.00    +0.000 C 
BRANCH  17  19
ATOM     18  C   UNL     1      -2.682  10.414  15.575  0.00  0.00    +0.000 C 
ATOM     19  C   UNL     1      -2.329  10.050  17.010  0.00  0.00    +0.000 C 
ENDBRANCH  17  19
ENDBRANCH   7  17
ENDBRANCH   1   9
BRANCH   5  20
ATOM     20  C   UNL     1       2.238   5.089  19.004  0.00  0.00    +0.000 A 
ATOM     21  C   UNL     1       1.453   4.089  18.463  0.00  0.00    +0.000 A 
ATOM     22  S   UNL     1       0.756   3.145  19.715  0.00  0.00    +0.000 S 
ATOM     23  C   UNL     1       1.574   4.118  20.867  0.00  0.00    +0.000 A 
ATOM     24  N   UNL     1       2.269   5.126  20.385  0.00  0.00    +0.000 NA
ENDBRANCH   5  20
BRANCH   4  25
ATOM     25  C   UNL     1       4.936   4.698  17.352  0.00  0.00    +0.000 C 
ATOM     26  O   UNL     1       4.746   3.879  16.459  0.00  0.00    +0.000 OA
BRANCH  25  27
ATOM     27  O   UNL     1       5.872   4.546  18.342  0.00  0.00    +0.000 OA
BRANCH  27  28
ATOM     28  C   UNL     1       7.221   4.851  17.979  0.00  0.00    +0.000 C 
ATOM     29  C   UNL     1       7.764   5.826  19.009  0.00  0.00    +0.000 C 
ENDBRANCH  27  28
ENDBRANCH  25  27
ENDBRANCH   4  25
TORSDOF 9
ENDMDL
MODEL 6
REMARK VINA RESULT:      -7.4      3.522      7.104
REMARK  Name = 
REMARK  11 active torsions:
REMARK  status: ('A' for Active; 'I' for Inactive)
REMARK    1  A    between atoms: C_1  and  C_2
REMARK    2  A    between atoms: C_2  and  C_3
REMARK    3  A    between atoms: C_3  and  C_4
REMARK    4  A    between atoms: C_6  and  C_7
REMARK    5  A    between atoms: C_10  and  C_11
REMARK    6  A    between atoms: C_11  and  O_13
REMARK    7  A    between atoms: O_13  and  C_14
REMARK    8  A    between atoms: C_14  and  C_15
REMARK    9  A    between atoms: C_16  and  C_17
REMARK   10  A    between atoms: C_22  and  O_23
REMARK   11  A    between atoms: C_25  and  O_26
REMARK                            x       y       z     vdW  Elec       q    Type
REMARK                         _______ _______ _______ _____ _____    ______ ____
ROOT
ATOM      1  C   UNL     1       2.702   7.506  18.227  0.00  0.00    +0.000 A 
ATOM      2  N   UNL     1       3.722   8.029  17.475  0.00  0.00    +0.000 N 
ATOM      3  N   UNL     1       4.596   7.128  17.019  0.00  0.00    +0.000 NA
ATOM      4  C   UNL     1       4.197   5.958  17.564  0.00  0.00    +0.000 A 
ATOM      5  C   UNL     1       2.998   6.152  18.317  0.00  0.00    +0.000 A 
ATOM      6  H   UNL     1       3.868   9.004  17.231  0.00  0.00    +0.000 HD
ENDROOT
BRANCH   1   9
ATOM      7  C   UNL     1      -0.166   9.959  18.536  0.00  0.00    +0.000 A 
ATOM      8  C   UNL     1       0.803   9.089  18.008  0.00  0.00    +0.000 A 
ATOM      9  C   UNL     1       1.674   8.358  18.831  0.00  0.00    +0.000 A 
ATOM     10  C   UNL     1       1.505   8.468  20.219  0.00  0.00    +0.000 A 
ATOM     11  C   UNL     1       0.512   9.276  20.765  0.00  0.00    +0.000 A 
ATOM     12  C   UNL     1      -0.303  10.030  19.925  0.00  0.00    +0.000 A 
BRANCH  10  13
ATOM     13  O   UNL     1       2.308   7.807  21.110  0.00  0.00    +0.000 OA
ATOM     14  H   UNL     1       3.127   8.327  21.204  0.00  0.00    +0.000 HD
ENDBRANCH  10  13
BRANCH  12  15
ATOM     15  O   UNL     1      -1.253  10.855  20.455  0.00  0.00    +0.000 OA
ATOM     16  H   UNL     1      -1.003  11.080  21.366  0.00  0.00    +0.000 HD
ENDBRANCH  12  15
BRANCH   7  17
ATOM     17  C   UNL     1      -0.996  10.808  17.599  0.00  0.00    +0.000 C 
BRANCH  17  19
ATOM     18  C   UNL     1      -3.344   9.827  17.560  0.00  0.00    +0.000 C 
ATOM     19  C   UNL     1      -2.047  10.037  16.793  0.00  0.00    +0.000 C 
ENDBRANCH  17  19
ENDBRANCH   7  17
ENDBRANCH   1   9
BRANCH   5  20
ATOM     20  C   UNL     1       2.300   5.108  19.075  0.00  0.00    +0.000 A 
ATOM     21  C   UNL     1       1.431   4.162  18.566  0.00  0.00    +0.000 A 
ATOM     22  S   UNL     1       0.803   3.196  19.837  0.00  0.00    +0.000 S 
ATOM     23  C   UNL     1       1.755   4.088  20.950  0.00  0.00    +0.000 A 
ATOM     24  N   UNL     1       2.448   5.088  20.448  0.00  0.00    +0.000 NA
ENDBRANCH   5  20
BRANCH   4  25
ATOM     25  C   UNL     1       4.972   4.727  17.379  0.00  0.00    +0.000 C 
ATOM     26  O   UNL     1       5.591   4.149  18.268  0.00  0.00    +0.000 OA
BRANCH  25  27
ATOM     27  O   UNL     1       4.959   4.323  16.070  0.00  0.00    +0.000 OA
BRANCH  27  28
ATOM     28  C   UNL     1       6.238   4.077  15.478  0.00  0.00    +0.000 C 
ATOM     29  C   UNL     1       6.034   3.962  13.978  0.00  0.00    +0.000 C 
ENDBRANCH  27  28
ENDBRANCH  25  27
ENDBRANCH   4  25
TORSDOF 9
ENDMDL
MODEL 7
REMARK VINA RESULT:      -7.3      1.485      1.939
REMARK  Name = 
REMARK  11 active torsions:
REMARK  status: ('A' for Active; 'I' for Inactive)
REMARK    1  A    between atoms: C_1  and  C_2
REMARK    2  A    between atoms: C_2  and  C_3
REMARK    3  A    between atoms: C_3  and  C_4
REMARK    4  A    between atoms: C_6  and  C_7
REMARK    5  A    between atoms: C_10  and  C_11
REMARK    6  A    between atoms: C_11  and  O_13
REMARK    7  A    between atoms: O_13  and  C_14
REMARK    8  A    between atoms: C_14  and  C_15
REMARK    9  A    between atoms: C_16  and  C_17
REMARK   10  A    between atoms: C_22  and  O_23
REMARK   11  A    between atoms: C_25  and  O_26
REMARK                            x       y       z     vdW  Elec       q    Type
REMARK                         _______ _______ _______ _____ _____    ______ ____
ROOT
ATOM      1  C   UNL     1       4.444   3.164  16.990  0.00  0.00    +0.000 A 
ATOM      2  N   UNL     1       4.482   1.817  17.247  0.00  0.00    +0.000 N 
ATOM      3  N   UNL     1       3.509   1.376  18.048  0.00  0.00    +0.000 NA
ATOM      4  C   UNL     1       2.841   2.490  18.420  0.00  0.00    +0.000 A 
ATOM      5  C   UNL     1       3.389   3.633  17.761  0.00  0.00    +0.000 A 
ATOM      6  H   UNL     1       5.152   1.142  16.889  0.00  0.00    +0.000 HD
ENDROOT
BRANCH   1   9
ATOM      7  C   UNL     1       6.355   4.274  13.915  0.00  0.00    +0.000 A 
ATOM      8  C   UNL     1       5.384   3.709  14.759  0.00  0.00    +0.000 A 
ATOM      9  C   UNL     1       5.456   3.818  16.156  0.00  0.00    +0.000 A 
ATOM     10  C   UNL     1       6.504   4.577  16.696  0.00  0.00    +0.000 A 
ATOM     11  C   UNL     1       7.444   5.198  15.879  0.00  0.00    +0.000 A 
ATOM     12  C   UNL     1       7.377   5.028  14.499  0.00  0.00    +0.000 A 
BRANCH  10  13
ATOM     13  O   UNL     1       6.672   4.737  18.046  0.00  0.00    +0.000 OA
ATOM     14  H   UNL     1       5.985   5.354  18.355  0.00  0.00    +0.000 HD
ENDBRANCH  10  13
BRANCH  12  15
ATOM     15  O   UNL     1       8.319   5.602  13.694  0.00  0.00    +0.000 OA
ATOM     16  H   UNL     1       8.950   6.092  14.246  0.00  0.00    +0.000 HD
ENDBRANCH  12  15
BRANCH   7  17
ATOM     17  C   UNL     1       6.288   4.023  12.426  0.00  0.00    +0.000 C 
BRANCH  17  19
ATOM     18  C   UNL     1       4.147   3.250  11.288  0.00  0.00    +0.000 C 
ATOM     19  C   UNL     1       5.417   2.832  12.013  0.00  0.00    +0.000 C 
ENDBRANCH  17  19
ENDBRANCH   7  17
ENDBRANCH   1   9
BRANCH   5  20
ATOM     20  C   UNL     1       2.936   5.014  17.954  0.00  0.00    +0.000 A 
ATOM     21  C   UNL     1       3.678   6.061  18.467  0.00  0.00    +0.000 A 
ATOM     22  S   UNL     1       2.709   7.474  18.571  0.00  0.00    +0.000 S 
ATOM     23  C   UNL     1       1.399   6.593  17.901  0.00  0.00    +0.000 A 
ATOM     24  N   UNL     1       1.617   5.316  17.671  0.00  0.00    +0.000 NA
ENDBRANCH   5  20
BRANCH   4  25
ATOM     25  C   UNL     1       1.746   2.432  19.395  0.00  0.00    +0.000 C 
ATOM     26  O   UNL     1       0.555   2.512  19.115  0.00  0.00    +0.000 OA
BRANCH  25  27
ATOM     27  O   UNL     1       2.226   2.323  20.674  0.00  0.00    +0.000 OA
BRANCH  27  28
ATOM     28  C   UNL     1       1.628   3.190  21.642  0.00  0.00    +0.000 C 
ATOM     29  C   UNL     1       2.147   4.594  21.383  0.00  0.00    +0.000 C 
ENDBRANCH  27  28
ENDBRANCH  25  27
ENDBRANCH   4  25
TORSDOF 9
ENDMDL
MODEL 8
REMARK VINA RESULT:      -7.3      3.075      6.948
REMARK  Name = 
REMARK  11 active torsions:
REMARK  status: ('A' for Active; 'I' for Inactive)
REMARK    1  A    between atoms: C_1  and  C_2
REMARK    2  A    between atoms: C_2  and  C_3
REMARK    3  A    between atoms: C_3  and  C_4
REMARK    4  A    between atoms: C_6  and  C_7
REMARK    5  A    between atoms: C_10  and  C_11
REMARK    6  A    between atoms: C_11  and  O_13
REMARK    7  A    between atoms: O_13  and  C_14
REMARK    8  A    between atoms: C_14  and  C_15
REMARK    9  A    between atoms: C_16  and  C_17
REMARK   10  A    between atoms: C_22  and  O_23
REMARK   11  A    between atoms: C_25  and  O_26
REMARK                            x       y       z     vdW  Elec       q    Type
REMARK                         _______ _______ _______ _____ _____    ______ ____
ROOT
ATOM      1  C   UNL     1       3.852   6.897  17.619  0.00  0.00    +0.000 A 
ATOM      2  N   UNL     1       4.776   7.664  16.957  0.00  0.00    +0.000 N 
ATOM      3  N   UNL     1       5.657   6.971  16.232  0.00  0.00    +0.000 NA
ATOM      4  C   UNL     1       5.370   5.676  16.490  0.00  0.00    +0.000 A 
ATOM      5  C   UNL     1       4.228   5.589  17.345  0.00  0.00    +0.000 A 
ATOM      6  H   UNL     1       4.847   8.677  16.957  0.00  0.00    +0.000 HD
ENDROOT
BRANCH   1   9
ATOM      7  C   UNL     1       1.149   9.248  18.846  0.00  0.00    +0.000 A 
ATOM      8  C   UNL     1       2.101   8.606  18.036  0.00  0.00    +0.000 A 
ATOM      9  C   UNL     1       2.832   7.495  18.485  0.00  0.00    +0.000 A 
ATOM     10  C   UNL     1       2.533   6.990  19.758  0.00  0.00    +0.000 A 
ATOM     11  C   UNL     1       1.550   7.571  20.555  0.00  0.00    +0.000 A 
ATOM     12  C   UNL     1       0.879   8.705  20.105  0.00  0.00    +0.000 A 
BRANCH  10  13
ATOM     13  O   UNL     1       3.195   5.918  20.295  0.00  0.00    +0.000 OA
ATOM     14  H   UNL     1       2.549   5.193  20.387  0.00  0.00    +0.000 HD
ENDBRANCH  10  13
BRANCH  12  15
ATOM     15  O   UNL     1      -0.058   9.303  20.897  0.00  0.00    +0.000 OA
ATOM     16  H   UNL     1       0.232  10.207  21.102  0.00  0.00    +0.000 HD
ENDBRANCH  12  15
BRANCH   7  17
ATOM     17  C   UNL     1       0.479  10.511  18.352  0.00  0.00    +0.000 C 
BRANCH  17  19
ATOM     18  C   UNL     1       2.313  12.272  18.238  0.00  0.00    +0.000 C 
ATOM     19  C   UNL     1       1.044  11.810  18.938  0.00  0.00    +0.000 C 
ENDBRANCH  17  19
ENDBRANCH   7  17
ENDBRANCH   1   9
BRANCH   5  20
ATOM     20  C   UNL     1       3.655   4.341  17.860  0.00  0.00    +0.000 A 
ATOM     21  C   UNL     1       2.431   3.795  17.521  0.00  0.00    +0.000 A 
ATOM     22  S   UNL     1       2.153   2.366  18.429  0.00  0.00    +0.000 S 
ATOM     23  C   UNL     1       3.684   2.572  19.172  0.00  0.00    +0.000 A 
ATOM     24  N   UNL     1       4.349   3.657  18.839  0.00  0.00    +0.000 NA
ENDBRANCH   5  20
BRANCH   4  25
ATOM     25  C   UNL     1       6.194   4.590  15.950  0.00  0.00    +0.000 C 
ATOM     26  O   UNL     1       5.776   3.676  15.246  0.00  0.00    +0.000 OA
BRANCH  25  27
ATOM     27  O   UNL     1       7.494   4.696  16.371  0.00  0.00    +0.000 OA
BRANCH  27  28
ATOM     28  C   UNL     1       7.737   4.360  17.740  0.00  0.00    +0.000 C 
ATOM     29  C   UNL     1       7.837   5.658  18.520  0.00  0.00    +0.000 C 
ENDBRANCH  27  28
ENDBRANCH  25  27
ENDBRANCH   4  25
TORSDOF 9
ENDMDL
MODEL 9
REMARK VINA RESULT:      -7.2      1.235      1.754
REMARK  Name = 
REMARK  11 active torsions:
REMARK  status: ('A' for Active; 'I' for Inactive)
REMARK    1  A    between atoms: C_1  and  C_2
REMARK    2  A    between atoms: C_2  and  C_3
REMARK    3  A    between atoms: C_3  and  C_4
REMARK    4  A    between atoms: C_6  and  C_7
REMARK    5  A    between atoms: C_10  and  C_11
REMARK    6  A    between atoms: C_11  and  O_13
REMARK    7  A    between atoms: O_13  and  C_14
REMARK    8  A    between atoms: C_14  and  C_15
REMARK    9  A    between atoms: C_16  and  C_17
REMARK   10  A    between atoms: C_22  and  O_23
REMARK   11  A    between atoms: C_25  and  O_26
REMARK                            x       y       z     vdW  Elec       q    Type
REMARK                         _______ _______ _______ _____ _____    ______ ____
ROOT
ATOM      1  C   UNL     1       3.953   3.652  17.230  0.00  0.00    +0.000 A 
ATOM      2  N   UNL     1       3.797   2.302  17.405  0.00  0.00    +0.000 N 
ATOM      3  N   UNL     1       2.736   1.954  18.137  0.00  0.00    +0.000 NA
ATOM      4  C   UNL     1       2.206   3.127  18.549  0.00  0.00    +0.000 A 
ATOM      5  C   UNL     1       2.933   4.219  17.984  0.00  0.00    +0.000 A 
ATOM      6  H   UNL     1       4.387   1.562  17.035  0.00  0.00    +0.000 HD
ENDROOT
BRANCH   1   9
ATOM      7  C   UNL     1       6.303   4.394  14.354  0.00  0.00    +0.000 A 
ATOM      8  C   UNL     1       5.213   3.929  15.109  0.00  0.00    +0.000 A 
ATOM      9  C   UNL     1       5.082   4.207  16.478  0.00  0.00    +0.000 A 
ATOM     10  C   UNL     1       6.049   5.033  17.070  0.00  0.00    +0.000 A 
ATOM     11  C   UNL     1       7.105   5.556  16.329  0.00  0.00    +0.000 A 
ATOM     12  C   UNL     1       7.238   5.219  14.985  0.00  0.00    +0.000 A 
BRANCH  10  13
ATOM     13  O   UNL     1       6.021   5.356  18.401  0.00  0.00    +0.000 OA
ATOM     14  H   UNL     1       5.489   6.168  18.493  0.00  0.00    +0.000 HD
ENDBRANCH  10  13
BRANCH  12  15
ATOM     15  O   UNL     1       8.293   5.697  14.262  0.00  0.00    +0.000 OA
ATOM     16  H   UNL     1       9.041   5.853  14.861  0.00  0.00    +0.000 HD
ENDBRANCH  12  15
BRANCH   7  17
ATOM     17  C   UNL     1       6.450   3.964  12.913  0.00  0.00    +0.000 C 
BRANCH  17  19
ATOM     18  C   UNL     1       5.602   2.055  11.458  0.00  0.00    +0.000 C 
ATOM     19  C   UNL     1       5.229   3.247  12.327  0.00  0.00    +0.000 C 
ENDBRANCH  17  19
ENDBRANCH   7  17
ENDBRANCH   1   9
BRANCH   5  20
ATOM     20  C   UNL     1       2.661   5.637  18.241  0.00  0.00    +0.000 A 
ATOM     21  C   UNL     1       2.091   6.539  17.363  0.00  0.00    +0.000 A 
ATOM     22  S   UNL     1       2.035   8.098  18.076  0.00  0.00    +0.000 S 
ATOM     23  C   UNL     1       2.739   7.446  19.496  0.00  0.00    +0.000 A 
ATOM     24  N   UNL     1       3.069   6.172  19.447  0.00  0.00    +0.000 NA
ENDBRANCH   5  20
BRANCH   4  25
ATOM     25  C   UNL     1       1.067   3.166  19.473  0.00  0.00    +0.000 C 
ATOM     26  O   UNL     1      -0.016   2.627  19.273  0.00  0.00    +0.000 OA
BRANCH  25  27
ATOM     27  O   UNL     1       1.351   3.925  20.579  0.00  0.00    +0.000 OA
BRANCH  27  28
ATOM     28  C   UNL     1       2.259   3.345  21.519  0.00  0.00    +0.000 C 
ATOM     29  C   UNL     1       1.523   2.228  22.238  0.00  0.00    +0.000 C 
ENDBRANCH  27  28
ENDBRANCH  25  27
ENDBRANCH   4  25
TORSDOF 9
ENDMDL
