MODEL 1
REMARK VINA RESULT:      -6.1      0.000      0.000
REMARK  Name = 
REMARK  7 active torsions:
REMARK  status: ('A' for Active; 'I' for Inactive)
REMARK    1  A    between atoms: C_1  and  C_2
REMARK    2  A    between atoms: N_4  and  C_5
REMARK    3  A    between atoms: C_9  and  C_10
REMARK    4  A    between atoms: C_19  and  C_20
REMARK    5  A    between atoms: N_22  and  C_23
REMARK    6  A    between atoms: C_23  and  C_24
REMARK    7  A    between atoms: C_23  and  C_25
REMARK                            x       y       z     vdW  Elec       q    Type
REMARK                         _______ _______ _______ _____ _____    ______ ____
ROOT
ATOM      1  C   UNL     1      -4.110  12.076  18.667  0.00  0.00    +0.000 A 
ATOM      2  S   UNL     1      -5.666  11.764  19.276  0.00  0.00    +0.000 S 
ATOM      3  C   UNL     1      -5.229  12.293  20.813  0.00  0.00    +0.000 A 
ATOM      4  C   UNL     1      -3.867  12.543  20.954  0.00  0.00    +0.000 A 
ATOM      5  C   UNL     1      -3.185  12.384  19.663  0.00  0.00    +0.000 A 
ATOM      6  C   UNL     1      -3.378  13.065  22.310  0.00  0.00    +0.000 C 
ATOM      7  C   UNL     1      -2.209  12.310  22.945  0.00  0.00    +0.000 C 
ATOM      8  C   UNL     1      -4.542  13.025  23.372  0.00  0.00    +0.000 C 
ATOM      9  N   UNL     1      -5.886  13.432  22.900  0.00  0.00    +0.000 NA
ATOM     10  C   UNL     1      -6.289  12.457  21.865  0.00  0.00    +0.000 C 
ENDROOT
BRANCH   5  11
ATOM     11  C   UNL     1      -1.700  12.621  19.370  0.00  0.00    +0.000 A 
ATOM     12  N   UNL     1      -1.161  13.820  19.345  0.00  0.00    +0.000 NA
ATOM     13  C   UNL     1       0.211  13.760  19.104  0.00  0.00    +0.000 A 
ATOM     14  C   UNL     1       1.112  14.834  19.053  0.00  0.00    +0.000 A 
ATOM     15  N   UNL     1       2.428  14.633  18.786  0.00  0.00    +0.000 NA
ATOM     16  C   UNL     1       2.868  13.378  18.572  0.00  0.00    +0.000 A 
ATOM     17  C   UNL     1       2.066  12.252  18.613  0.00  0.00    +0.000 A 
ATOM     18  C   UNL     1       0.715  12.480  18.893  0.00  0.00    +0.000 A 
ATOM     19  S   UNL     1      -0.567  11.352  19.047  0.00  0.00    +0.000 S 
ENDBRANCH   5  11
BRANCH   1  23
ATOM     20  C   UNL     1      -3.390  10.653  15.305  0.00  0.00    +0.000 C 
ATOM     21  C   UNL     1      -3.557  10.649  16.798  0.00  0.00    +0.000 C 
ATOM     22  O   UNL     1      -3.351   9.629  17.449  0.00  0.00    +0.000 OA
ATOM     23  N   UNL     1      -3.973  11.883  17.298  0.00  0.00    +0.000 N 
ATOM     24  H   UNL     1      -4.583  12.419  16.691  0.00  0.00    +0.000 HD
ENDBRANCH   1  23
BRANCH   9  25
ATOM     25  C   UNL     1      -5.964  14.848  22.466  0.00  0.00    +0.000 C 
ATOM     26  C   UNL     1      -7.342  15.224  21.890  0.00  0.00    +0.000 C 
ATOM     27  C   UNL     1      -5.703  15.798  23.648  0.00  0.00    +0.000 C 
ENDBRANCH   9  25
TORSDOF 3
ENDMDL
MODEL 2
REMARK VINA RESULT:      -6.1      1.371      1.650
REMARK  Name = 
REMARK  7 active torsions:
REMARK  status: ('A' for Active; 'I' for Inactive)
REMARK    1  A    between atoms: C_1  and  C_2
REMARK    2  A    between atoms: N_4  and  C_5
REMARK    3  A    between atoms: C_9  and  C_10
REMARK    4  A    between atoms: C_19  and  C_20
REMARK    5  A    between atoms: N_22  and  C_23
REMARK    6  A    between atoms: C_23  and  C_24
REMARK    7  A    between atoms: C_23  and  C_25
REMARK                            x       y       z     vdW  Elec       q    Type
REMARK                         _______ _______ _______ _____ _____    ______ ____
ROOT
ATOM      1  C   UNL     1      -4.375  12.376  19.331  0.00  0.00    +0.000 A 
ATOM      2  S   UNL     1      -5.869  12.334  20.143  0.00  0.00    +0.000 S 
ATOM      3  C   UNL     1      -5.140  12.697  21.616  0.00  0.00    +0.000 A 
ATOM      4  C   UNL     1      -3.748  12.676  21.573  0.00  0.00    +0.000 A 
ATOM      5  C   UNL     1      -3.286  12.454  20.197  0.00  0.00    +0.000 A 
ATOM      6  C   UNL     1      -2.993  13.030  22.860  0.00  0.00    +0.000 C 
ATOM      7  C   UNL     1      -1.921  12.037  23.310  0.00  0.00    +0.000 C 
ATOM      8  C   UNL     1      -3.994  13.160  24.071  0.00  0.00    +0.000 C 
ATOM      9  N   UNL     1      -5.284  13.836  23.798  0.00  0.00    +0.000 NA
ATOM     10  C   UNL     1      -6.000  13.007  22.807  0.00  0.00    +0.000 C 
ENDROOT
BRANCH   5  11
ATOM     11  C   UNL     1      -1.834  12.419  19.708  0.00  0.00    +0.000 A 
ATOM     12  N   UNL     1      -1.196  11.299  19.447  0.00  0.00    +0.000 NA
ATOM     13  C   UNL     1       0.092  11.542  18.973  0.00  0.00    +0.000 A 
ATOM     14  C   UNL     1       1.036  10.591  18.556  0.00  0.00    +0.000 A 
ATOM     15  N   UNL     1       2.271  10.969  18.134  0.00  0.00    +0.000 NA
ATOM     16  C   UNL     1       2.584  12.279  18.115  0.00  0.00    +0.000 A 
ATOM     17  C   UNL     1       1.722  13.293  18.492  0.00  0.00    +0.000 A 
ATOM     18  C   UNL     1       0.456  12.884  18.919  0.00  0.00    +0.000 A 
ATOM     19  S   UNL     1      -0.875  13.834  19.438  0.00  0.00    +0.000 S 
ENDBRANCH   5  11
BRANCH   1  23
ATOM     20  C   UNL     1      -4.221  11.056  15.856  0.00  0.00    +0.000 C 
ATOM     21  C   UNL     1      -4.151  11.005  17.355  0.00  0.00    +0.000 C 
ATOM     22  O   UNL     1      -3.866   9.960  17.934  0.00  0.00    +0.000 OA
ATOM     23  N   UNL     1      -4.459  12.227  17.953  0.00  0.00    +0.000 N 
ATOM     24  H   UNL     1      -5.146  12.792  17.467  0.00  0.00    +0.000 HD
ENDBRANCH   1  23
BRANCH   9  25
ATOM     25  C   UNL     1      -5.142  15.261  23.411  0.00  0.00    +0.000 C 
ATOM     26  C   UNL     1      -6.495  15.954  23.165  0.00  0.00    +0.000 C 
ATOM     27  C   UNL     1      -4.428  16.060  24.516  0.00  0.00    +0.000 C 
ENDBRANCH   9  25
TORSDOF 3
ENDMDL
MODEL 3
REMARK VINA RESULT:      -5.8      2.459      6.648
REMARK  Name = 
REMARK  7 active torsions:
REMARK  status: ('A' for Active; 'I' for Inactive)
REMARK    1  A    between atoms: C_1  and  C_2
REMARK    2  A    between atoms: N_4  and  C_5
REMARK    3  A    between atoms: C_9  and  C_10
REMARK    4  A    between atoms: C_19  and  C_20
REMARK    5  A    between atoms: N_22  and  C_23
REMARK    6  A    between atoms: C_23  and  C_24
REMARK    7  A    between atoms: C_23  and  C_25
REMARK                            x       y       z     vdW  Elec       q    Type
REMARK                         _______ _______ _______ _____ _____    ______ ____
ROOT
ATOM      1  C   UNL     1      -3.555  12.295  19.125  0.00  0.00    +0.000 A 
ATOM      2  S   UNL     1      -2.116  11.847  18.339  0.00  0.00    +0.000 S 
ATOM      3  C   UNL     1      -1.277  11.779  19.797  0.00  0.00    +0.000 A 
ATOM      4  C   UNL     1      -2.000  12.265  20.882  0.00  0.00    +0.000 A 
ATOM      5  C   UNL     1      -3.369  12.604  20.471  0.00  0.00    +0.000 A 
ATOM      6  C   UNL     1      -1.333  12.210  22.262  0.00  0.00    +0.000 C 
ATOM      7  C   UNL     1      -1.321  13.514  23.061  0.00  0.00    +0.000 C 
ATOM      8  C   UNL     1       0.177  11.775  22.129  0.00  0.00    +0.000 C 
ATOM      9  N   UNL     1       0.475  10.699  21.155  0.00  0.00    +0.000 NA
ATOM     10  C   UNL     1       0.117  11.221  19.820  0.00  0.00    +0.000 C 
ENDROOT
BRANCH   5  11
ATOM     11  C   UNL     1      -4.500  13.116  21.368  0.00  0.00    +0.000 A 
ATOM     12  N   UNL     1      -5.153  12.338  22.205  0.00  0.00    +0.000 NA
ATOM     13  C   UNL     1      -6.100  13.054  22.937  0.00  0.00    +0.000 A 
ATOM     14  C   UNL     1      -6.943  12.562  23.944  0.00  0.00    +0.000 A 
ATOM     15  N   UNL     1      -7.839  13.372  24.566  0.00  0.00    +0.000 NA
ATOM     16  C   UNL     1      -7.910  14.669  24.203  0.00  0.00    +0.000 A 
ATOM     17  C   UNL     1      -7.116  15.253  23.233  0.00  0.00    +0.000 A 
ATOM     18  C   UNL     1      -6.198  14.404  22.610  0.00  0.00    +0.000 A 
ATOM     19  S   UNL     1      -5.044  14.759  21.392  0.00  0.00    +0.000 S 
ENDBRANCH   5  11
BRANCH   1  23
ATOM     20  C   UNL     1      -6.824  11.712  17.446  0.00  0.00    +0.000 C 
ATOM     21  C   UNL     1      -5.754  11.527  18.483  0.00  0.00    +0.000 C 
ATOM     22  O   UNL     1      -5.891  10.707  19.387  0.00  0.00    +0.000 OA
ATOM     23  N   UNL     1      -4.667  12.381  18.296  0.00  0.00    +0.000 N 
ATOM     24  H   UNL     1      -4.885  13.291  17.907  0.00  0.00    +0.000 HD
ENDBRANCH   1  23
BRANCH   9  25
ATOM     25  C   UNL     1      -0.153   9.398  21.490  0.00  0.00    +0.000 C 
ATOM     26  C   UNL     1       0.736   8.192  21.132  0.00  0.00    +0.000 C 
ATOM     27  C   UNL     1      -0.446   9.303  22.997  0.00  0.00    +0.000 C 
ENDBRANCH   9  25
TORSDOF 3
ENDMDL
MODEL 4
REMARK VINA RESULT:      -5.6      2.930      7.137
REMARK  Name = 
REMARK  7 active torsions:
REMARK  status: ('A' for Active; 'I' for Inactive)
REMARK    1  A    between atoms: C_1  and  C_2
REMARK    2  A    between atoms: N_4  and  C_5
REMARK    3  A    between atoms: C_9  and  C_10
REMARK    4  A    between atoms: C_19  and  C_20
REMARK    5  A    between atoms: N_22  and  C_23
REMARK    6  A    between atoms: C_23  and  C_24
REMARK    7  A    between atoms: C_23  and  C_25
REMARK                            x       y       z     vdW  Elec       q    Type
REMARK                         _______ _______ _______ _____ _____    ______ ____
ROOT
ATOM      1  C   UNL     1       0.194  11.600  19.949  0.00  0.00    +0.000 A 
ATOM      2  S   UNL     1       1.429  11.893  18.817  0.00  0.00    +0.000 S 
ATOM      3  C   UNL     1       1.325  13.556  19.053  0.00  0.00    +0.000 A 
ATOM      4  C   UNL     1       0.246  13.944  19.843  0.00  0.00    +0.000 A 
ATOM      5  C   UNL     1      -0.455  12.762  20.361  0.00  0.00    +0.000 A 
ATOM      6  C   UNL     1       0.089  15.439  20.145  0.00  0.00    +0.000 C 
ATOM      7  C   UNL     1      -1.285  16.047  19.859  0.00  0.00    +0.000 C 
ATOM      8  C   UNL     1       1.116  16.286  19.301  0.00  0.00    +0.000 C 
ATOM      9  N   UNL     1       2.483  15.730  19.166  0.00  0.00    +0.000 NA
ATOM     10  C   UNL     1       2.356  14.455  18.432  0.00  0.00    +0.000 C 
ENDROOT
BRANCH   5  11
ATOM     11  C   UNL     1      -1.657  12.748  21.312  0.00  0.00    +0.000 A 
ATOM     12  N   UNL     1      -2.900  12.834  20.891  0.00  0.00    +0.000 NA
ATOM     13  C   UNL     1      -3.805  12.750  21.948  0.00  0.00    +0.000 A 
ATOM     14  C   UNL     1      -5.206  12.762  21.869  0.00  0.00    +0.000 A 
ATOM     15  N   UNL     1      -5.972  12.693  22.988  0.00  0.00    +0.000 NA
ATOM     16  C   UNL     1      -5.368  12.610  24.190  0.00  0.00    +0.000 A 
ATOM     17  C   UNL     1      -3.998  12.578  24.375  0.00  0.00    +0.000 A 
ATOM     18  C   UNL     1      -3.228  12.645  23.210  0.00  0.00    +0.000 A 
ATOM     19  S   UNL     1      -1.522  12.611  23.032  0.00  0.00    +0.000 S 
ENDBRANCH   5  11
BRANCH   1  23
ATOM     20  C   UNL     1       0.198   8.186  21.427  0.00  0.00    +0.000 C 
ATOM     21  C   UNL     1       0.495   9.655  21.350  0.00  0.00    +0.000 C 
ATOM     22  O   UNL     1       1.135  10.213  22.237  0.00  0.00    +0.000 OA
ATOM     23  N   UNL     1      -0.044  10.257  20.213  0.00  0.00    +0.000 N 
ATOM     24  H   UNL     1      -0.922   9.870  19.886  0.00  0.00    +0.000 HD
ENDBRANCH   1  23
BRANCH   9  25
ATOM     25  C   UNL     1       3.214  15.623  20.453  0.00  0.00    +0.000 C 
ATOM     26  C   UNL     1       4.638  15.058  20.289  0.00  0.00    +0.000 C 
ATOM     27  C   UNL     1       3.358  17.003  21.117  0.00  0.00    +0.000 C 
ENDBRANCH   9  25
TORSDOF 3
ENDMDL
MODEL 5
REMARK VINA RESULT:      -5.5      2.762      4.633
REMARK  Name = 
REMARK  7 active torsions:
REMARK  status: ('A' for Active; 'I' for Inactive)
REMARK    1  A    between atoms: C_1  and  C_2
REMARK    2  A    between atoms: N_4  and  C_5
REMARK    3  A    between atoms: C_9  and  C_10
REMARK    4  A    between atoms: C_19  and  C_20
REMARK    5  A    between atoms: N_22  and  C_23
REMARK    6  A    between atoms: C_23  and  C_24
REMARK    7  A    between atoms: C_23  and  C_25
REMARK                            x       y       z     vdW  Elec       q    Type
REMARK                         _______ _______ _______ _____ _____    ______ ____
ROOT
ATOM      1  C   UNL     1      -3.241  13.688  20.856  0.00  0.00    +0.000 A 
ATOM      2  S   UNL     1      -4.857  14.179  21.048  0.00  0.00    +0.000 S 
ATOM      3  C   UNL     1      -5.392  13.044  19.926  0.00  0.00    +0.000 A 
ATOM      4  C   UNL     1      -4.363  12.398  19.247  0.00  0.00    +0.000 A 
ATOM      5  C   UNL     1      -3.061  12.808  19.789  0.00  0.00    +0.000 A 
ATOM      6  C   UNL     1      -4.752  11.318  18.230  0.00  0.00    +0.000 C 
ATOM      7  C   UNL     1      -4.138  11.451  16.836  0.00  0.00    +0.000 C 
ATOM      8  C   UNL     1      -6.313  11.300  18.012  0.00  0.00    +0.000 C 
ATOM      9  N   UNL     1      -7.155  11.471  19.219  0.00  0.00    +0.000 NA
ATOM     10  C   UNL     1      -6.867  12.818  19.753  0.00  0.00    +0.000 C 
ENDROOT
BRANCH   5  11
ATOM     11  C   UNL     1      -1.683  12.292  19.364  0.00  0.00    +0.000 A 
ATOM     12  N   UNL     1      -1.399  11.011  19.269  0.00  0.00    +0.000 NA
ATOM     13  C   UNL     1      -0.096  10.806  18.819  0.00  0.00    +0.000 A 
ATOM     14  C   UNL     1       0.530   9.578  18.560  0.00  0.00    +0.000 A 
ATOM     15  N   UNL     1       1.821   9.523  18.142  0.00  0.00    +0.000 NA
ATOM     16  C   UNL     1       2.503  10.673  17.973  0.00  0.00    +0.000 A 
ATOM     17  C   UNL     1       1.975  11.933  18.187  0.00  0.00    +0.000 A 
ATOM     18  C   UNL     1       0.644  11.968  18.613  0.00  0.00    +0.000 A 
ATOM     19  S   UNL     1      -0.351  13.321  18.958  0.00  0.00    +0.000 S 
ENDBRANCH   5  11
BRANCH   1  23
ATOM     20  C   UNL     1      -1.118  14.586  23.776  0.00  0.00    +0.000 C 
ATOM     21  C   UNL     1      -2.048  13.740  22.955  0.00  0.00    +0.000 C 
ATOM     22  O   UNL     1      -2.457  12.663  23.382  0.00  0.00    +0.000 OA
ATOM     23  N   UNL     1      -2.340  14.305  21.714  0.00  0.00    +0.000 N 
ATOM     24  H   UNL     1      -1.594  14.846  21.292  0.00  0.00    +0.000 HD
ENDBRANCH   1  23
BRANCH   9  25
ATOM     25  C   UNL     1      -7.007  10.377  20.211  0.00  0.00    +0.000 C 
ATOM     26  C   UNL     1      -7.914  10.558  21.443  0.00  0.00    +0.000 C 
ATOM     27  C   UNL     1      -7.371   9.019  19.587  0.00  0.00    +0.000 C 
ENDBRANCH   9  25
TORSDOF 3
ENDMDL
MODEL 6
REMARK VINA RESULT:      -5.5      3.106      4.393
REMARK  Name = 
REMARK  7 active torsions:
REMARK  status: ('A' for Active; 'I' for Inactive)
REMARK    1  A    between atoms: C_1  and  C_2
REMARK    2  A    between atoms: N_4  and  C_5
REMARK    3  A    between atoms: C_9  and  C_10
REMARK    4  A    between atoms: C_19  and  C_20
REMARK    5  A    between atoms: N_22  and  C_23
REMARK    6  A    between atoms: C_23  and  C_24
REMARK    7  A    between atoms: C_23  and  C_25
REMARK                            x       y       z     vdW  Elec       q    Type
REMARK                         _______ _______ _______ _____ _____    ______ ____
ROOT
ATOM      1  C   UNL     1      -5.366  14.981  20.488  0.00  0.00    +0.000 A 
ATOM      2  S   UNL     1      -6.083  15.936  21.698  0.00  0.00    +0.000 S 
ATOM      3  C   UNL     1      -5.020  15.350  22.865  0.00  0.00    +0.000 A 
ATOM      4  C   UNL     1      -4.228  14.295  22.422  0.00  0.00    +0.000 A 
ATOM      5  C   UNL     1      -4.457  14.052  20.992  0.00  0.00    +0.000 A 
ATOM      6  C   UNL     1      -3.201  13.718  23.405  0.00  0.00    +0.000 C 
ATOM      7  C   UNL     1      -3.229  12.202  23.599  0.00  0.00    +0.000 C 
ATOM      8  C   UNL     1      -3.400  14.338  24.840  0.00  0.00    +0.000 C 
ATOM      9  N   UNL     1      -3.702  15.787  24.903  0.00  0.00    +0.000 NA
ATOM     10  C   UNL     1      -5.002  15.982  24.228  0.00  0.00    +0.000 C 
ENDROOT
BRANCH   5  11
ATOM     11  C   UNL     1      -3.747  13.023  20.107  0.00  0.00    +0.000 A 
ATOM     12  N   UNL     1      -4.393  12.209  19.301  0.00  0.00    +0.000 NA
ATOM     13  C   UNL     1      -3.516  11.406  18.573  0.00  0.00    +0.000 A 
ATOM     14  C   UNL     1      -3.848  10.458  17.594  0.00  0.00    +0.000 A 
ATOM     15  N   UNL     1      -2.886   9.725  16.974  0.00  0.00    +0.000 NA
ATOM     16  C   UNL     1      -1.596   9.920  17.310  0.00  0.00    +0.000 A 
ATOM     17  C   UNL     1      -1.165  10.837  18.251  0.00  0.00    +0.000 A 
ATOM     18  C   UNL     1      -2.168  11.585  18.874  0.00  0.00    +0.000 A 
ATOM     19  S   UNL     1      -2.029  12.815  20.060  0.00  0.00    +0.000 S 
ENDBRANCH   5  11
BRANCH   1  23
ATOM     20  C   UNL     1      -7.306  14.789  17.319  0.00  0.00    +0.000 C 
ATOM     21  C   UNL     1      -6.965  14.480  18.748  0.00  0.00    +0.000 C 
ATOM     22  O   UNL     1      -7.639  13.683  19.395  0.00  0.00    +0.000 OA
ATOM     23  N   UNL     1      -5.861  15.197  19.208  0.00  0.00    +0.000 N 
ATOM     24  H   UNL     1      -5.749  16.126  18.819  0.00  0.00    +0.000 HD
ENDBRANCH   1  23
BRANCH   9  25
ATOM     25  C   UNL     1      -2.611  16.648  24.385  0.00  0.00    +0.000 C 
ATOM     26  C   UNL     1      -2.950  18.150  24.449  0.00  0.00    +0.000 C 
ATOM     27  C   UNL     1      -1.322  16.449  25.201  0.00  0.00    +0.000 C 
ENDBRANCH   9  25
TORSDOF 3
ENDMDL
MODEL 7
REMARK VINA RESULT:      -5.5      8.683     12.681
REMARK  Name = 
REMARK  7 active torsions:
REMARK  status: ('A' for Active; 'I' for Inactive)
REMARK    1  A    between atoms: C_1  and  C_2
REMARK    2  A    between atoms: N_4  and  C_5
REMARK    3  A    between atoms: C_9  and  C_10
REMARK    4  A    between atoms: C_19  and  C_20
REMARK    5  A    between atoms: N_22  and  C_23
REMARK    6  A    between atoms: C_23  and  C_24
REMARK    7  A    between atoms: C_23  and  C_25
REMARK                            x       y       z     vdW  Elec       q    Type
REMARK                         _______ _______ _______ _____ _____    ______ ____
ROOT
ATOM      1  C   UNL     1       6.794  15.194  19.257  0.00  0.00    +0.000 A 
ATOM      2  S   UNL     1       7.730  15.198  17.837  0.00  0.00    +0.000 S 
ATOM      3  C   UNL     1       9.149  14.948  18.708  0.00  0.00    +0.000 A 
ATOM      4  C   UNL     1       8.983  15.038  20.087  0.00  0.00    +0.000 A 
ATOM      5  C   UNL     1       7.564  15.215  20.419  0.00  0.00    +0.000 A 
ATOM      6  C   UNL     1      10.214  14.788  20.967  0.00  0.00    +0.000 C 
ATOM      7  C   UNL     1      10.524  15.856  22.017  0.00  0.00    +0.000 C 
ATOM      8  C   UNL     1      11.513  14.667  20.082  0.00  0.00    +0.000 C 
ATOM      9  N   UNL     1      11.384  13.912  18.813  0.00  0.00    +0.000 NA
ATOM     10  C   UNL     1      10.423  14.653  17.970  0.00  0.00    +0.000 C 
ENDROOT
BRANCH   5  11
ATOM     11  C   UNL     1       6.948  15.301  21.819  0.00  0.00    +0.000 A 
ATOM     12  N   UNL     1       6.574  14.239  22.499  0.00  0.00    +0.000 NA
ATOM     13  C   UNL     1       6.091  14.583  23.761  0.00  0.00    +0.000 A 
ATOM     14  C   UNL     1       5.648  13.711  24.767  0.00  0.00    +0.000 A 
ATOM     15  N   UNL     1       5.180  14.187  25.950  0.00  0.00    +0.000 NA
ATOM     16  C   UNL     1       5.147  15.519  26.153  0.00  0.00    +0.000 A 
ATOM     17  C   UNL     1       5.572  16.459  25.233  0.00  0.00    +0.000 A 
ATOM     18  C   UNL     1       6.054  15.950  24.024  0.00  0.00    +0.000 A 
ATOM     19  S   UNL     1       6.681  16.787  22.665  0.00  0.00    +0.000 S 
ENDBRANCH   5  11
BRANCH   1  23
ATOM     20  C   UNL     1       3.296  16.391  18.840  0.00  0.00    +0.000 C 
ATOM     21  C   UNL     1       4.785  16.509  18.992  0.00  0.00    +0.000 C 
ATOM     22  O   UNL     1       5.325  17.611  19.035  0.00  0.00    +0.000 OA
ATOM     23  N   UNL     1       5.423  15.270  19.048  0.00  0.00    +0.000 N 
ATOM     24  H   UNL     1       4.996  14.532  18.500  0.00  0.00    +0.000 HD
ENDBRANCH   1  23
BRANCH   9  25
ATOM     25  C   UNL     1      11.051  12.479  19.002  0.00  0.00    +0.000 C 
ATOM     26  C   UNL     1      10.826  11.735  17.671  0.00  0.00    +0.000 C 
ATOM     27  C   UNL     1      12.187  11.744  19.735  0.00  0.00    +0.000 C 
ENDBRANCH   9  25
TORSDOF 3
ENDMDL
MODEL 8
REMARK VINA RESULT:      -5.5      3.078      4.791
REMARK  Name = 
REMARK  7 active torsions:
REMARK  status: ('A' for Active; 'I' for Inactive)
REMARK    1  A    between atoms: C_1  and  C_2
REMARK    2  A    between atoms: N_4  and  C_5
REMARK    3  A    between atoms: C_9  and  C_10
REMARK    4  A    between atoms: C_19  and  C_20
REMARK    5  A    between atoms: N_22  and  C_23
REMARK    6  A    between atoms: C_23  and  C_24
REMARK    7  A    between atoms: C_23  and  C_25
REMARK                            x       y       z     vdW  Elec       q    Type
REMARK                         _______ _______ _______ _____ _____    ______ ____
ROOT
ATOM      1  C   UNL     1      -2.265  13.069  20.721  0.00  0.00    +0.000 A 
ATOM      2  S   UNL     1      -3.655  14.045  20.796  0.00  0.00    +0.000 S 
ATOM      3  C   UNL     1      -4.511  12.995  19.796  0.00  0.00    +0.000 A 
ATOM      4  C   UNL     1      -3.727  11.991  19.236  0.00  0.00    +0.000 A 
ATOM      5  C   UNL     1      -2.362  12.052  19.772  0.00  0.00    +0.000 A 
ATOM      6  C   UNL     1      -4.427  10.962  18.338  0.00  0.00    +0.000 C 
ATOM      7  C   UNL     1      -3.804  10.732  16.961  0.00  0.00    +0.000 C 
ATOM      8  C   UNL     1      -5.920  11.389  18.068  0.00  0.00    +0.000 C 
ATOM      9  N   UNL     1      -6.669  11.952  19.215  0.00  0.00    +0.000 NA
ATOM     10  C   UNL     1      -5.985  13.204  19.598  0.00  0.00    +0.000 C 
ENDROOT
BRANCH   5  11
ATOM     11  C   UNL     1      -1.205  11.097  19.461  0.00  0.00    +0.000 A 
ATOM     12  N   UNL     1      -0.595  10.391  20.387  0.00  0.00    +0.000 NA
ATOM     13  C   UNL     1       0.387   9.566  19.839  0.00  0.00    +0.000 A 
ATOM     14  C   UNL     1       1.203   8.650  20.519  0.00  0.00    +0.000 A 
ATOM     15  N   UNL     1       2.140   7.921  19.859  0.00  0.00    +0.000 NA
ATOM     16  C   UNL     1       2.279   8.086  18.528  0.00  0.00    +0.000 A 
ATOM     17  C   UNL     1       1.518   8.952  17.765  0.00  0.00    +0.000 A 
ATOM     18  C   UNL     1       0.556   9.689  18.463  0.00  0.00    +0.000 A 
ATOM     19  S   UNL     1      -0.577  10.832  17.870  0.00  0.00    +0.000 S 
ENDBRANCH   5  11
BRANCH   1  23
ATOM     20  C   UNL     1       0.857  14.615  22.028  0.00  0.00    +0.000 C 
ATOM     21  C   UNL     1      -0.233  14.337  21.033  0.00  0.00    +0.000 C 
ATOM     22  O   UNL     1      -0.210  14.851  19.918  0.00  0.00    +0.000 OA
ATOM     23  N   UNL     1      -1.218  13.487  21.533  0.00  0.00    +0.000 N 
ATOM     24  H   UNL     1      -1.407  13.570  22.526  0.00  0.00    +0.000 HD
ENDBRANCH   1  23
BRANCH   9  25
ATOM     25  C   UNL     1      -6.859  10.995  20.333  0.00  0.00    +0.000 C 
ATOM     26  C   UNL     1      -7.884  11.483  21.373  0.00  0.00    +0.000 C 
ATOM     27  C   UNL     1      -7.366   9.639  19.812  0.00  0.00    +0.000 C 
ENDBRANCH   9  25
TORSDOF 3
ENDMDL
MODEL 9
REMARK VINA RESULT:      -5.4      3.429      4.288
REMARK  Name = 
REMARK  7 active torsions:
REMARK  status: ('A' for Active; 'I' for Inactive)
REMARK    1  A    between atoms: C_1  and  C_2
REMARK    2  A    between atoms: N_4  and  C_5
REMARK    3  A    between atoms: C_9  and  C_10
REMARK    4  A    between atoms: C_19  and  C_20
REMARK    5  A    between atoms: N_22  and  C_23
REMARK    6  A    between atoms: C_23  and  C_24
REMARK    7  A    between atoms: C_23  and  C_25
REMARK                            x       y       z     vdW  Elec       q    Type
REMARK                         _______ _______ _______ _____ _____    ______ ____
ROOT
ATOM      1  C   UNL     1      -1.886  11.446  18.596  0.00  0.00    +0.000 A 
ATOM      2  S   UNL     1      -3.104  12.486  19.169  0.00  0.00    +0.000 S 
ATOM      3  C   UNL     1      -2.382  12.583  20.687  0.00  0.00    +0.000 A 
ATOM      4  C   UNL     1      -1.320  11.700  20.860  0.00  0.00    +0.000 A 
ATOM      5  C   UNL     1      -1.037  10.992  19.604  0.00  0.00    +0.000 A 
ATOM      6  C   UNL     1      -0.574  11.741  22.200  0.00  0.00    +0.000 C 
ATOM      7  C   UNL     1      -0.399  10.402  22.917  0.00  0.00    +0.000 C 
ATOM      8  C   UNL     1      -1.323  12.680  23.221  0.00  0.00    +0.000 C 
ATOM      9  N   UNL     1      -1.876  13.943  22.680  0.00  0.00    +0.000 NA
ATOM     10  C   UNL     1      -2.907  13.570  21.690  0.00  0.00    +0.000 C 
ENDROOT
BRANCH   5  11
ATOM     11  C   UNL     1       0.084   9.980  19.350  0.00  0.00    +0.000 A 
ATOM     12  N   UNL     1       0.371   9.008  20.189  0.00  0.00    +0.000 NA
ATOM     13  C   UNL     1       1.398   8.199  19.704  0.00  0.00    +0.000 A 
ATOM     14  C   UNL     1       1.931   7.051  20.308  0.00  0.00    +0.000 A 
ATOM     15  N   UNL     1       2.952   6.365  19.731  0.00  0.00    +0.000 NA
ATOM     16  C   UNL     1       3.452   6.801  18.558  0.00  0.00    +0.000 A 
ATOM     17  C   UNL     1       2.989   7.911  17.876  0.00  0.00    +0.000 A 
ATOM     18  C   UNL     1       1.935   8.600  18.484  0.00  0.00    +0.000 A 
ATOM     19  S   UNL     1       1.091   9.991  17.942  0.00  0.00    +0.000 S 
ENDBRANCH   5  11
BRANCH   1  23
ATOM     20  C   UNL     1      -2.656   9.807  15.347  0.00  0.00    +0.000 C 
ATOM     21  C   UNL     1      -2.738  10.039  16.828  0.00  0.00    +0.000 C 
ATOM     22  O   UNL     1      -3.435   9.319  17.538  0.00  0.00    +0.000 OA
ATOM     23  N   UNL     1      -1.979  11.132  17.247  0.00  0.00    +0.000 N 
ATOM     24  H   UNL     1      -1.911  11.898  16.587  0.00  0.00    +0.000 HD
ENDBRANCH   1  23
BRANCH   9  25
ATOM     25  C   UNL     1      -0.843  14.875  22.163  0.00  0.00    +0.000 C 
ATOM     26  C   UNL     1      -1.404  15.890  21.150  0.00  0.00    +0.000 C 
ATOM     27  C   UNL     1      -0.217  15.689  23.308  0.00  0.00    +0.000 C 
ENDBRANCH   9  25
TORSDOF 3
ENDMDL
