MODEL 1
REMARK VINA RESULT:      -7.5      0.000      0.000
REMARK  Name = 
REMARK  15 active torsions:
REMARK  status: ('A' for Active; 'I' for Inactive)
REMARK    1  A    between atoms: C_1  and  C_2
REMARK    2  A    between atoms: C_2  and  C_3
REMARK    3  A    between atoms: C_3  and  N_4
REMARK    4  A    between atoms: N_4  and  C_5
REMARK    5  A    between atoms: C_5  and  C_6
REMARK    6  A    between atoms: C_6  and  O_8
REMARK    7  A    between atoms: C_9  and  C_11
REMARK    8  A    between atoms: C_11  and  C_12
REMARK    9  A    between atoms: C_11  and  C_13
REMARK   10  A    between atoms: C_11  and  C_14
REMARK   11  A    between atoms: C_14  and  C_15
REMARK   12  A    between atoms: C_18  and  C_19
REMARK   13  A    between atoms: C_19  and  O_21
REMARK   14  A    between atoms: O_21  and  C_22
REMARK   15  A    between atoms: C_25  and  C_26
REMARK                            x       y       z     vdW  Elec       q    Type
REMARK                         _______ _______ _______ _____ _____    ______ ____
ROOT
ATOM      1  C   UNL     1       2.829   6.802  19.289  0.00  0.00    +0.000 A 
ATOM      2  C   UNL     1       2.956   7.365  18.037  0.00  0.00    +0.000 A 
ATOM      3  C   UNL     1       2.111   8.492  17.862  0.00  0.00    +0.000 A 
ATOM      4  C   UNL     1       1.410   8.812  19.012  0.00  0.00    +0.000 A 
ATOM      5  S   UNL     1       1.864   7.792  20.308  0.00  0.00    +0.000 S 
ENDROOT
BRANCH   4   6
ATOM      6  C   UNL     1       0.454   9.888  19.220  0.00  0.00    +0.000 C 
ATOM      7  O   UNL     1      -0.643  10.022  18.691  0.00  0.00    +0.000 OA
BRANCH   6   8
ATOM      8  O   UNL     1       0.991  10.780  20.144  0.00  0.00    +0.000 OA
BRANCH   8   9
ATOM      9  C   UNL     1       0.063  11.314  21.044  0.00  0.00    +0.000 A 
ATOM     10  C   UNL     1      -0.230  10.569  22.185  0.00  0.00    +0.000 A 
ATOM     11  C   UNL     1      -1.242  11.010  23.047  0.00  0.00    +0.000 A 
ATOM     12  C   UNL     1      -1.955  12.183  22.752  0.00  0.00    +0.000 A 
ATOM     13  C   UNL     1      -1.664  12.912  21.599  0.00  0.00    +0.000 A 
ATOM     14  C   UNL     1      -0.663  12.466  20.747  0.00  0.00    +0.000 A 
ATOM     15  F   UNL     1      -0.450  13.135  19.603  0.00  0.00    +0.000 F 
BRANCH  12  16
ATOM     16  C   UNL     1      -3.040  12.676  23.642  0.00  0.00    +0.000 C 
ATOM     17  N   UNL     1      -4.073  11.963  23.961  0.00  0.00    +0.000 NA
ATOM     18  N   UNL     1      -2.977  13.935  24.160  0.00  0.00    +0.000 N 
ATOM     19  H   UNL     1      -4.071  11.056  23.490  0.00  0.00    +0.000 HD
ATOM     20  H   UNL     1      -2.056  14.294  24.394  0.00  0.00    +0.000 HD
ATOM     21  H   UNL     1      -3.653  14.066  24.906  0.00  0.00    +0.000 HD
ENDBRANCH  12  16
ENDBRANCH   8   9
ENDBRANCH   6   8
ENDBRANCH   4   6
BRANCH   1  22
ATOM     22  C   UNL     1       3.466   5.528  19.790  0.00  0.00    +0.000 C 
BRANCH  22  23
ATOM     23  C   UNL     1       2.876   4.195  19.187  0.00  0.00    +0.000 C 
ATOM     24  C   UNL     1       1.343   4.288  19.265  0.00  0.00    +0.000 C 
ATOM     25  C   UNL     1       3.373   3.076  20.124  0.00  0.00    +0.000 C 
BRANCH  23  27
ATOM     26  N   UNL     1       4.815   4.079  17.436  0.00  0.00    +0.000 N 
ATOM     27  C   UNL     1       3.453   3.964  17.743  0.00  0.00    +0.000 C 
ATOM     28  O   UNL     1       2.661   3.736  16.818  0.00  0.00    +0.000 OA
BRANCH  26  29
ATOM     29  C   UNL     1       5.217   3.720  16.065  0.00  0.00    +0.000 C 
BRANCH  29  31
ATOM     30  C   UNL     1       6.783   4.848  14.378  0.00  0.00    +0.000 C 
ATOM     31  C   UNL     1       5.473   4.918  15.142  0.00  0.00    +0.000 C 
ENDBRANCH  29  31
ENDBRANCH  26  29
BRANCH  26  32
ATOM     32  C   UNL     1       5.843   4.538  18.374  0.00  0.00    +0.000 C 
BRANCH  32  33
ATOM     33  C   UNL     1       7.247   5.075  18.065  0.00  0.00    +0.000 C 
ATOM     34  O   UNL     1       7.576   6.238  17.907  0.00  0.00    +0.000 OA
BRANCH  33  35
ATOM     35  O   UNL     1       8.147   4.052  17.942  0.00  0.00    +0.000 OA
ATOM     36  H   UNL     1       8.086   3.356  18.624  0.00  0.00    +0.000 HD
ENDBRANCH  33  35
ENDBRANCH  32  33
ENDBRANCH  26  32
ENDBRANCH  23  27
ENDBRANCH  22  23
ENDBRANCH   1  22
TORSDOF 12
ENDMDL
MODEL 2
REMARK VINA RESULT:      -7.3      2.582      3.435
REMARK  Name = 
REMARK  15 active torsions:
REMARK  status: ('A' for Active; 'I' for Inactive)
REMARK    1  A    between atoms: C_1  and  C_2
REMARK    2  A    between atoms: C_2  and  C_3
REMARK    3  A    between atoms: C_3  and  N_4
REMARK    4  A    between atoms: N_4  and  C_5
REMARK    5  A    between atoms: C_5  and  C_6
REMARK    6  A    between atoms: C_6  and  O_8
REMARK    7  A    between atoms: C_9  and  C_11
REMARK    8  A    between atoms: C_11  and  C_12
REMARK    9  A    between atoms: C_11  and  C_13
REMARK   10  A    between atoms: C_11  and  C_14
REMARK   11  A    between atoms: C_14  and  C_15
REMARK   12  A    between atoms: C_18  and  C_19
REMARK   13  A    between atoms: C_19  and  O_21
REMARK   14  A    between atoms: O_21  and  C_22
REMARK   15  A    between atoms: C_25  and  C_26
REMARK                            x       y       z     vdW  Elec       q    Type
REMARK                         _______ _______ _______ _____ _____    ______ ____
ROOT
ATOM      1  C   UNL     1       2.734   6.315  18.128  0.00  0.00    +0.000 A 
ATOM      2  C   UNL     1       3.163   7.438  17.452  0.00  0.00    +0.000 A 
ATOM      3  C   UNL     1       2.637   8.635  18.002  0.00  0.00    +0.000 A 
ATOM      4  C   UNL     1       1.876   8.407  19.136  0.00  0.00    +0.000 A 
ATOM      5  S   UNL     1       1.894   6.750  19.561  0.00  0.00    +0.000 S 
ENDROOT
BRANCH   4   6
ATOM      6  C   UNL     1       1.176   9.374  19.967  0.00  0.00    +0.000 C 
ATOM      7  O   UNL     1       0.766   9.217  21.110  0.00  0.00    +0.000 OA
BRANCH   6   8
ATOM      8  O   UNL     1       1.033  10.554  19.240  0.00  0.00    +0.000 OA
BRANCH   8   9
ATOM      9  C   UNL     1      -0.293  10.924  18.990  0.00  0.00    +0.000 A 
ATOM     10  C   UNL     1      -0.887  11.825  19.873  0.00  0.00    +0.000 A 
ATOM     11  C   UNL     1      -2.247  12.126  19.727  0.00  0.00    +0.000 A 
ATOM     12  C   UNL     1      -2.997  11.515  18.709  0.00  0.00    +0.000 A 
ATOM     13  C   UNL     1      -2.396  10.604  17.842  0.00  0.00    +0.000 A 
ATOM     14  C   UNL     1      -1.048  10.306  17.996  0.00  0.00    +0.000 A 
ATOM     15  F   UNL     1      -0.505   9.368  17.204  0.00  0.00    +0.000 F 
BRANCH  12  16
ATOM     16  C   UNL     1      -4.445  11.808  18.531  0.00  0.00    +0.000 C 
ATOM     17  N   UNL     1      -4.979  12.948  18.834  0.00  0.00    +0.000 NA
ATOM     18  N   UNL     1      -5.277  10.850  18.034  0.00  0.00    +0.000 N 
ATOM     19  H   UNL     1      -4.300  13.590  19.249  0.00  0.00    +0.000 HD
ATOM     20  H   UNL     1      -4.894  10.223  17.333  0.00  0.00    +0.000 HD
ATOM     21  H   UNL     1      -6.176  11.240  17.766  0.00  0.00    +0.000 HD
ENDBRANCH  12  16
ENDBRANCH   8   9
ENDBRANCH   6   8
ENDBRANCH   4   6
BRANCH   1  22
ATOM     22  C   UNL     1       2.981   4.872  17.757  0.00  0.00    +0.000 C 
BRANCH  22  23
ATOM     23  C   UNL     1       3.999   4.101  18.683  0.00  0.00    +0.000 C 
ATOM     24  C   UNL     1       4.100   2.658  18.162  0.00  0.00    +0.000 C 
ATOM     25  C   UNL     1       3.349   4.101  20.081  0.00  0.00    +0.000 C 
BRANCH  23  27
ATOM     26  N   UNL     1       6.224   4.998  17.641  0.00  0.00    +0.000 N 
ATOM     27  C   UNL     1       5.362   4.883  18.739  0.00  0.00    +0.000 C 
ATOM     28  O   UNL     1       5.726   5.361  19.822  0.00  0.00    +0.000 OA
BRANCH  26  29
ATOM     29  C   UNL     1       7.407   5.858  17.816  0.00  0.00    +0.000 C 
BRANCH  29  31
ATOM     30  C   UNL     1       8.162   8.296  18.052  0.00  0.00    +0.000 C 
ATOM     31  C   UNL     1       7.198   7.320  17.402  0.00  0.00    +0.000 C 
ENDBRANCH  29  31
ENDBRANCH  26  29
BRANCH  26  32
ATOM     32  C   UNL     1       6.030   4.320  16.356  0.00  0.00    +0.000 C 
BRANCH  32  33
ATOM     33  C   UNL     1       6.051   4.923  14.945  0.00  0.00    +0.000 C 
ATOM     34  O   UNL     1       6.636   4.491  13.966  0.00  0.00    +0.000 OA
BRANCH  33  35
ATOM     35  O   UNL     1       5.333   6.085  14.897  0.00  0.00    +0.000 OA
ATOM     36  H   UNL     1       5.697   6.824  15.421  0.00  0.00    +0.000 HD
ENDBRANCH  33  35
ENDBRANCH  32  33
ENDBRANCH  26  32
ENDBRANCH  23  27
ENDBRANCH  22  23
ENDBRANCH   1  22
TORSDOF 12
ENDMDL
MODEL 3
REMARK VINA RESULT:      -7.3      1.540      2.335
REMARK  Name = 
REMARK  15 active torsions:
REMARK  status: ('A' for Active; 'I' for Inactive)
REMARK    1  A    between atoms: C_1  and  C_2
REMARK    2  A    between atoms: C_2  and  C_3
REMARK    3  A    between atoms: C_3  and  N_4
REMARK    4  A    between atoms: N_4  and  C_5
REMARK    5  A    between atoms: C_5  and  C_6
REMARK    6  A    between atoms: C_6  and  O_8
REMARK    7  A    between atoms: C_9  and  C_11
REMARK    8  A    between atoms: C_11  and  C_12
REMARK    9  A    between atoms: C_11  and  C_13
REMARK   10  A    between atoms: C_11  and  C_14
REMARK   11  A    between atoms: C_14  and  C_15
REMARK   12  A    between atoms: C_18  and  C_19
REMARK   13  A    between atoms: C_19  and  O_21
REMARK   14  A    between atoms: O_21  and  C_22
REMARK   15  A    between atoms: C_25  and  C_26
REMARK                            x       y       z     vdW  Elec       q    Type
REMARK                         _______ _______ _______ _____ _____    ______ ____
ROOT
ATOM      1  C   UNL     1       2.697   6.614  19.237  0.00  0.00    +0.000 A 
ATOM      2  C   UNL     1       2.925   7.301  18.063  0.00  0.00    +0.000 A 
ATOM      3  C   UNL     1       2.215   8.528  18.007  0.00  0.00    +0.000 A 
ATOM      4  C   UNL     1       1.517   8.790  19.174  0.00  0.00    +0.000 A 
ATOM      5  S   UNL     1       1.815   7.581  20.348  0.00  0.00    +0.000 S 
ENDROOT
BRANCH   4   6
ATOM      6  C   UNL     1       0.677   9.934  19.491  0.00  0.00    +0.000 C 
ATOM      7  O   UNL     1      -0.313  10.323  18.884  0.00  0.00    +0.000 OA
BRANCH   6   8
ATOM      8  O   UNL     1       1.188  10.550  20.631  0.00  0.00    +0.000 OA
BRANCH   8   9
ATOM      9  C   UNL     1       0.224  11.152  21.446  0.00  0.00    +0.000 A 
ATOM     10  C   UNL     1      -0.364  10.366  22.436  0.00  0.00    +0.000 A 
ATOM     11  C   UNL     1      -1.418  10.895  23.192  0.00  0.00    +0.000 A 
ATOM     12  C   UNL     1      -1.877  12.198  22.941  0.00  0.00    +0.000 A 
ATOM     13  C   UNL     1      -1.292  12.970  21.938  0.00  0.00    +0.000 A 
ATOM     14  C   UNL     1      -0.251  12.436  21.190  0.00  0.00    +0.000 A 
ATOM     15  F   UNL     1       0.247  13.163  20.177  0.00  0.00    +0.000 F 
BRANCH  12  16
ATOM     16  C   UNL     1      -2.998  12.788  23.721  0.00  0.00    +0.000 C 
ATOM     17  N   UNL     1      -3.123  14.060  23.930  0.00  0.00    +0.000 NA
ATOM     18  N   UNL     1      -3.953  11.978  24.260  0.00  0.00    +0.000 N 
ATOM     19  H   UNL     1      -2.339  14.589  23.541  0.00  0.00    +0.000 HD
ATOM     20  H   UNL     1      -4.210  11.150  23.731  0.00  0.00    +0.000 HD
ATOM     21  H   UNL     1      -4.758  12.511  24.576  0.00  0.00    +0.000 HD
ENDBRANCH  12  16
ENDBRANCH   8   9
ENDBRANCH   6   8
ENDBRANCH   4   6
BRANCH   1  22
ATOM     22  C   UNL     1       3.176   5.227  19.594  0.00  0.00    +0.000 C 
BRANCH  22  23
ATOM     23  C   UNL     1       4.221   4.595  18.595  0.00  0.00    +0.000 C 
ATOM     24  C   UNL     1       3.626   4.683  17.180  0.00  0.00    +0.000 C 
ATOM     25  C   UNL     1       4.335   3.116  19.017  0.00  0.00    +0.000 C 
BRANCH  23  27
ATOM     26  N   UNL     1       6.351   5.820  17.699  0.00  0.00    +0.000 N 
ATOM     27  C   UNL     1       5.616   5.299  18.772  0.00  0.00    +0.000 C 
ATOM     28  O   UNL     1       6.122   5.335  19.902  0.00  0.00    +0.000 OA
BRANCH  26  29
ATOM     29  C   UNL     1       7.585   6.551  18.037  0.00  0.00    +0.000 C 
BRANCH  29  31
ATOM     30  C   UNL     1       8.468   8.947  18.266  0.00  0.00    +0.000 C 
ATOM     31  C   UNL     1       7.677   7.957  17.430  0.00  0.00    +0.000 C 
ENDBRANCH  29  31
ENDBRANCH  26  29
BRANCH  26  32
ATOM     32  C   UNL     1       5.981   5.675  16.289  0.00  0.00    +0.000 C 
BRANCH  32  33
ATOM     33  C   UNL     1       6.722   4.915  15.181  0.00  0.00    +0.000 C 
ATOM     34  O   UNL     1       7.504   5.373  14.366  0.00  0.00    +0.000 OA
BRANCH  33  35
ATOM     35  O   UNL     1       6.370   3.593  15.174  0.00  0.00    +0.000 OA
ATOM     36  H   UNL     1       6.254   3.195  14.290  0.00  0.00    +0.000 HD
ENDBRANCH  33  35
ENDBRANCH  32  33
ENDBRANCH  26  32
ENDBRANCH  23  27
ENDBRANCH  22  23
ENDBRANCH   1  22
TORSDOF 12
ENDMDL
MODEL 4
REMARK VINA RESULT:      -7.1      2.691      3.166
REMARK  Name = 
REMARK  15 active torsions:
REMARK  status: ('A' for Active; 'I' for Inactive)
REMARK    1  A    between atoms: C_1  and  C_2
REMARK    2  A    between atoms: C_2  and  C_3
REMARK    3  A    between atoms: C_3  and  N_4
REMARK    4  A    between atoms: N_4  and  C_5
REMARK    5  A    between atoms: C_5  and  C_6
REMARK    6  A    between atoms: C_6  and  O_8
REMARK    7  A    between atoms: C_9  and  C_11
REMARK    8  A    between atoms: C_11  and  C_12
REMARK    9  A    between atoms: C_11  and  C_13
REMARK   10  A    between atoms: C_11  and  C_14
REMARK   11  A    between atoms: C_14  and  C_15
REMARK   12  A    between atoms: C_18  and  C_19
REMARK   13  A    between atoms: C_19  and  O_21
REMARK   14  A    between atoms: O_21  and  C_22
REMARK   15  A    between atoms: C_25  and  C_26
REMARK                            x       y       z     vdW  Elec       q    Type
REMARK                         _______ _______ _______ _____ _____    ______ ____
ROOT
ATOM      1  C   UNL     1       2.952   6.663  19.260  0.00  0.00    +0.000 A 
ATOM      2  C   UNL     1       3.028   7.300  18.039  0.00  0.00    +0.000 A 
ATOM      3  C   UNL     1       2.135   8.398  17.946  0.00  0.00    +0.000 A 
ATOM      4  C   UNL     1       1.448   8.625  19.126  0.00  0.00    +0.000 A 
ATOM      5  S   UNL     1       1.972   7.554  20.353  0.00  0.00    +0.000 S 
ENDROOT
BRANCH   4   6
ATOM      6  C   UNL     1       0.454   9.646  19.414  0.00  0.00    +0.000 C 
ATOM      7  O   UNL     1      -0.185   9.795  20.449  0.00  0.00    +0.000 OA
BRANCH   6   8
ATOM      8  O   UNL     1       0.328  10.464  18.293  0.00  0.00    +0.000 OA
BRANCH   8   9
ATOM      9  C   UNL     1       0.560  11.821  18.535  0.00  0.00    +0.000 A 
ATOM     10  C   UNL     1      -0.550  12.631  18.775  0.00  0.00    +0.000 A 
ATOM     11  C   UNL     1      -0.371  14.014  18.901  0.00  0.00    +0.000 A 
ATOM     12  C   UNL     1       0.912  14.571  18.775  0.00  0.00    +0.000 A 
ATOM     13  C   UNL     1       2.012  13.753  18.519  0.00  0.00    +0.000 A 
ATOM     14  C   UNL     1       1.826  12.384  18.390  0.00  0.00    +0.000 A 
ATOM     15  F   UNL     1       2.882  11.622  18.066  0.00  0.00    +0.000 F 
BRANCH  12  16
ATOM     16  C   UNL     1       1.136  16.037  18.897  0.00  0.00    +0.000 C 
ATOM     17  N   UNL     1       0.188  16.910  18.776  0.00  0.00    +0.000 NA
ATOM     18  N   UNL     1       2.388  16.517  19.142  0.00  0.00    +0.000 N 
ATOM     19  H   UNL     1      -0.706  16.473  18.539  0.00  0.00    +0.000 HD
ATOM     20  H   UNL     1       2.989  15.956  19.738  0.00  0.00    +0.000 HD
ATOM     21  H   UNL     1       2.366  17.495  19.410  0.00  0.00    +0.000 HD
ENDBRANCH  12  16
ENDBRANCH   8   9
ENDBRANCH   6   8
ENDBRANCH   4   6
BRANCH   1  22
ATOM     22  C   UNL     1       3.652   5.390  19.674  0.00  0.00    +0.000 C 
BRANCH  22  23
ATOM     23  C   UNL     1       3.067   4.064  19.051  0.00  0.00    +0.000 C 
ATOM     24  C   UNL     1       1.534   4.145  19.139  0.00  0.00    +0.000 C 
ATOM     25  C   UNL     1       3.577   2.932  19.965  0.00  0.00    +0.000 C 
BRANCH  23  27
ATOM     26  N   UNL     1       4.986   4.063  17.274  0.00  0.00    +0.000 N 
ATOM     27  C   UNL     1       3.639   3.863  17.600  0.00  0.00    +0.000 C 
ATOM     28  O   UNL     1       2.851   3.580  16.687  0.00  0.00    +0.000 OA
BRANCH  26  29
ATOM     29  C   UNL     1       5.392   3.723  15.899  0.00  0.00    +0.000 C 
BRANCH  29  31
ATOM     30  C   UNL     1       6.848   4.784  14.076  0.00  0.00    +0.000 C 
ATOM     31  C   UNL     1       5.647   4.934  14.993  0.00  0.00    +0.000 C 
ENDBRANCH  29  31
ENDBRANCH  26  29
BRANCH  26  32
ATOM     32  C   UNL     1       5.995   4.591  18.196  0.00  0.00    +0.000 C 
BRANCH  32  33
ATOM     33  C   UNL     1       7.423   5.061  17.883  0.00  0.00    +0.000 C 
ATOM     34  O   UNL     1       7.810   6.209  17.746  0.00  0.00    +0.000 OA
BRANCH  33  35
ATOM     35  O   UNL     1       8.266   3.996  17.729  0.00  0.00    +0.000 OA
ATOM     36  H   UNL     1       9.219   4.204  17.784  0.00  0.00    +0.000 HD
ENDBRANCH  33  35
ENDBRANCH  32  33
ENDBRANCH  26  32
ENDBRANCH  23  27
ENDBRANCH  22  23
ENDBRANCH   1  22
TORSDOF 12
ENDMDL
MODEL 5
REMARK VINA RESULT:      -7.1      1.676      2.519
REMARK  Name = 
REMARK  15 active torsions:
REMARK  status: ('A' for Active; 'I' for Inactive)
REMARK    1  A    between atoms: C_1  and  C_2
REMARK    2  A    between atoms: C_2  and  C_3
REMARK    3  A    between atoms: C_3  and  N_4
REMARK    4  A    between atoms: N_4  and  C_5
REMARK    5  A    between atoms: C_5  and  C_6
REMARK    6  A    between atoms: C_6  and  O_8
REMARK    7  A    between atoms: C_9  and  C_11
REMARK    8  A    between atoms: C_11  and  C_12
REMARK    9  A    between atoms: C_11  and  C_13
REMARK   10  A    between atoms: C_11  and  C_14
REMARK   11  A    between atoms: C_14  and  C_15
REMARK   12  A    between atoms: C_18  and  C_19
REMARK   13  A    between atoms: C_19  and  O_21
REMARK   14  A    between atoms: O_21  and  C_22
REMARK   15  A    between atoms: C_25  and  C_26
REMARK                            x       y       z     vdW  Elec       q    Type
REMARK                         _______ _______ _______ _____ _____    ______ ____
ROOT
ATOM      1  C   UNL     1       2.179   8.295  18.738  0.00  0.00    +0.000 A 
ATOM      2  C   UNL     1       1.833   8.135  20.063  0.00  0.00    +0.000 A 
ATOM      3  C   UNL     1       0.781   9.003  20.456  0.00  0.00    +0.000 A 
ATOM      4  C   UNL     1       0.295   9.757  19.401  0.00  0.00    +0.000 A 
ATOM      5  S   UNL     1       1.065   9.325  17.936  0.00  0.00    +0.000 S 
ENDROOT
BRANCH   4   6
ATOM      6  C   UNL     1      -0.767  10.751  19.411  0.00  0.00    +0.000 C 
ATOM      7  O   UNL     1      -1.848  10.693  18.838  0.00  0.00    +0.000 OA
BRANCH   6   8
ATOM      8  O   UNL     1      -0.355  11.823  20.199  0.00  0.00    +0.000 OA
BRANCH   8   9
ATOM      9  C   UNL     1      -1.207  12.120  21.268  0.00  0.00    +0.000 A 
ATOM     10  C   UNL     1      -1.081  11.352  22.424  0.00  0.00    +0.000 A 
ATOM     11  C   UNL     1      -1.995  11.536  23.469  0.00  0.00    +0.000 A 
ATOM     12  C   UNL     1      -3.030  12.477  23.340  0.00  0.00    +0.000 A 
ATOM     13  C   UNL     1      -3.155  13.228  22.172  0.00  0.00    +0.000 A 
ATOM     14  C   UNL     1      -2.248  13.036  21.139  0.00  0.00    +0.000 A 
ATOM     15  F   UNL     1      -2.432  13.710  19.992  0.00  0.00    +0.000 F 
BRANCH  12  16
ATOM     16  C   UNL     1      -4.021  12.693  24.428  0.00  0.00    +0.000 C 
ATOM     17  N   UNL     1      -5.015  11.893  24.649  0.00  0.00    +0.000 NA
ATOM     18  N   UNL     1      -3.910  13.779  25.245  0.00  0.00    +0.000 N 
ATOM     19  H   UNL     1      -5.057  11.137  23.962  0.00  0.00    +0.000 HD
ATOM     20  H   UNL     1      -2.972  14.091  25.474  0.00  0.00    +0.000 HD
ATOM     21  H   UNL     1      -4.509  13.694  26.060  0.00  0.00    +0.000 HD
ENDBRANCH  12  16
ENDBRANCH   8   9
ENDBRANCH   6   8
ENDBRANCH   4   6
BRANCH   1  22
ATOM     22  C   UNL     1       3.328   7.641  18.007  0.00  0.00    +0.000 C 
BRANCH  22  23
ATOM     23  C   UNL     1       3.396   6.069  18.122  0.00  0.00    +0.000 C 
ATOM     24  C   UNL     1       1.979   5.523  17.879  0.00  0.00    +0.000 C 
ATOM     25  C   UNL     1       3.812   5.792  19.582  0.00  0.00    +0.000 C 
BRANCH  23  27
ATOM     26  N   UNL     1       4.892   4.168  17.130  0.00  0.00    +0.000 N 
ATOM     27  C   UNL     1       4.498   5.512  17.149  0.00  0.00    +0.000 C 
ATOM     28  O   UNL     1       5.095   6.308  16.413  0.00  0.00    +0.000 OA
BRANCH  26  29
ATOM     29  C   UNL     1       5.853   3.775  16.085  0.00  0.00    +0.000 C 
BRANCH  29  31
ATOM     30  C   UNL     1       6.387   3.938  13.583  0.00  0.00    +0.000 C 
ATOM     31  C   UNL     1       5.311   3.878  14.653  0.00  0.00    +0.000 C 
ENDBRANCH  29  31
ENDBRANCH  26  29
BRANCH  26  32
ATOM     32  C   UNL     1       4.425   3.150  18.076  0.00  0.00    +0.000 C 
BRANCH  32  33
ATOM     33  C   UNL     1       3.419   2.016  17.838  0.00  0.00    +0.000 C 
ATOM     34  O   UNL     1       2.296   2.110  17.372  0.00  0.00    +0.000 OA
BRANCH  33  35
ATOM     35  O   UNL     1       3.924   0.817  18.258  0.00  0.00    +0.000 OA
ATOM     36  H   UNL     1       3.549   0.473  19.091  0.00  0.00    +0.000 HD
ENDBRANCH  33  35
ENDBRANCH  32  33
ENDBRANCH  26  32
ENDBRANCH  23  27
ENDBRANCH  22  23
ENDBRANCH   1  22
TORSDOF 12
ENDMDL
MODEL 6
REMARK VINA RESULT:      -7.1      2.665      3.043
REMARK  Name = 
REMARK  15 active torsions:
REMARK  status: ('A' for Active; 'I' for Inactive)
REMARK    1  A    between atoms: C_1  and  C_2
REMARK    2  A    between atoms: C_2  and  C_3
REMARK    3  A    between atoms: C_3  and  N_4
REMARK    4  A    between atoms: N_4  and  C_5
REMARK    5  A    between atoms: C_5  and  C_6
REMARK    6  A    between atoms: C_6  and  O_8
REMARK    7  A    between atoms: C_9  and  C_11
REMARK    8  A    between atoms: C_11  and  C_12
REMARK    9  A    between atoms: C_11  and  C_13
REMARK   10  A    between atoms: C_11  and  C_14
REMARK   11  A    between atoms: C_14  and  C_15
REMARK   12  A    between atoms: C_18  and  C_19
REMARK   13  A    between atoms: C_19  and  O_21
REMARK   14  A    between atoms: O_21  and  C_22
REMARK   15  A    between atoms: C_25  and  C_26
REMARK                            x       y       z     vdW  Elec       q    Type
REMARK                         _______ _______ _______ _____ _____    ______ ____
ROOT
ATOM      1  C   UNL     1       2.717   7.011  19.148  0.00  0.00    +0.000 A 
ATOM      2  C   UNL     1       2.721   7.922  18.113  0.00  0.00    +0.000 A 
ATOM      3  C   UNL     1       1.800   8.982  18.322  0.00  0.00    +0.000 A 
ATOM      4  C   UNL     1       1.165   8.898  19.550  0.00  0.00    +0.000 A 
ATOM      5  S   UNL     1       1.771   7.583  20.461  0.00  0.00    +0.000 S 
ENDROOT
BRANCH   4   6
ATOM      6  C   UNL     1       0.164   9.788  20.114  0.00  0.00    +0.000 C 
ATOM      7  O   UNL     1      -0.491   9.622  21.137  0.00  0.00    +0.000 OA
BRANCH   6   8
ATOM      8  O   UNL     1       0.051  10.903  19.286  0.00  0.00    +0.000 OA
BRANCH   8   9
ATOM      9  C   UNL     1      -1.255  11.192  18.877  0.00  0.00    +0.000 A 
ATOM     10  C   UNL     1      -1.990  12.086  19.656  0.00  0.00    +0.000 A 
ATOM     11  C   UNL     1      -3.338  12.308  19.350  0.00  0.00    +0.000 A 
ATOM     12  C   UNL     1      -3.938  11.627  18.278  0.00  0.00    +0.000 A 
ATOM     13  C   UNL     1      -3.197  10.724  17.517  0.00  0.00    +0.000 A 
ATOM     14  C   UNL     1      -1.862  10.504  17.829  0.00  0.00    +0.000 A 
ATOM     15  F   UNL     1      -1.187   9.574  17.137  0.00  0.00    +0.000 F 
BRANCH  12  16
ATOM     16  C   UNL     1      -5.369  11.835  17.931  0.00  0.00    +0.000 C 
ATOM     17  N   UNL     1      -6.239  10.876  17.909  0.00  0.00    +0.000 NA
ATOM     18  N   UNL     1      -5.818  13.081  17.610  0.00  0.00    +0.000 N 
ATOM     19  H   UNL     1      -5.812   9.968  18.107  0.00  0.00    +0.000 HD
ATOM     20  H   UNL     1      -5.393  13.865  18.097  0.00  0.00    +0.000 HD
ATOM     21  H   UNL     1      -6.832  13.122  17.605  0.00  0.00    +0.000 HD
ENDBRANCH  12  16
ENDBRANCH   8   9
ENDBRANCH   6   8
ENDBRANCH   4   6
BRANCH   1  22
ATOM     22  C   UNL     1       3.463   5.700  19.216  0.00  0.00    +0.000 C 
BRANCH  22  23
ATOM     23  C   UNL     1       2.764   4.486  18.491  0.00  0.00    +0.000 C 
ATOM     24  C   UNL     1       1.557   5.039  17.716  0.00  0.00    +0.000 C 
ATOM     25  C   UNL     1       2.270   3.569  19.629  0.00  0.00    +0.000 C 
BRANCH  23  27
ATOM     26  N   UNL     1       4.844   4.353  16.911  0.00  0.00    +0.000 N 
ATOM     27  C   UNL     1       3.816   3.712  17.615  0.00  0.00    +0.000 C 
ATOM     28  O   UNL     1       3.693   2.487  17.486  0.00  0.00    +0.000 OA
BRANCH  26  29
ATOM     29  C   UNL     1       5.819   3.485  16.229  0.00  0.00    +0.000 C 
BRANCH  29  31
ATOM     30  C   UNL     1       5.861   3.826  13.689  0.00  0.00    +0.000 C 
ATOM     31  C   UNL     1       6.514   4.133  15.025  0.00  0.00    +0.000 C 
ENDBRANCH  29  31
ENDBRANCH  26  29
BRANCH  26  32
ATOM     32  C   UNL     1       4.997   5.807  16.803  0.00  0.00    +0.000 C 
BRANCH  32  33
ATOM     33  C   UNL     1       6.193   6.674  17.219  0.00  0.00    +0.000 C 
ATOM     34  O   UNL     1       6.627   7.659  16.646  0.00  0.00    +0.000 OA
BRANCH  33  35
ATOM     35  O   UNL     1       6.785   6.183  18.350  0.00  0.00    +0.000 OA
ATOM     36  H   UNL     1       7.554   6.689  18.674  0.00  0.00    +0.000 HD
ENDBRANCH  33  35
ENDBRANCH  32  33
ENDBRANCH  26  32
ENDBRANCH  23  27
ENDBRANCH  22  23
ENDBRANCH   1  22
TORSDOF 12
ENDMDL
MODEL 7
REMARK VINA RESULT:      -7.1      2.772      3.526
REMARK  Name = 
REMARK  15 active torsions:
REMARK  status: ('A' for Active; 'I' for Inactive)
REMARK    1  A    between atoms: C_1  and  C_2
REMARK    2  A    between atoms: C_2  and  C_3
REMARK    3  A    between atoms: C_3  and  N_4
REMARK    4  A    between atoms: N_4  and  C_5
REMARK    5  A    between atoms: C_5  and  C_6
REMARK    6  A    between atoms: C_6  and  O_8
REMARK    7  A    between atoms: C_9  and  C_11
REMARK    8  A    between atoms: C_11  and  C_12
REMARK    9  A    between atoms: C_11  and  C_13
REMARK   10  A    between atoms: C_11  and  C_14
REMARK   11  A    between atoms: C_14  and  C_15
REMARK   12  A    between atoms: C_18  and  C_19
REMARK   13  A    between atoms: C_19  and  O_21
REMARK   14  A    between atoms: O_21  and  C_22
REMARK   15  A    between atoms: C_25  and  C_26
REMARK                            x       y       z     vdW  Elec       q    Type
REMARK                         _______ _______ _______ _____ _____    ______ ____
ROOT
ATOM      1  C   UNL     1       2.635   6.611  19.349  0.00  0.00    +0.000 A 
ATOM      2  C   UNL     1       3.144   7.102  18.165  0.00  0.00    +0.000 A 
ATOM      3  C   UNL     1       2.658   8.401  17.865  0.00  0.00    +0.000 A 
ATOM      4  C   UNL     1       1.845   8.907  18.865  0.00  0.00    +0.000 A 
ATOM      5  S   UNL     1       1.766   7.829  20.191  0.00  0.00    +0.000 S 
ENDROOT
BRANCH   4   6
ATOM      6  C   UNL     1       1.165  10.191  18.916  0.00  0.00    +0.000 C 
ATOM      7  O   UNL     1       1.454  11.213  18.307  0.00  0.00    +0.000 OA
BRANCH   6   8
ATOM      8  O   UNL     1       0.093  10.084  19.800  0.00  0.00    +0.000 OA
BRANCH   8   9
ATOM      9  C   UNL     1      -1.151  10.403  19.245  0.00  0.00    +0.000 A 
ATOM     10  C   UNL     1      -1.574   9.659  18.144  0.00  0.00    +0.000 A 
ATOM     11  C   UNL     1      -2.755  10.026  17.486  0.00  0.00    +0.000 A 
ATOM     12  C   UNL     1      -3.490  11.138  17.929  0.00  0.00    +0.000 A 
ATOM     13  C   UNL     1      -3.048  11.883  19.022  0.00  0.00    +0.000 A 
ATOM     14  C   UNL     1      -1.874  11.516  19.666  0.00  0.00    +0.000 A 
ATOM     15  F   UNL     1      -1.423  12.291  20.664  0.00  0.00    +0.000 F 
BRANCH  12  16
ATOM     16  C   UNL     1      -4.745  11.558  17.249  0.00  0.00    +0.000 C 
ATOM     17  N   UNL     1      -4.759  12.277  16.172  0.00  0.00    +0.000 NA
ATOM     18  N   UNL     1      -5.953  11.191  17.761  0.00  0.00    +0.000 N 
ATOM     19  H   UNL     1      -3.818  12.555  15.886  0.00  0.00    +0.000 HD
ATOM     20  H   UNL     1      -6.010  10.279  18.205  0.00  0.00    +0.000 HD
ATOM     21  H   UNL     1      -6.704  11.356  17.099  0.00  0.00    +0.000 HD
ENDBRANCH  12  16
ENDBRANCH   8   9
ENDBRANCH   6   8
ENDBRANCH   4   6
BRANCH   1  22
ATOM     22  C   UNL     1       2.824   5.227  19.922  0.00  0.00    +0.000 C 
BRANCH  22  23
ATOM     23  C   UNL     1       3.318   4.133  18.899  0.00  0.00    +0.000 C 
ATOM     24  C   UNL     1       2.607   4.393  17.560  0.00  0.00    +0.000 C 
ATOM     25  C   UNL     1       2.839   2.789  19.485  0.00  0.00    +0.000 C 
BRANCH  23  27
ATOM     26  N   UNL     1       5.601   4.565  17.697  0.00  0.00    +0.000 N 
ATOM     27  C   UNL     1       4.889   4.143  18.828  0.00  0.00    +0.000 C 
ATOM     28  O   UNL     1       5.528   3.693  19.788  0.00  0.00    +0.000 OA
BRANCH  26  29
ATOM     29  C   UNL     1       7.067   4.625  17.824  0.00  0.00    +0.000 C 
BRANCH  29  31
ATOM     30  C   UNL     1       7.656   7.118  17.733  0.00  0.00    +0.000 C 
ATOM     31  C   UNL     1       7.590   5.856  18.575  0.00  0.00    +0.000 C 
ENDBRANCH  29  31
ENDBRANCH  26  29
BRANCH  26  32
ATOM     32  C   UNL     1       4.988   4.931  16.418  0.00  0.00    +0.000 C 
BRANCH  32  33
ATOM     33  C   UNL     1       5.617   5.690  15.241  0.00  0.00    +0.000 C 
ATOM     34  O   UNL     1       6.475   5.285  14.474  0.00  0.00    +0.000 OA
BRANCH  33  35
ATOM     35  O   UNL     1       5.113   6.958  15.149  0.00  0.00    +0.000 OA
ATOM     36  H   UNL     1       5.381   7.459  14.356  0.00  0.00    +0.000 HD
ENDBRANCH  33  35
ENDBRANCH  32  33
ENDBRANCH  26  32
ENDBRANCH  23  27
ENDBRANCH  22  23
ENDBRANCH   1  22
TORSDOF 12
ENDMDL
MODEL 8
REMARK VINA RESULT:      -7.0      2.999     10.800
REMARK  Name = 
REMARK  15 active torsions:
REMARK  status: ('A' for Active; 'I' for Inactive)
REMARK    1  A    between atoms: C_1  and  C_2
REMARK    2  A    between atoms: C_2  and  C_3
REMARK    3  A    between atoms: C_3  and  N_4
REMARK    4  A    between atoms: N_4  and  C_5
REMARK    5  A    between atoms: C_5  and  C_6
REMARK    6  A    between atoms: C_6  and  O_8
REMARK    7  A    between atoms: C_9  and  C_11
REMARK    8  A    between atoms: C_11  and  C_12
REMARK    9  A    between atoms: C_11  and  C_13
REMARK   10  A    between atoms: C_11  and  C_14
REMARK   11  A    between atoms: C_14  and  C_15
REMARK   12  A    between atoms: C_18  and  C_19
REMARK   13  A    between atoms: C_19  and  O_21
REMARK   14  A    between atoms: O_21  and  C_22
REMARK   15  A    between atoms: C_25  and  C_26
REMARK                            x       y       z     vdW  Elec       q    Type
REMARK                         _______ _______ _______ _____ _____    ______ ____
ROOT
ATOM      1  C   UNL     1       1.438   9.697  19.211  0.00  0.00    +0.000 A 
ATOM      2  C   UNL     1       1.710   9.375  17.898  0.00  0.00    +0.000 A 
ATOM      3  C   UNL     1       2.160   8.037  17.752  0.00  0.00    +0.000 A 
ATOM      4  C   UNL     1       2.151   7.341  18.949  0.00  0.00    +0.000 A 
ATOM      5  S   UNL     1       1.506   8.302  20.209  0.00  0.00    +0.000 S 
ENDROOT
BRANCH   4   6
ATOM      6  C   UNL     1       2.543   5.963  19.199  0.00  0.00    +0.000 C 
ATOM      7  O   UNL     1       1.819   4.976  19.232  0.00  0.00    +0.000 OA
BRANCH   6   8
ATOM      8  O   UNL     1       3.920   5.931  19.408  0.00  0.00    +0.000 OA
BRANCH   8   9
ATOM      9  C   UNL     1       4.670   5.577  18.282  0.00  0.00    +0.000 A 
ATOM     10  C   UNL     1       5.194   6.611  17.506  0.00  0.00    +0.000 A 
ATOM     11  C   UNL     1       5.846   6.300  16.306  0.00  0.00    +0.000 A 
ATOM     12  C   UNL     1       5.956   4.963  15.891  0.00  0.00    +0.000 A 
ATOM     13  C   UNL     1       5.414   3.939  16.668  0.00  0.00    +0.000 A 
ATOM     14  C   UNL     1       4.765   4.255  17.854  0.00  0.00    +0.000 A 
ATOM     15  F   UNL     1       4.181   3.265  18.547  0.00  0.00    +0.000 F 
BRANCH  12  16
ATOM     16  C   UNL     1       6.636   4.599  14.619  0.00  0.00    +0.000 C 
ATOM     17  N   UNL     1       6.332   3.546  13.930  0.00  0.00    +0.000 NA
ATOM     18  N   UNL     1       7.635   5.388  14.131  0.00  0.00    +0.000 N 
ATOM     19  H   UNL     1       5.614   2.982  14.391  0.00  0.00    +0.000 HD
ATOM     20  H   UNL     1       7.549   6.389  14.282  0.00  0.00    +0.000 HD
ATOM     21  H   UNL     1       7.861   5.151  13.171  0.00  0.00    +0.000 HD
ENDBRANCH  12  16
ENDBRANCH   8   9
ENDBRANCH   6   8
ENDBRANCH   4   6
BRANCH   1  22
ATOM     22  C   UNL     1       1.064  11.053  19.761  0.00  0.00    +0.000 C 
BRANCH  22  23
ATOM     23  C   UNL     1      -0.468  11.419  19.674  0.00  0.00    +0.000 C 
ATOM     24  C   UNL     1      -1.159  10.333  18.832  0.00  0.00    +0.000 C 
ATOM     25  C   UNL     1      -0.516  12.764  18.920  0.00  0.00    +0.000 C 
BRANCH  23  27
ATOM     26  N   UNL     1      -2.274  12.248  21.374  0.00  0.00    +0.000 N 
ATOM     27  C   UNL     1      -1.053  11.609  21.121  0.00  0.00    +0.000 C 
ATOM     28  O   UNL     1      -0.374  11.238  22.087  0.00  0.00    +0.000 OA
BRANCH  26  29
ATOM     29  C   UNL     1      -2.743  12.246  22.771  0.00  0.00    +0.000 C 
BRANCH  29  31
ATOM     30  C   UNL     1      -3.924  13.537  24.644  0.00  0.00    +0.000 C 
ATOM     31  C   UNL     1      -3.542  13.491  23.175  0.00  0.00    +0.000 C 
ENDBRANCH  29  31
ENDBRANCH  26  29
BRANCH  26  32
ATOM     32  C   UNL     1      -3.091  12.914  20.357  0.00  0.00    +0.000 C 
BRANCH  32  33
ATOM     33  C   UNL     1      -4.344  12.388  19.644  0.00  0.00    +0.000 C 
ATOM     34  O   UNL     1      -5.432  12.148  20.141  0.00  0.00    +0.000 OA
BRANCH  33  35
ATOM     35  O   UNL     1      -4.097  12.169  18.317  0.00  0.00    +0.000 OA
ATOM     36  H   UNL     1      -4.747  12.556  17.700  0.00  0.00    +0.000 HD
ENDBRANCH  33  35
ENDBRANCH  32  33
ENDBRANCH  26  32
ENDBRANCH  23  27
ENDBRANCH  22  23
ENDBRANCH   1  22
TORSDOF 12
ENDMDL
MODEL 9
REMARK VINA RESULT:      -6.9      2.043      2.778
REMARK  Name = 
REMARK  15 active torsions:
REMARK  status: ('A' for Active; 'I' for Inactive)
REMARK    1  A    between atoms: C_1  and  C_2
REMARK    2  A    between atoms: C_2  and  C_3
REMARK    3  A    between atoms: C_3  and  N_4
REMARK    4  A    between atoms: N_4  and  C_5
REMARK    5  A    between atoms: C_5  and  C_6
REMARK    6  A    between atoms: C_6  and  O_8
REMARK    7  A    between atoms: C_9  and  C_11
REMARK    8  A    between atoms: C_11  and  C_12
REMARK    9  A    between atoms: C_11  and  C_13
REMARK   10  A    between atoms: C_11  and  C_14
REMARK   11  A    between atoms: C_14  and  C_15
REMARK   12  A    between atoms: C_18  and  C_19
REMARK   13  A    between atoms: C_19  and  O_21
REMARK   14  A    between atoms: O_21  and  C_22
REMARK   15  A    between atoms: C_25  and  C_26
REMARK                            x       y       z     vdW  Elec       q    Type
REMARK                         _______ _______ _______ _____ _____    ______ ____
ROOT
ATOM      1  C   UNL     1       2.831   5.971  18.809  0.00  0.00    +0.000 A 
ATOM      2  C   UNL     1       3.253   6.570  17.641  0.00  0.00    +0.000 A 
ATOM      3  C   UNL     1       2.814   7.915  17.533  0.00  0.00    +0.000 A 
ATOM      4  C   UNL     1       2.128   8.340  18.659  0.00  0.00    +0.000 A 
ATOM      5  S   UNL     1       2.113   7.123  19.861  0.00  0.00    +0.000 S 
ENDROOT
BRANCH   4   6
ATOM      6  C   UNL     1       1.528   9.639  18.917  0.00  0.00    +0.000 C 
ATOM      7  O   UNL     1       1.769  10.698  18.351  0.00  0.00    +0.000 OA
BRANCH   6   8
ATOM      8  O   UNL     1       0.601   9.497  19.947  0.00  0.00    +0.000 OA
BRANCH   8   9
ATOM      9  C   UNL     1      -0.324  10.542  20.045  0.00  0.00    +0.000 A 
ATOM     10  C   UNL     1      -0.279  11.336  21.190  0.00  0.00    +0.000 A 
ATOM     11  C   UNL     1      -1.264  12.314  21.381  0.00  0.00    +0.000 A 
ATOM     12  C   UNL     1      -2.286  12.477  20.432  0.00  0.00    +0.000 A 
ATOM     13  C   UNL     1      -2.329  11.666  19.298  0.00  0.00    +0.000 A 
ATOM     14  C   UNL     1      -1.352  10.696  19.118  0.00  0.00    +0.000 A 
ATOM     15  F   UNL     1      -1.455   9.873  18.063  0.00  0.00    +0.000 F 
BRANCH  12  16
ATOM     16  C   UNL     1      -3.350  13.501  20.608  0.00  0.00    +0.000 C 
ATOM     17  N   UNL     1      -3.243  14.500  21.424  0.00  0.00    +0.000 NA
ATOM     18  N   UNL     1      -4.508  13.409  19.895  0.00  0.00    +0.000 N 
ATOM     19  H   UNL     1      -2.371  14.466  21.958  0.00  0.00    +0.000 HD
ATOM     20  H   UNL     1      -4.442  13.041  18.951  0.00  0.00    +0.000 HD
ATOM     21  H   UNL     1      -5.047  14.268  19.948  0.00  0.00    +0.000 HD
ENDBRANCH  12  16
ENDBRANCH   8   9
ENDBRANCH   6   8
ENDBRANCH   4   6
BRANCH   1  22
ATOM     22  C   UNL     1       2.995   4.524  19.207  0.00  0.00    +0.000 C 
BRANCH  22  23
ATOM     23  C   UNL     1       4.276   3.806  18.630  0.00  0.00    +0.000 C 
ATOM     24  C   UNL     1       3.950   3.354  17.197  0.00  0.00    +0.000 C 
ATOM     25  C   UNL     1       4.480   2.567  19.527  0.00  0.00    +0.000 C 
BRANCH  23  27
ATOM     26  N   UNL     1       6.463   4.925  17.736  0.00  0.00    +0.000 N 
ATOM     27  C   UNL     1       5.522   4.756  18.759  0.00  0.00    +0.000 C 
ATOM     28  O   UNL     1       5.719   5.331  19.838  0.00  0.00    +0.000 OA
BRANCH  26  29
ATOM     29  C   UNL     1       7.510   5.937  17.962  0.00  0.00    +0.000 C 
BRANCH  29  31
ATOM     30  C   UNL     1       8.144   8.419  17.872  0.00  0.00    +0.000 C 
ATOM     31  C   UNL     1       7.156   7.342  17.460  0.00  0.00    +0.000 C 
ENDBRANCH  29  31
ENDBRANCH  26  29
BRANCH  26  32
ATOM     32  C   UNL     1       6.477   4.164  16.483  0.00  0.00    +0.000 C 
BRANCH  32  33
ATOM     33  C   UNL     1       6.743   4.673  15.060  0.00  0.00    +0.000 C 
ATOM     34  O   UNL     1       7.712   5.301  14.668  0.00  0.00    +0.000 OA
BRANCH  33  35
ATOM     35  O   UNL     1       5.704   4.362  14.226  0.00  0.00    +0.000 OA
ATOM     36  H   UNL     1       5.926   4.321  13.277  0.00  0.00    +0.000 HD
ENDBRANCH  33  35
ENDBRANCH  32  33
ENDBRANCH  26  32
ENDBRANCH  23  27
ENDBRANCH  22  23
ENDBRANCH   1  22
TORSDOF 12
ENDMDL
