MODEL 1
REMARK VINA RESULT:      -8.3      0.000      0.000
REMARK  Name = 
REMARK  2 active torsions:
REMARK  status: ('A' for Active; 'I' for Inactive)
REMARK    1  A    between atoms: C_2  and  C_16
REMARK    2  A    between atoms: N_3  and  C_4
REMARK                            x       y       z     vdW  Elec       q    Type
REMARK                         _______ _______ _______ _____ _____    ______ ____
ROOT
ATOM      1  C   UNL     1       2.337   6.496  19.679  0.00  0.00    +0.000 A 
ATOM      2  C   UNL     1       3.258   6.984  18.718  0.00  0.00    +0.000 A 
ATOM      3  C   UNL     1       3.923   6.149  17.807  0.00  0.00    +0.000 A 
ATOM      4  C   UNL     1       3.639   4.800  17.895  0.00  0.00    +0.000 A 
ATOM      5  C   UNL     1       2.770   4.310  18.848  0.00  0.00    +0.000 A 
ATOM      6  C   UNL     1       2.639   2.938  18.736  0.00  0.00    +0.000 A 
ATOM      7  C   UNL     1       1.815   2.217  19.584  0.00  0.00    +0.000 A 
ATOM      8  C   UNL     1       1.124   2.961  20.553  0.00  0.00    +0.000 A 
ATOM      9  C   UNL     1       1.257   4.365  20.650  0.00  0.00    +0.000 A 
ATOM     10  C   UNL     1       2.104   5.088  19.768  0.00  0.00    +0.000 A 
ATOM     11  C   UNL     1       3.473   2.425  17.609  0.00  0.00    +0.000 C 
ATOM     12  C   UNL     1       4.170   3.699  17.047  0.00  0.00    +0.000 C 
ENDROOT
BRANCH   1  15
ATOM     13  O   UNL     1       1.247   9.140  19.071  0.00  0.00    +0.000 OA
ATOM     14  C   UNL     1       1.186   8.655  20.198  0.00  0.00    +0.000 C 
ATOM     15  N   UNL     1       1.650   7.393  20.544  0.00  0.00    +0.000 N 
ATOM     16  H   UNL     1       1.372   7.054  21.457  0.00  0.00    +0.000 HD
BRANCH  14  17
ATOM     17  C   UNL     1       0.557   9.399  21.273  0.00  0.00    +0.000 A 
ATOM     18  C   UNL     1       0.195   8.965  22.536  0.00  0.00    +0.000 A 
ATOM     19  C   UNL     1      -0.421  10.055  23.184  0.00  0.00    +0.000 A 
ATOM     20  C   UNL     1      -0.401  11.095  22.280  0.00  0.00    +0.000 A 
ATOM     21 BR   UNL     1      -1.117  12.788  22.594  0.00  0.00    +0.000 Br
ATOM     22  O   UNL     1       0.206  10.713  21.119  0.00  0.00    +0.000 OA
ENDBRANCH  14  17
ENDBRANCH   1  15
TORSDOF 2
ENDMDL
MODEL 2
REMARK VINA RESULT:      -8.1      1.117      1.408
REMARK  Name = 
REMARK  2 active torsions:
REMARK  status: ('A' for Active; 'I' for Inactive)
REMARK    1  A    between atoms: C_2  and  C_16
REMARK    2  A    between atoms: N_3  and  C_4
REMARK                            x       y       z     vdW  Elec       q    Type
REMARK                         _______ _______ _______ _____ _____    ______ ____
ROOT
ATOM      1  C   UNL     1       2.612   6.843  18.963  0.00  0.00    +0.000 A 
ATOM      2  C   UNL     1       3.559   7.019  17.922  0.00  0.00    +0.000 A 
ATOM      3  C   UNL     1       4.153   5.944  17.243  0.00  0.00    +0.000 A 
ATOM      4  C   UNL     1       3.770   4.680  17.647  0.00  0.00    +0.000 A 
ATOM      5  C   UNL     1       2.875   4.496  18.681  0.00  0.00    +0.000 A 
ATOM      6  C   UNL     1       2.643   3.150  18.897  0.00  0.00    +0.000 A 
ATOM      7  C   UNL     1       1.774   2.715  19.885  0.00  0.00    +0.000 A 
ATOM      8  C   UNL     1       1.148   3.717  20.641  0.00  0.00    +0.000 A 
ATOM      9  C   UNL     1       1.385   5.091  20.403  0.00  0.00    +0.000 A 
ATOM     10  C   UNL     1       2.276   5.518  19.382  0.00  0.00    +0.000 A 
ATOM     11  C   UNL     1       3.427   2.323  17.934  0.00  0.00    +0.000 C 
ATOM     12  C   UNL     1       4.212   3.372  17.091  0.00  0.00    +0.000 C 
ENDROOT
BRANCH   1  15
ATOM     13  O   UNL     1       1.205   9.076  17.704  0.00  0.00    +0.000 OA
ATOM     14  C   UNL     1       1.374   9.016  18.919  0.00  0.00    +0.000 C 
ATOM     15  N   UNL     1       2.000   7.968  19.582  0.00  0.00    +0.000 N 
ATOM     16  H   UNL     1       1.907   7.964  20.590  0.00  0.00    +0.000 HD
BRANCH  14  17
ATOM     17  C   UNL     1       0.868  10.073  19.774  0.00  0.00    +0.000 A 
ATOM     18  C   UNL     1       1.122  11.433  19.721  0.00  0.00    +0.000 A 
ATOM     19  C   UNL     1       0.427  12.021  20.798  0.00  0.00    +0.000 A 
ATOM     20  C   UNL     1      -0.212  10.989  21.448  0.00  0.00    +0.000 A 
ATOM     21 BR   UNL     1      -1.261  11.185  22.979  0.00  0.00    +0.000 Br
ATOM     22  O   UNL     1       0.034   9.800  20.826  0.00  0.00    +0.000 OA
ENDBRANCH  14  17
ENDBRANCH   1  15
TORSDOF 2
ENDMDL
MODEL 3
REMARK VINA RESULT:      -8.0      5.348      8.107
REMARK  Name = 
REMARK  2 active torsions:
REMARK  status: ('A' for Active; 'I' for Inactive)
REMARK    1  A    between atoms: C_2  and  C_16
REMARK    2  A    between atoms: N_3  and  C_4
REMARK                            x       y       z     vdW  Elec       q    Type
REMARK                         _______ _______ _______ _____ _____    ______ ____
ROOT
ATOM      1  C   UNL     1       4.017   4.993  16.917  0.00  0.00    +0.000 A 
ATOM      2  C   UNL     1       3.989   6.347  17.334  0.00  0.00    +0.000 A 
ATOM      3  C   UNL     1       3.353   6.769  18.511  0.00  0.00    +0.000 A 
ATOM      4  C   UNL     1       2.736   5.785  19.259  0.00  0.00    +0.000 A 
ATOM      5  C   UNL     1       2.728   4.468  18.847  0.00  0.00    +0.000 A 
ATOM      6  C   UNL     1       2.061   3.671  19.758  0.00  0.00    +0.000 A 
ATOM      7  C   UNL     1       1.924   2.307  19.563  0.00  0.00    +0.000 A 
ATOM      8  C   UNL     1       2.504   1.789  18.395  0.00  0.00    +0.000 A 
ATOM      9  C   UNL     1       3.195   2.613  17.476  0.00  0.00    +0.000 A 
ATOM     10  C   UNL     1       3.329   4.010  17.696  0.00  0.00    +0.000 A 
ATOM     11  C   UNL     1       1.570   4.489  20.906  0.00  0.00    +0.000 C 
ATOM     12  C   UNL     1       2.018   5.939  20.553  0.00  0.00    +0.000 C 
ENDROOT
BRANCH   1  15
ATOM     13  O   UNL     1       6.613   5.939  15.961  0.00  0.00    +0.000 OA
ATOM     14  C   UNL     1       5.942   5.128  15.326  0.00  0.00    +0.000 C 
ATOM     15  N   UNL     1       4.722   4.611  15.742  0.00  0.00    +0.000 N 
ATOM     16  H   UNL     1       4.373   3.821  15.213  0.00  0.00    +0.000 HD
BRANCH  14  17
ATOM     17  C   UNL     1       6.435   4.609  14.065  0.00  0.00    +0.000 A 
ATOM     18  C   UNL     1       7.380   5.151  13.210  0.00  0.00    +0.000 A 
ATOM     19  C   UNL     1       7.471   4.288  12.099  0.00  0.00    +0.000 A 
ATOM     20  C   UNL     1       6.576   3.267  12.336  0.00  0.00    +0.000 A 
ATOM     21 BR   UNL     1       6.253   1.847  11.171  0.00  0.00    +0.000 Br
ATOM     22  O   UNL     1       5.952   3.442  13.537  0.00  0.00    +0.000 OA
ENDBRANCH  14  17
ENDBRANCH   1  15
TORSDOF 2
ENDMDL
MODEL 4
REMARK VINA RESULT:      -7.9      1.068      1.156
REMARK  Name = 
REMARK  2 active torsions:
REMARK  status: ('A' for Active; 'I' for Inactive)
REMARK    1  A    between atoms: C_2  and  C_16
REMARK    2  A    between atoms: N_3  and  C_4
REMARK                            x       y       z     vdW  Elec       q    Type
REMARK                         _______ _______ _______ _____ _____    ______ ____
ROOT
ATOM      1  C   UNL     1       2.530   6.964  19.075  0.00  0.00    +0.000 A 
ATOM      2  C   UNL     1       3.445   7.217  18.021  0.00  0.00    +0.000 A 
ATOM      3  C   UNL     1       4.042   6.194  17.269  0.00  0.00    +0.000 A 
ATOM      4  C   UNL     1       3.698   4.901  17.614  0.00  0.00    +0.000 A 
ATOM      5  C   UNL     1       2.835   4.642  18.659  0.00  0.00    +0.000 A 
ATOM      6  C   UNL     1       2.637   3.282  18.808  0.00  0.00    +0.000 A 
ATOM      7  C   UNL     1       1.804   2.775  19.792  0.00  0.00    +0.000 A 
ATOM      8  C   UNL     1       1.178   3.721  20.618  0.00  0.00    +0.000 A 
ATOM      9  C   UNL     1       1.380   5.110  20.449  0.00  0.00    +0.000 A 
ATOM     10  C   UNL     1       2.234   5.611  19.430  0.00  0.00    +0.000 A 
ATOM     11  C   UNL     1       3.412   2.526  17.781  0.00  0.00    +0.000 C 
ATOM     12  C   UNL     1       4.152   3.636  16.976  0.00  0.00    +0.000 C 
ENDROOT
BRANCH   1  15
ATOM     13  O   UNL     1       1.038   9.226  17.977  0.00  0.00    +0.000 OA
ATOM     14  C   UNL     1       1.244   9.107  19.182  0.00  0.00    +0.000 C 
ATOM     15  N   UNL     1       1.912   8.040  19.770  0.00  0.00    +0.000 N 
ATOM     16  H   UNL     1       1.849   7.980  20.779  0.00  0.00    +0.000 HD
BRANCH  14  17
ATOM     17  C   UNL     1       0.740  10.105  20.105  0.00  0.00    +0.000 A 
ATOM     18  C   UNL     1      -0.214   9.969  21.100  0.00  0.00    +0.000 A 
ATOM     19  C   UNL     1      -0.381  11.241  21.684  0.00  0.00    +0.000 A 
ATOM     20  C   UNL     1       0.479  12.083  21.015  0.00  0.00    +0.000 A 
ATOM     21 BR   UNL     1       0.655  13.909  21.353  0.00  0.00    +0.000 Br
ATOM     22  O   UNL     1       1.179  11.401  20.063  0.00  0.00    +0.000 OA
ENDBRANCH  14  17
ENDBRANCH   1  15
TORSDOF 2
ENDMDL
MODEL 5
REMARK VINA RESULT:      -7.8      8.458     11.011
REMARK  Name = 
REMARK  2 active torsions:
REMARK  status: ('A' for Active; 'I' for Inactive)
REMARK    1  A    between atoms: C_2  and  C_16
REMARK    2  A    between atoms: N_3  and  C_4
REMARK                            x       y       z     vdW  Elec       q    Type
REMARK                         _______ _______ _______ _____ _____    ______ ____
ROOT
ATOM      1  C   UNL     1       9.479  10.647  19.864  0.00  0.00    +0.000 A 
ATOM      2  C   UNL     1       9.054  11.081  21.145  0.00  0.00    +0.000 A 
ATOM      3  C   UNL     1       9.390  12.336  21.674  0.00  0.00    +0.000 A 
ATOM      4  C   UNL     1      10.175  13.145  20.876  0.00  0.00    +0.000 A 
ATOM      5  C   UNL     1      10.622  12.721  19.642  0.00  0.00    +0.000 A 
ATOM      6  C   UNL     1      11.380  13.701  19.029  0.00  0.00    +0.000 A 
ATOM      7  C   UNL     1      11.936  13.508  17.775  0.00  0.00    +0.000 A 
ATOM      8  C   UNL     1      11.681  12.268  17.171  0.00  0.00    +0.000 A 
ATOM      9  C   UNL     1      10.894  11.278  17.803  0.00  0.00    +0.000 A 
ATOM     10  C   UNL     1      10.328  11.496  19.087  0.00  0.00    +0.000 A 
ATOM     11  C   UNL     1      11.464  14.914  19.895  0.00  0.00    +0.000 C 
ATOM     12  C   UNL     1      10.653  14.524  21.167  0.00  0.00    +0.000 C 
ENDROOT
BRANCH   1  15
ATOM     13  O   UNL     1       7.761  10.084  17.566  0.00  0.00    +0.000 OA
ATOM     14  C   UNL     1       8.216   9.188  18.272  0.00  0.00    +0.000 C 
ATOM     15  N   UNL     1       9.066   9.385  19.354  0.00  0.00    +0.000 N 
ATOM     16  H   UNL     1       9.506   8.553  19.728  0.00  0.00    +0.000 HD
BRANCH  14  17
ATOM     17  C   UNL     1       7.906   7.803  17.974  0.00  0.00    +0.000 A 
ATOM     18  C   UNL     1       8.062   6.684  18.774  0.00  0.00    +0.000 A 
ATOM     19  C   UNL     1       7.658   5.572  18.006  0.00  0.00    +0.000 A 
ATOM     20  C   UNL     1       7.279   6.073  16.781  0.00  0.00    +0.000 A 
ATOM     21 BR   UNL     1       6.681   5.038  15.349  0.00  0.00    +0.000 Br
ATOM     22  O   UNL     1       7.409   7.431  16.753  0.00  0.00    +0.000 OA
ENDBRANCH  14  17
ENDBRANCH   1  15
TORSDOF 2
ENDMDL
MODEL 6
REMARK VINA RESULT:      -7.7      1.607      2.194
REMARK  Name = 
REMARK  2 active torsions:
REMARK  status: ('A' for Active; 'I' for Inactive)
REMARK    1  A    between atoms: C_2  and  C_16
REMARK    2  A    between atoms: N_3  and  C_4
REMARK                            x       y       z     vdW  Elec       q    Type
REMARK                         _______ _______ _______ _____ _____    ______ ____
ROOT
ATOM      1  C   UNL     1       3.060   6.970  18.101  0.00  0.00    +0.000 A 
ATOM      2  C   UNL     1       4.211   7.544  17.505  0.00  0.00    +0.000 A 
ATOM      3  C   UNL     1       5.145   6.793  16.774  0.00  0.00    +0.000 A 
ATOM      4  C   UNL     1       4.891   5.440  16.665  0.00  0.00    +0.000 A 
ATOM      5  C   UNL     1       3.792   4.864  17.269  0.00  0.00    +0.000 A 
ATOM      6  C   UNL     1       3.745   3.506  17.014  0.00  0.00    +0.000 A 
ATOM      7  C   UNL     1       2.727   2.711  17.514  0.00  0.00    +0.000 A 
ATOM      8  C   UNL     1       1.754   3.365  18.285  0.00  0.00    +0.000 A 
ATOM      9  C   UNL     1       1.807   4.757  18.529  0.00  0.00    +0.000 A 
ATOM     10  C   UNL     1       2.856   5.557  18.004  0.00  0.00    +0.000 A 
ATOM     11  C   UNL     1       4.894   3.097  16.155  0.00  0.00    +0.000 C 
ATOM     12  C   UNL     1       5.687   4.419  15.932  0.00  0.00    +0.000 C 
ENDROOT
BRANCH   1  15
ATOM     13  O   UNL     1       2.038   9.602  17.346  0.00  0.00    +0.000 OA
ATOM     14  C   UNL     1       1.699   9.048  18.388  0.00  0.00    +0.000 C 
ATOM     15  N   UNL     1       2.118   7.785  18.786  0.00  0.00    +0.000 N 
ATOM     16  H   UNL     1       1.619   7.380  19.570  0.00  0.00    +0.000 HD
BRANCH  14  17
ATOM     17  C   UNL     1       0.762   9.699  19.284  0.00  0.00    +0.000 A 
ATOM     18  C   UNL     1      -0.154  10.700  19.009  0.00  0.00    +0.000 A 
ATOM     19  C   UNL     1      -0.791  11.019  20.226  0.00  0.00    +0.000 A 
ATOM     20  C   UNL     1      -0.228  10.196  21.177  0.00  0.00    +0.000 A 
ATOM     21 BR   UNL     1      -0.672  10.208  22.988  0.00  0.00    +0.000 Br
ATOM     22  O   UNL     1       0.707   9.377  20.614  0.00  0.00    +0.000 OA
ENDBRANCH  14  17
ENDBRANCH   1  15
TORSDOF 2
ENDMDL
MODEL 7
REMARK VINA RESULT:      -7.7      5.306      8.355
REMARK  Name = 
REMARK  2 active torsions:
REMARK  status: ('A' for Active; 'I' for Inactive)
REMARK    1  A    between atoms: C_2  and  C_16
REMARK    2  A    between atoms: N_3  and  C_4
REMARK                            x       y       z     vdW  Elec       q    Type
REMARK                         _______ _______ _______ _____ _____    ______ ____
ROOT
ATOM      1  C   UNL     1       4.114   4.116  17.419  0.00  0.00    +0.000 A 
ATOM      2  C   UNL     1       3.965   2.976  18.249  0.00  0.00    +0.000 A 
ATOM      3  C   UNL     1       3.286   3.011  19.476  0.00  0.00    +0.000 A 
ATOM      4  C   UNL     1       2.761   4.233  19.851  0.00  0.00    +0.000 A 
ATOM      5  C   UNL     1       2.928   5.356  19.067  0.00  0.00    +0.000 A 
ATOM      6  C   UNL     1       2.312   6.453  19.641  0.00  0.00    +0.000 A 
ATOM      7  C   UNL     1       2.339   7.698  19.035  0.00  0.00    +0.000 A 
ATOM      8  C   UNL     1       3.022   7.775  17.812  0.00  0.00    +0.000 A 
ATOM      9  C   UNL     1       3.638   6.643  17.229  0.00  0.00    +0.000 A 
ATOM     10  C   UNL     1       3.595   5.373  17.863  0.00  0.00    +0.000 A 
ATOM     11  C   UNL     1       1.652   6.068  20.923  0.00  0.00    +0.000 C 
ATOM     12  C   UNL     1       1.976   4.552  21.073  0.00  0.00    +0.000 C 
ENDROOT
BRANCH   1  15
ATOM     13  O   UNL     1       6.829   4.929  16.702  0.00  0.00    +0.000 OA
ATOM     14  C   UNL     1       6.053   4.453  15.877  0.00  0.00    +0.000 C 
ATOM     15  N   UNL     1       4.766   4.014  16.160  0.00  0.00    +0.000 N 
ATOM     16  H   UNL     1       4.310   3.480  15.429  0.00  0.00    +0.000 HD
BRANCH  14  17
ATOM     17  C   UNL     1       6.477   4.279  14.501  0.00  0.00    +0.000 A 
ATOM     18  C   UNL     1       7.282   5.098  13.727  0.00  0.00    +0.000 A 
ATOM     19  C   UNL     1       7.355   4.510  12.447  0.00  0.00    +0.000 A 
ATOM     20  C   UNL     1       6.591   3.365  12.511  0.00  0.00    +0.000 A 
ATOM     21 BR   UNL     1       6.305   2.199  11.082  0.00  0.00    +0.000 Br
ATOM     22  O   UNL     1       6.065   3.204  13.759  0.00  0.00    +0.000 OA
ENDBRANCH  14  17
ENDBRANCH   1  15
TORSDOF 2
ENDMDL
MODEL 8
REMARK VINA RESULT:      -7.6      4.395      7.745
REMARK  Name = 
REMARK  2 active torsions:
REMARK  status: ('A' for Active; 'I' for Inactive)
REMARK    1  A    between atoms: C_2  and  C_16
REMARK    2  A    between atoms: N_3  and  C_4
REMARK                            x       y       z     vdW  Elec       q    Type
REMARK                         _______ _______ _______ _____ _____    ______ ____
ROOT
ATOM      1  C   UNL     1       2.973   6.183  18.589  0.00  0.00    +0.000 A 
ATOM      2  C   UNL     1       2.695   5.376  19.721  0.00  0.00    +0.000 A 
ATOM      3  C   UNL     1       1.925   5.825  20.806  0.00  0.00    +0.000 A 
ATOM      4  C   UNL     1       1.446   7.118  20.722  0.00  0.00    +0.000 A 
ATOM      5  C   UNL     1       1.737   7.923  19.641  0.00  0.00    +0.000 A 
ATOM      6  C   UNL     1       1.144   9.164  19.778  0.00  0.00    +0.000 A 
ATOM      7  C   UNL     1       1.291  10.147  18.812  0.00  0.00    +0.000 A 
ATOM      8  C   UNL     1       2.069   9.805  17.696  0.00  0.00    +0.000 A 
ATOM      9  C   UNL     1       2.661   8.529  17.562  0.00  0.00    +0.000 A 
ATOM     10  C   UNL     1       2.496   7.531  18.560  0.00  0.00    +0.000 A 
ATOM     11  C   UNL     1       0.366   9.233  21.049  0.00  0.00    +0.000 C 
ATOM     12  C   UNL     1       0.588   7.837  21.702  0.00  0.00    +0.000 C 
ENDROOT
BRANCH   1  15
ATOM     13  O   UNL     1       5.866   6.202  18.171  0.00  0.00    +0.000 OA
ATOM     14  C   UNL     1       5.092   5.735  17.339  0.00  0.00    +0.000 C 
ATOM     15  N   UNL     1       3.713   5.662  17.493  0.00  0.00    +0.000 N 
ATOM     16  H   UNL     1       3.223   5.090  16.815  0.00  0.00    +0.000 HD
BRANCH  14  17
ATOM     17  C   UNL     1       5.608   5.168  16.108  0.00  0.00    +0.000 A 
ATOM     18  C   UNL     1       5.327   3.943  15.528  0.00  0.00    +0.000 A 
ATOM     19  C   UNL     1       6.118   3.850  14.364  0.00  0.00    +0.000 A 
ATOM     20  C   UNL     1       6.837   5.023  14.298  0.00  0.00    +0.000 A 
ATOM     21 BR   UNL     1       8.079   5.433  12.967  0.00  0.00    +0.000 Br
ATOM     22  O   UNL     1       6.524   5.841  15.344  0.00  0.00    +0.000 OA
ENDBRANCH  14  17
ENDBRANCH   1  15
TORSDOF 2
ENDMDL
MODEL 9
REMARK VINA RESULT:      -7.6      5.171      8.105
REMARK  Name = 
REMARK  2 active torsions:
REMARK  status: ('A' for Active; 'I' for Inactive)
REMARK    1  A    between atoms: C_2  and  C_16
REMARK    2  A    between atoms: N_3  and  C_4
REMARK                            x       y       z     vdW  Elec       q    Type
REMARK                         _______ _______ _______ _____ _____    ______ ____
ROOT
ATOM      1  C   UNL     1       3.927   3.593  17.230  0.00  0.00    +0.000 A 
ATOM      2  C   UNL     1       3.704   2.294  17.752  0.00  0.00    +0.000 A 
ATOM      3  C   UNL     1       2.995   2.063  18.941  0.00  0.00    +0.000 A 
ATOM      4  C   UNL     1       2.520   3.182  19.597  0.00  0.00    +0.000 A 
ATOM      5  C   UNL     1       2.760   4.452  19.116  0.00  0.00    +0.000 A 
ATOM      6  C   UNL     1       2.182   5.406  19.935  0.00  0.00    +0.000 A 
ATOM      7  C   UNL     1       2.284   6.758  19.654  0.00  0.00    +0.000 A 
ATOM      8  C   UNL     1       3.001   7.096  18.497  0.00  0.00    +0.000 A 
ATOM      9  C   UNL     1       3.578   6.112  17.661  0.00  0.00    +0.000 A 
ATOM     10  C   UNL     1       3.458   4.729  17.963  0.00  0.00    +0.000 A 
ATOM     11  C   UNL     1       1.471   4.754  21.074  0.00  0.00    +0.000 C 
ATOM     12  C   UNL     1       1.719   3.232  20.850  0.00  0.00    +0.000 C 
ENDROOT
BRANCH   1  15
ATOM     13  O   UNL     1       6.749   4.204  16.771  0.00  0.00    +0.000 OA
ATOM     14  C   UNL     1       5.949   4.093  15.846  0.00  0.00    +0.000 C 
ATOM     15  N   UNL     1       4.606   3.769  15.993  0.00  0.00    +0.000 N 
ATOM     16  H   UNL     1       4.112   3.533  15.141  0.00  0.00    +0.000 HD
BRANCH  14  17
ATOM     17  C   UNL     1       6.397   4.265  14.477  0.00  0.00    +0.000 A 
ATOM     18  C   UNL     1       6.162   3.459  13.376  0.00  0.00    +0.000 A 
ATOM     19  C   UNL     1       6.852   4.036  12.290  0.00  0.00    +0.000 A 
ATOM     20  C   UNL     1       7.469   5.163  12.788  0.00  0.00    +0.000 A 
ATOM     21 BR   UNL     1       8.554   6.307  11.791  0.00  0.00    +0.000 Br
ATOM     22  O   UNL     1       7.187   5.323  14.113  0.00  0.00    +0.000 OA
ENDBRANCH  14  17
ENDBRANCH   1  15
TORSDOF 2
ENDMDL
