MODEL 1
REMARK VINA RESULT:      -8.5      0.000      0.000
REMARK  Name = 
REMARK  7 active torsions:
REMARK  status: ('A' for Active; 'I' for Inactive)
REMARK    1  A    between atoms: C_1  and  C_2
REMARK    2  A    between atoms: C_2  and  O_3
REMARK    3  A    between atoms: O_3  and  C_4
REMARK    4  A    between atoms: C_4  and  C_6
REMARK    5  A    between atoms: C_17  and  C_18
REMARK    6  A    between atoms: N_19  and  C_20
REMARK    7  A    between atoms: C_20  and  C_21
REMARK                            x       y       z     vdW  Elec       q    Type
REMARK                         _______ _______ _______ _____ _____    ______ ____
ROOT
ATOM      1  C   UNL     1       3.625   4.248  17.323  0.00  0.00    +0.000 A 
ATOM      2  C   UNL     1       3.986   3.834  16.034  0.00  0.00    +0.000 A 
ATOM      3  C   UNL     1       5.146   4.361  15.457  0.00  0.00    +0.000 A 
ATOM      4  C   UNL     1       5.904   5.230  16.224  0.00  0.00    +0.000 A 
ATOM      5  N   UNL     1       6.985   5.602  15.449  0.00  0.00    +0.000 N 
ATOM      6  C   UNL     1       6.953   4.979  14.227  0.00  0.00    +0.000 A 
ATOM      7  C   UNL     1       7.859   5.058  13.165  0.00  0.00    +0.000 A 
ATOM      8  C   UNL     1       7.586   4.297  12.029  0.00  0.00    +0.000 A 
ATOM      9  C   UNL     1       6.446   3.499  11.959  0.00  0.00    +0.000 A 
ATOM     10  C   UNL     1       5.545   3.440  13.031  0.00  0.00    +0.000 A 
ATOM     11  C   UNL     1       5.805   4.190  14.196  0.00  0.00    +0.000 A 
ATOM     12  C   UNL     1       5.575   5.604  17.532  0.00  0.00    +0.000 A 
ATOM     13  C   UNL     1       6.500   6.478  18.340  0.00  0.00    +0.000 C 
ATOM     14  N   UNL     1       4.378   5.151  18.025  0.00  0.00    +0.000 N 
ATOM     15  H   UNL     1       7.715   6.244  15.718  0.00  0.00    +0.000 HD
ENDROOT
BRANCH   1  16
ATOM     16  C   UNL     1       2.390   3.659  17.913  0.00  0.00    +0.000 C 
ATOM     17  O   UNL     1       1.259   3.932  17.542  0.00  0.00    +0.000 OA
BRANCH  16  18
ATOM     18  O   UNL     1       2.725   2.827  18.929  0.00  0.00    +0.000 OA
BRANCH  18  20
ATOM     19  C   UNL     1       1.494   3.230  20.975  0.00  0.00    +0.000 C 
ATOM     20  C   UNL     1       1.639   2.350  19.748  0.00  0.00    +0.000 C 
ENDBRANCH  18  20
ENDBRANCH  16  18
ENDBRANCH   1  16
BRANCH  14  21
ATOM     21  C   UNL     1       3.886   5.696  19.336  0.00  0.00    +0.000 C 
BRANCH  21  22
ATOM     22  C   UNL     1       2.945   6.871  19.216  0.00  0.00    +0.000 A 
ATOM     23  C   UNL     1       2.830   7.663  18.065  0.00  0.00    +0.000 A 
ATOM     24  C   UNL     1       2.010   8.794  18.062  0.00  0.00    +0.000 A 
ATOM     25  C   UNL     1       1.268   9.129  19.191  0.00  0.00    +0.000 A 
ATOM     26  C   UNL     1       1.315   8.314  20.316  0.00  0.00    +0.000 A 
ATOM     27  C   UNL     1       2.141   7.190  20.327  0.00  0.00    +0.000 A 
ENDBRANCH  21  22
ENDBRANCH  14  21
TORSDOF 5
ENDMDL
MODEL 2
REMARK VINA RESULT:      -8.1      1.168      1.620
REMARK  Name = 
REMARK  7 active torsions:
REMARK  status: ('A' for Active; 'I' for Inactive)
REMARK    1  A    between atoms: C_1  and  C_2
REMARK    2  A    between atoms: C_2  and  O_3
REMARK    3  A    between atoms: O_3  and  C_4
REMARK    4  A    between atoms: C_4  and  C_6
REMARK    5  A    between atoms: C_17  and  C_18
REMARK    6  A    between atoms: N_19  and  C_20
REMARK    7  A    between atoms: C_20  and  C_21
REMARK                            x       y       z     vdW  Elec       q    Type
REMARK                         _______ _______ _______ _____ _____    ______ ____
ROOT
ATOM      1  C   UNL     1       4.574   3.303  17.341  0.00  0.00    +0.000 A 
ATOM      2  C   UNL     1       4.813   3.156  15.968  0.00  0.00    +0.000 A 
ATOM      3  C   UNL     1       5.788   3.955  15.364  0.00  0.00    +0.000 A 
ATOM      4  C   UNL     1       6.502   4.818  16.179  0.00  0.00    +0.000 A 
ATOM      5  N   UNL     1       7.396   5.483  15.362  0.00  0.00    +0.000 N 
ATOM      6  C   UNL     1       7.293   5.053  14.064  0.00  0.00    +0.000 A 
ATOM      7  C   UNL     1       8.022   5.446  12.937  0.00  0.00    +0.000 A 
ATOM      8  C   UNL     1       7.715   4.826  11.726  0.00  0.00    +0.000 A 
ATOM      9  C   UNL     1       6.711   3.863  11.649  0.00  0.00    +0.000 A 
ATOM     10  C   UNL     1       5.986   3.489  12.788  0.00  0.00    +0.000 A 
ATOM     11  C   UNL     1       6.286   4.091  14.027  0.00  0.00    +0.000 A 
ATOM     12  C   UNL     1       6.303   4.931  17.559  0.00  0.00    +0.000 A 
ATOM     13  C   UNL     1       7.185   5.821  18.396  0.00  0.00    +0.000 C 
ATOM     14  N   UNL     1       5.269   4.209  18.098  0.00  0.00    +0.000 N 
ATOM     15  H   UNL     1       8.049   6.195  15.655  0.00  0.00    +0.000 HD
ENDROOT
BRANCH   1  16
ATOM     16  C   UNL     1       3.535   2.429  17.956  0.00  0.00    +0.000 C 
ATOM     17  O   UNL     1       3.750   1.656  18.877  0.00  0.00    +0.000 OA
BRANCH  16  18
ATOM     18  O   UNL     1       2.357   2.601  17.307  0.00  0.00    +0.000 OA
BRANCH  18  20
ATOM     19  C   UNL     1       0.519   2.660  18.881  0.00  0.00    +0.000 C 
ATOM     20  C   UNL     1       1.398   3.467  17.944  0.00  0.00    +0.000 C 
ENDBRANCH  18  20
ENDBRANCH  16  18
ENDBRANCH   1  16
BRANCH  14  21
ATOM     21  C   UNL     1       4.883   4.459  19.529  0.00  0.00    +0.000 C 
BRANCH  21  22
ATOM     22  C   UNL     1       3.676   5.348  19.710  0.00  0.00    +0.000 A 
ATOM     23  C   UNL     1       3.452   6.518  18.971  0.00  0.00    +0.000 A 
ATOM     24  C   UNL     1       2.363   7.343  19.262  0.00  0.00    +0.000 A 
ATOM     25  C   UNL     1       1.464   6.994  20.267  0.00  0.00    +0.000 A 
ATOM     26  C   UNL     1       1.631   5.800  20.960  0.00  0.00    +0.000 A 
ATOM     27  C   UNL     1       2.724   4.980  20.680  0.00  0.00    +0.000 A 
ENDBRANCH  21  22
ENDBRANCH  14  21
TORSDOF 5
ENDMDL
MODEL 3
REMARK VINA RESULT:      -8.1      2.968      7.412
REMARK  Name = 
REMARK  7 active torsions:
REMARK  status: ('A' for Active; 'I' for Inactive)
REMARK    1  A    between atoms: C_1  and  C_2
REMARK    2  A    between atoms: C_2  and  O_3
REMARK    3  A    between atoms: O_3  and  C_4
REMARK    4  A    between atoms: C_4  and  C_6
REMARK    5  A    between atoms: C_17  and  C_18
REMARK    6  A    between atoms: N_19  and  C_20
REMARK    7  A    between atoms: C_20  and  C_21
REMARK                            x       y       z     vdW  Elec       q    Type
REMARK                         _______ _______ _______ _____ _____    ______ ____
ROOT
ATOM      1  C   UNL     1       2.115   5.719  19.906  0.00  0.00    +0.000 A 
ATOM      2  C   UNL     1       1.391   6.419  20.881  0.00  0.00    +0.000 A 
ATOM      3  C   UNL     1       1.204   7.796  20.721  0.00  0.00    +0.000 A 
ATOM      4  C   UNL     1       1.706   8.380  19.571  0.00  0.00    +0.000 A 
ATOM      5  N   UNL     1       1.393   9.724  19.641  0.00  0.00    +0.000 N 
ATOM      6  C   UNL     1       0.687  10.007  20.782  0.00  0.00    +0.000 A 
ATOM      7  C   UNL     1       0.162  11.226  21.223  0.00  0.00    +0.000 A 
ATOM      8  C   UNL     1      -0.535  11.225  22.431  0.00  0.00    +0.000 A 
ATOM      9  C   UNL     1      -0.688  10.053  23.169  0.00  0.00    +0.000 A 
ATOM     10  C   UNL     1      -0.146   8.843  22.714  0.00  0.00    +0.000 A 
ATOM     11  C   UNL     1       0.551   8.815  21.490  0.00  0.00    +0.000 A 
ATOM     12  C   UNL     1       2.383   7.675  18.569  0.00  0.00    +0.000 A 
ATOM     13  C   UNL     1       2.816   8.361  17.299  0.00  0.00    +0.000 C 
ATOM     14  N   UNL     1       2.639   6.349  18.809  0.00  0.00    +0.000 N 
ATOM     15  H   UNL     1       1.639  10.426  18.959  0.00  0.00    +0.000 HD
ENDROOT
BRANCH   1  16
ATOM     16  C   UNL     1       2.287   4.251  20.101  0.00  0.00    +0.000 C 
ATOM     17  O   UNL     1       3.172   3.751  20.777  0.00  0.00    +0.000 OA
BRANCH  16  18
ATOM     18  O   UNL     1       1.347   3.586  19.385  0.00  0.00    +0.000 OA
BRANCH  18  20
ATOM     19  C   UNL     1       2.459   2.172  17.765  0.00  0.00    +0.000 C 
ATOM     20  C   UNL     1       1.651   2.219  19.048  0.00  0.00    +0.000 C 
ENDBRANCH  18  20
ENDBRANCH  16  18
ENDBRANCH   1  16
BRANCH  14  21
ATOM     21  C   UNL     1       3.543   5.607  17.866  0.00  0.00    +0.000 C 
BRANCH  21  22
ATOM     22  C   UNL     1       5.018   5.816  18.111  0.00  0.00    +0.000 A 
ATOM     23  C   UNL     1       5.716   5.255  19.190  0.00  0.00    +0.000 A 
ATOM     24  C   UNL     1       7.059   5.573  19.408  0.00  0.00    +0.000 A 
ATOM     25  C   UNL     1       7.733   6.422  18.534  0.00  0.00    +0.000 A 
ATOM     26  C   UNL     1       7.076   6.928  17.418  0.00  0.00    +0.000 A 
ATOM     27  C   UNL     1       5.731   6.623  17.203  0.00  0.00    +0.000 A 
ENDBRANCH  21  22
ENDBRANCH  14  21
TORSDOF 5
ENDMDL
MODEL 4
REMARK VINA RESULT:      -7.9      0.726      1.338
REMARK  Name = 
REMARK  7 active torsions:
REMARK  status: ('A' for Active; 'I' for Inactive)
REMARK    1  A    between atoms: C_1  and  C_2
REMARK    2  A    between atoms: C_2  and  O_3
REMARK    3  A    between atoms: O_3  and  C_4
REMARK    4  A    between atoms: C_4  and  C_6
REMARK    5  A    between atoms: C_17  and  C_18
REMARK    6  A    between atoms: N_19  and  C_20
REMARK    7  A    between atoms: C_20  and  C_21
REMARK                            x       y       z     vdW  Elec       q    Type
REMARK                         _______ _______ _______ _____ _____    ______ ____
ROOT
ATOM      1  C   UNL     1       4.172   3.671  17.316  0.00  0.00    +0.000 A 
ATOM      2  C   UNL     1       4.514   3.359  15.993  0.00  0.00    +0.000 A 
ATOM      3  C   UNL     1       5.522   4.098  15.365  0.00  0.00    +0.000 A 
ATOM      4  C   UNL     1       6.163   5.070  16.115  0.00  0.00    +0.000 A 
ATOM      5  N   UNL     1       7.107   5.648  15.288  0.00  0.00    +0.000 N 
ATOM      6  C   UNL     1       7.105   5.059  14.050  0.00  0.00    +0.000 A 
ATOM      7  C   UNL     1       7.910   5.324  12.938  0.00  0.00    +0.000 A 
ATOM      8  C   UNL     1       7.701   4.552  11.795  0.00  0.00    +0.000 A 
ATOM      9  C   UNL     1       6.718   3.566  11.767  0.00  0.00    +0.000 A 
ATOM     10  C   UNL     1       5.915   3.321  12.889  0.00  0.00    +0.000 A 
ATOM     11  C   UNL     1       6.116   4.078  14.061  0.00  0.00    +0.000 A 
ATOM     12  C   UNL     1       5.860   5.349  17.453  0.00  0.00    +0.000 A 
ATOM     13  C   UNL     1       6.667   6.355  18.233  0.00  0.00    +0.000 C 
ATOM     14  N   UNL     1       4.798   4.678  18.001  0.00  0.00    +0.000 N 
ATOM     15  H   UNL     1       7.727   6.405  15.535  0.00  0.00    +0.000 HD
ENDROOT
BRANCH   1  16
ATOM     16  C   UNL     1       3.102   2.857  17.959  0.00  0.00    +0.000 C 
ATOM     17  O   UNL     1       3.280   1.747  18.435  0.00  0.00    +0.000 OA
BRANCH  16  18
ATOM     18  O   UNL     1       1.923   3.523  17.887  0.00  0.00    +0.000 OA
BRANCH  18  20
ATOM     19  C   UNL     1       0.876   3.581  20.069  0.00  0.00    +0.000 C 
ATOM     20  C   UNL     1       0.840   2.988  18.674  0.00  0.00    +0.000 C 
ENDBRANCH  18  20
ENDBRANCH  16  18
ENDBRANCH   1  16
BRANCH  14  21
ATOM     21  C   UNL     1       4.305   5.095  19.358  0.00  0.00    +0.000 C 
BRANCH  21  22
ATOM     22  C   UNL     1       3.362   6.274  19.351  0.00  0.00    +0.000 A 
ATOM     23  C   UNL     1       2.591   6.662  20.456  0.00  0.00    +0.000 A 
ATOM     24  C   UNL     1       1.667   7.704  20.345  0.00  0.00    +0.000 A 
ATOM     25  C   UNL     1       1.524   8.394  19.144  0.00  0.00    +0.000 A 
ATOM     26  C   UNL     1       2.332   8.069  18.060  0.00  0.00    +0.000 A 
ATOM     27  C   UNL     1       3.248   7.022  18.164  0.00  0.00    +0.000 A 
ENDBRANCH  21  22
ENDBRANCH  14  21
TORSDOF 5
ENDMDL
MODEL 5
REMARK VINA RESULT:      -7.8      0.757      1.237
REMARK  Name = 
REMARK  7 active torsions:
REMARK  status: ('A' for Active; 'I' for Inactive)
REMARK    1  A    between atoms: C_1  and  C_2
REMARK    2  A    between atoms: C_2  and  O_3
REMARK    3  A    between atoms: O_3  and  C_4
REMARK    4  A    between atoms: C_4  and  C_6
REMARK    5  A    between atoms: C_17  and  C_18
REMARK    6  A    between atoms: N_19  and  C_20
REMARK    7  A    between atoms: C_20  and  C_21
REMARK                            x       y       z     vdW  Elec       q    Type
REMARK                         _______ _______ _______ _____ _____    ______ ____
ROOT
ATOM      1  C   UNL     1       3.512   4.274  17.343  0.00  0.00    +0.000 A 
ATOM      2  C   UNL     1       3.882   3.860  16.056  0.00  0.00    +0.000 A 
ATOM      3  C   UNL     1       5.062   4.364  15.499  0.00  0.00    +0.000 A 
ATOM      4  C   UNL     1       5.828   5.211  16.282  0.00  0.00    +0.000 A 
ATOM      5  N   UNL     1       6.928   5.563  15.524  0.00  0.00    +0.000 N 
ATOM      6  C   UNL     1       6.900   4.948  14.299  0.00  0.00    +0.000 A 
ATOM      7  C   UNL     1       7.823   5.013  13.250  0.00  0.00    +0.000 A 
ATOM      8  C   UNL     1       7.549   4.265  12.106  0.00  0.00    +0.000 A 
ATOM      9  C   UNL     1       6.391   3.494  12.014  0.00  0.00    +0.000 A 
ATOM     10  C   UNL     1       5.474   3.449  13.073  0.00  0.00    +0.000 A 
ATOM     11  C   UNL     1       5.735   4.186  14.246  0.00  0.00    +0.000 A 
ATOM     12  C   UNL     1       5.489   5.585  17.588  0.00  0.00    +0.000 A 
ATOM     13  C   UNL     1       6.422   6.432  18.414  0.00  0.00    +0.000 C 
ATOM     14  N   UNL     1       4.276   5.156  18.060  0.00  0.00    +0.000 N 
ATOM     15  H   UNL     1       7.668   6.187  15.808  0.00  0.00    +0.000 HD
ENDROOT
BRANCH   1  16
ATOM     16  C   UNL     1       2.255   3.710  17.911  0.00  0.00    +0.000 C 
ATOM     17  O   UNL     1       1.147   3.894  17.434  0.00  0.00    +0.000 OA
BRANCH  16  18
ATOM     18  O   UNL     1       2.541   3.015  19.040  0.00  0.00    +0.000 OA
BRANCH  18  20
ATOM     19  C   UNL     1       4.552   2.037  19.966  0.00  0.00    +0.000 C 
ATOM     20  C   UNL     1       3.478   1.929  18.901  0.00  0.00    +0.000 C 
ENDBRANCH  18  20
ENDBRANCH  16  18
ENDBRANCH   1  16
BRANCH  14  21
ATOM     21  C   UNL     1       3.777   5.704  19.368  0.00  0.00    +0.000 C 
BRANCH  21  22
ATOM     22  C   UNL     1       2.919   6.940  19.246  0.00  0.00    +0.000 A 
ATOM     23  C   UNL     1       2.124   7.443  20.287  0.00  0.00    +0.000 A 
ATOM     24  C   UNL     1       1.280   8.535  20.070  0.00  0.00    +0.000 A 
ATOM     25  C   UNL     1       1.244   9.162  18.827  0.00  0.00    +0.000 A 
ATOM     26  C   UNL     1       2.079   8.721  17.806  0.00  0.00    +0.000 A 
ATOM     27  C   UNL     1       2.915   7.624  18.015  0.00  0.00    +0.000 A 
ENDBRANCH  21  22
ENDBRANCH  14  21
TORSDOF 5
ENDMDL
MODEL 6
REMARK VINA RESULT:      -7.7      1.234      1.961
REMARK  Name = 
REMARK  7 active torsions:
REMARK  status: ('A' for Active; 'I' for Inactive)
REMARK    1  A    between atoms: C_1  and  C_2
REMARK    2  A    between atoms: C_2  and  O_3
REMARK    3  A    between atoms: O_3  and  C_4
REMARK    4  A    between atoms: C_4  and  C_6
REMARK    5  A    between atoms: C_17  and  C_18
REMARK    6  A    between atoms: N_19  and  C_20
REMARK    7  A    between atoms: C_20  and  C_21
REMARK                            x       y       z     vdW  Elec       q    Type
REMARK                         _______ _______ _______ _____ _____    ______ ____
ROOT
ATOM      1  C   UNL     1       4.683   3.238  17.503  0.00  0.00    +0.000 A 
ATOM      2  C   UNL     1       4.881   3.070  16.125  0.00  0.00    +0.000 A 
ATOM      3  C   UNL     1       5.806   3.891  15.472  0.00  0.00    +0.000 A 
ATOM      4  C   UNL     1       6.514   4.796  16.245  0.00  0.00    +0.000 A 
ATOM      5  N   UNL     1       7.356   5.476  15.386  0.00  0.00    +0.000 N 
ATOM      6  C   UNL     1       7.226   5.015  14.101  0.00  0.00    +0.000 A 
ATOM      7  C   UNL     1       7.902   5.410  12.942  0.00  0.00    +0.000 A 
ATOM      8  C   UNL     1       7.578   4.754  11.755  0.00  0.00    +0.000 A 
ATOM      9  C   UNL     1       6.609   3.753  11.731  0.00  0.00    +0.000 A 
ATOM     10  C   UNL     1       5.936   3.378  12.901  0.00  0.00    +0.000 A 
ATOM     11  C   UNL     1       6.254   4.016  14.117  0.00  0.00    +0.000 A 
ATOM     12  C   UNL     1       6.357   4.931  17.630  0.00  0.00    +0.000 A 
ATOM     13  C   UNL     1       7.232   5.871  18.418  0.00  0.00    +0.000 C 
ATOM     14  N   UNL     1       5.368   4.184  18.217  0.00  0.00    +0.000 N 
ATOM     15  H   UNL     1       7.991   6.217  15.642  0.00  0.00    +0.000 HD
ENDROOT
BRANCH   1  16
ATOM     16  C   UNL     1       3.698   2.339  18.169  0.00  0.00    +0.000 C 
ATOM     17  O   UNL     1       3.945   1.671  19.161  0.00  0.00    +0.000 OA
BRANCH  16  18
ATOM     18  O   UNL     1       2.530   2.357  17.480  0.00  0.00    +0.000 OA
BRANCH  18  20
ATOM     19  C   UNL     1       1.178   4.363  17.399  0.00  0.00    +0.000 C 
ATOM     20  C   UNL     1       1.430   3.046  18.107  0.00  0.00    +0.000 C 
ENDBRANCH  18  20
ENDBRANCH  16  18
ENDBRANCH   1  16
BRANCH  14  21
ATOM     21  C   UNL     1       5.021   4.450  19.655  0.00  0.00    +0.000 C 
BRANCH  21  22
ATOM     22  C   UNL     1       3.790   5.299  19.859  0.00  0.00    +0.000 A 
ATOM     23  C   UNL     1       2.754   4.970  20.745  0.00  0.00    +0.000 A 
ATOM     24  C   UNL     1       1.599   5.754  20.809  0.00  0.00    +0.000 A 
ATOM     25  C   UNL     1       1.478   6.894  20.018  0.00  0.00    +0.000 A 
ATOM     26  C   UNL     1       2.526   7.275  19.187  0.00  0.00    +0.000 A 
ATOM     27  C   UNL     1       3.676   6.488  19.113  0.00  0.00    +0.000 A 
ENDBRANCH  21  22
ENDBRANCH  14  21
TORSDOF 5
ENDMDL
MODEL 7
REMARK VINA RESULT:      -7.6      2.989      7.369
REMARK  Name = 
REMARK  7 active torsions:
REMARK  status: ('A' for Active; 'I' for Inactive)
REMARK    1  A    between atoms: C_1  and  C_2
REMARK    2  A    between atoms: C_2  and  O_3
REMARK    3  A    between atoms: O_3  and  C_4
REMARK    4  A    between atoms: C_4  and  C_6
REMARK    5  A    between atoms: C_17  and  C_18
REMARK    6  A    between atoms: N_19  and  C_20
REMARK    7  A    between atoms: C_20  and  C_21
REMARK                            x       y       z     vdW  Elec       q    Type
REMARK                         _______ _______ _______ _____ _____    ______ ____
ROOT
ATOM      1  C   UNL     1       2.140   5.800  19.665  0.00  0.00    +0.000 A 
ATOM      2  C   UNL     1       1.397   6.424  20.677  0.00  0.00    +0.000 A 
ATOM      3  C   UNL     1       1.207   7.809  20.618  0.00  0.00    +0.000 A 
ATOM      4  C   UNL     1       1.728   8.479  19.524  0.00  0.00    +0.000 A 
ATOM      5  N   UNL     1       1.410   9.813  19.690  0.00  0.00    +0.000 N 
ATOM      6  C   UNL     1       0.682  10.008  20.836  0.00  0.00    +0.000 A 
ATOM      7  C   UNL     1       0.146  11.188  21.358  0.00  0.00    +0.000 A 
ATOM      8  C   UNL     1      -0.573  11.095  22.550  0.00  0.00    +0.000 A 
ATOM      9  C   UNL     1      -0.735   9.871  23.194  0.00  0.00    +0.000 A 
ATOM     10  C   UNL     1      -0.182   8.700  22.659  0.00  0.00    +0.000 A 
ATOM     11  C   UNL     1       0.537   8.765  21.449  0.00  0.00    +0.000 A 
ATOM     12  C   UNL     1       2.426   7.852  18.485  0.00  0.00    +0.000 A 
ATOM     13  C   UNL     1       2.879   8.634  17.278  0.00  0.00    +0.000 C 
ATOM     14  N   UNL     1       2.682   6.513  18.629  0.00  0.00    +0.000 N 
ATOM     15  H   UNL     1       1.666  10.565  19.067  0.00  0.00    +0.000 HD
ENDROOT
BRANCH   1  16
ATOM     16  C   UNL     1       2.313   4.323  19.752  0.00  0.00    +0.000 C 
ATOM     17  O   UNL     1       1.879   3.534  18.928  0.00  0.00    +0.000 OA
BRANCH  16  18
ATOM     18  O   UNL     1       2.979   4.012  20.892  0.00  0.00    +0.000 OA
BRANCH  18  20
ATOM     19  C   UNL     1       1.301   2.595  21.911  0.00  0.00    +0.000 C 
ATOM     20  C   UNL     1       2.737   2.699  21.434  0.00  0.00    +0.000 C 
ENDBRANCH  18  20
ENDBRANCH  16  18
ENDBRANCH   1  16
BRANCH  14  21
ATOM     21  C   UNL     1       3.605   5.846  17.648  0.00  0.00    +0.000 C 
BRANCH  21  22
ATOM     22  C   UNL     1       5.072   5.962  17.985  0.00  0.00    +0.000 A 
ATOM     23  C   UNL     1       5.675   5.320  19.077  0.00  0.00    +0.000 A 
ATOM     24  C   UNL     1       7.018   5.554  19.383  0.00  0.00    +0.000 A 
ATOM     25  C   UNL     1       7.785   6.398  18.585  0.00  0.00    +0.000 A 
ATOM     26  C   UNL     1       7.223   6.985  17.457  0.00  0.00    +0.000 A 
ATOM     27  C   UNL     1       5.879   6.764  17.155  0.00  0.00    +0.000 A 
ENDBRANCH  21  22
ENDBRANCH  14  21
TORSDOF 5
ENDMDL
MODEL 8
REMARK VINA RESULT:      -7.5      2.994      7.383
REMARK  Name = 
REMARK  7 active torsions:
REMARK  status: ('A' for Active; 'I' for Inactive)
REMARK    1  A    between atoms: C_1  and  C_2
REMARK    2  A    between atoms: C_2  and  O_3
REMARK    3  A    between atoms: O_3  and  C_4
REMARK    4  A    between atoms: C_4  and  C_6
REMARK    5  A    between atoms: C_17  and  C_18
REMARK    6  A    between atoms: N_19  and  C_20
REMARK    7  A    between atoms: C_20  and  C_21
REMARK                            x       y       z     vdW  Elec       q    Type
REMARK                         _______ _______ _______ _____ _____    ______ ____
ROOT
ATOM      1  C   UNL     1       1.912   5.750  19.878  0.00  0.00    +0.000 A 
ATOM      2  C   UNL     1       1.192   6.455  20.853  0.00  0.00    +0.000 A 
ATOM      3  C   UNL     1       1.083   7.844  20.736  0.00  0.00    +0.000 A 
ATOM      4  C   UNL     1       1.656   8.439  19.625  0.00  0.00    +0.000 A 
ATOM      5  N   UNL     1       1.412   9.795  19.732  0.00  0.00    +0.000 N 
ATOM      6  C   UNL     1       0.681  10.077  20.858  0.00  0.00    +0.000 A 
ATOM      7  C   UNL     1       0.206  11.306  21.325  0.00  0.00    +0.000 A 
ATOM      8  C   UNL     1      -0.533  11.302  22.508  0.00  0.00    +0.000 A 
ATOM      9  C   UNL     1      -0.773  10.116  23.198  0.00  0.00    +0.000 A 
ATOM     10  C   UNL     1      -0.280   8.895  22.719  0.00  0.00    +0.000 A 
ATOM     11  C   UNL     1       0.458   8.870  21.518  0.00  0.00    +0.000 A 
ATOM     12  C   UNL     1       2.330   7.733  18.622  0.00  0.00    +0.000 A 
ATOM     13  C   UNL     1       2.843   8.438  17.393  0.00  0.00    +0.000 C 
ATOM     14  N   UNL     1       2.508   6.388  18.823  0.00  0.00    +0.000 N 
ATOM     15  H   UNL     1       1.718  10.506  19.085  0.00  0.00    +0.000 HD
ENDROOT
BRANCH   1  16
ATOM     16  C   UNL     1       2.000   4.270  20.027  0.00  0.00    +0.000 C 
ATOM     17  O   UNL     1       1.283   3.479  19.434  0.00  0.00    +0.000 OA
BRANCH  16  18
ATOM     18  O   UNL     1       2.956   3.962  20.938  0.00  0.00    +0.000 OA
BRANCH  18  20
ATOM     19  C   UNL     1       4.388   2.205  20.089  0.00  0.00    +0.000 C 
ATOM     20  C   UNL     1       3.288   2.566  21.069  0.00  0.00    +0.000 C 
ENDBRANCH  18  20
ENDBRANCH  16  18
ENDBRANCH   1  16
BRANCH  14  21
ATOM     21  C   UNL     1       3.404   5.631  17.885  0.00  0.00    +0.000 C 
BRANCH  21  22
ATOM     22  C   UNL     1       4.878   5.908  18.060  0.00  0.00    +0.000 A 
ATOM     23  C   UNL     1       5.652   6.624  17.135  0.00  0.00    +0.000 A 
ATOM     24  C   UNL     1       7.031   6.756  17.317  0.00  0.00    +0.000 A 
ATOM     25  C   UNL     1       7.649   6.208  18.438  0.00  0.00    +0.000 A 
ATOM     26  C   UNL     1       6.886   5.558  19.401  0.00  0.00    +0.000 A 
ATOM     27  C   UNL     1       5.510   5.414  19.217  0.00  0.00    +0.000 A 
ENDBRANCH  21  22
ENDBRANCH  14  21
TORSDOF 5
ENDMDL
MODEL 9
REMARK VINA RESULT:      -7.5      4.506      6.590
REMARK  Name = 
REMARK  7 active torsions:
REMARK  status: ('A' for Active; 'I' for Inactive)
REMARK    1  A    between atoms: C_1  and  C_2
REMARK    2  A    between atoms: C_2  and  O_3
REMARK    3  A    between atoms: O_3  and  C_4
REMARK    4  A    between atoms: C_4  and  C_6
REMARK    5  A    between atoms: C_17  and  C_18
REMARK    6  A    between atoms: N_19  and  C_20
REMARK    7  A    between atoms: C_20  and  C_21
REMARK                            x       y       z     vdW  Elec       q    Type
REMARK                         _______ _______ _______ _____ _____    ______ ____
ROOT
ATOM      1  C   UNL     1       1.341   8.274  20.926  0.00  0.00    +0.000 A 
ATOM      2  C   UNL     1       1.307   6.893  21.165  0.00  0.00    +0.000 A 
ATOM      3  C   UNL     1       1.662   6.021  20.131  0.00  0.00    +0.000 A 
ATOM      4  C   UNL     1       2.079   6.583  18.936  0.00  0.00    +0.000 A 
ATOM      5  N   UNL     1       2.377   5.533  18.089  0.00  0.00    +0.000 N 
ATOM      6  C   UNL     1       2.188   4.326  18.713  0.00  0.00    +0.000 A 
ATOM      7  C   UNL     1       2.393   3.032  18.226  0.00  0.00    +0.000 A 
ATOM      8  C   UNL     1       2.132   1.971  19.092  0.00  0.00    +0.000 A 
ATOM      9  C   UNL     1       1.673   2.200  20.388  0.00  0.00    +0.000 A 
ATOM     10  C   UNL     1       1.465   3.505  20.854  0.00  0.00    +0.000 A 
ATOM     11  C   UNL     1       1.735   4.595  20.002  0.00  0.00    +0.000 A 
ATOM     12  C   UNL     1       2.165   7.961  18.710  0.00  0.00    +0.000 A 
ATOM     13  C   UNL     1       2.721   8.498  17.416  0.00  0.00    +0.000 C 
ATOM     14  N   UNL     1       1.710   8.783  19.709  0.00  0.00    +0.000 N 
ATOM     15  H   UNL     1       2.691   5.613  17.133  0.00  0.00    +0.000 HD
ENDROOT
BRANCH   1  16
ATOM     16  C   UNL     1       0.967   9.175  22.051  0.00  0.00    +0.000 C 
ATOM     17  O   UNL     1       1.761   9.616  22.867  0.00  0.00    +0.000 OA
BRANCH  16  18
ATOM     18  O   UNL     1      -0.373   9.381  22.041  0.00  0.00    +0.000 OA
BRANCH  18  20
ATOM     19  C   UNL     1      -1.179  11.582  22.647  0.00  0.00    +0.000 C 
ATOM     20  C   UNL     1      -0.907  10.168  23.124  0.00  0.00    +0.000 C 
ENDBRANCH  18  20
ENDBRANCH  16  18
ENDBRANCH   1  16
BRANCH  14  21
ATOM     21  C   UNL     1       1.584  10.254  19.431  0.00  0.00    +0.000 C 
BRANCH  21  22
ATOM     22  C   UNL     1       0.245  10.679  18.878  0.00  0.00    +0.000 A 
ATOM     23  C   UNL     1      -0.591   9.839  18.129  0.00  0.00    +0.000 A 
ATOM     24  C   UNL     1      -1.771  10.331  17.566  0.00  0.00    +0.000 A 
ATOM     25  C   UNL     1      -2.151  11.655  17.773  0.00  0.00    +0.000 A 
ATOM     26  C   UNL     1      -1.370  12.481  18.573  0.00  0.00    +0.000 A 
ATOM     27  C   UNL     1      -0.185  11.996  19.127  0.00  0.00    +0.000 A 
ENDBRANCH  21  22
ENDBRANCH  14  21
TORSDOF 5
ENDMDL
