MODEL 1
REMARK VINA RESULT:      -7.3      0.000      0.000
REMARK  Name = 
REMARK  8 active torsions:
REMARK  status: ('A' for Active; 'I' for Inactive)
REMARK    1  A    between atoms: C_1  and  C_2
REMARK    2  A    between atoms: N_4  and  C_5
REMARK    3  A    between atoms: C_8  and  C_9
REMARK    4  A    between atoms: C_9  and  O_10
REMARK    5  A    between atoms: O_10  and  C_11
REMARK    6  A    between atoms: C_11  and  P_12
REMARK    7  A    between atoms: P_12  and  O_14
REMARK    8  A    between atoms: P_12  and  O_15
REMARK                            x       y       z     vdW  Elec       q    Type
REMARK                         _______ _______ _______ _____ _____    ______ ____
ROOT
ATOM      1  C   UNL     1       3.098   3.537  19.134  0.00  0.00    +0.000 C 
ATOM      2  C   UNL     1       2.205   2.814  18.130  0.00  0.00    +0.000 C 
ATOM      3  C   UNL     1       2.799   3.233  16.810  0.00  0.00    +0.000 C 
ATOM      4  C   UNL     1       4.287   3.248  17.124  0.00  0.00    +0.000 C 
ATOM      5  O   UNL     1       4.407   3.572  18.526  0.00  0.00    +0.000 OA
ENDROOT
BRANCH   1   9
ATOM      6  C   UNL     1       2.578   8.330  17.879  0.00  0.00    +0.000 C 
ATOM      7  C   UNL     1       2.432   7.196  18.836  0.00  0.00    +0.000 A 
ATOM      8  C   UNL     1       2.806   5.943  18.567  0.00  0.00    +0.000 A 
ATOM      9  N   UNL     1       2.654   4.898  19.463  0.00  0.00    +0.000 N 
ATOM     10  C   UNL     1       2.180   5.126  20.751  0.00  0.00    +0.000 A 
ATOM     11  O   UNL     1       2.106   4.257  21.618  0.00  0.00    +0.000 OA
ATOM     12  N   UNL     1       1.790   6.410  21.019  0.00  0.00    +0.000 N 
ATOM     13  C   UNL     1       1.848   7.471  20.164  0.00  0.00    +0.000 A 
ATOM     14  O   UNL     1       1.453   8.586  20.488  0.00  0.00    +0.000 OA
ATOM     15  H   UNL     1       1.420   6.582  21.942  0.00  0.00    +0.000 HD
ENDBRANCH   1   9
BRANCH   4  16
ATOM     16  C   UNL     1       5.039   4.260  16.255  0.00  0.00    +0.000 C 
BRANCH  16  17
ATOM     17  O   UNL     1       6.409   4.379  16.667  0.00  0.00    +0.000 OA
BRANCH  17  18
ATOM     18  C   UNL     1       6.663   5.717  17.130  0.00  0.00    +0.000 C 
BRANCH  18  19
ATOM     19  P   UNL     1       7.335   5.619  18.829  0.00  0.00    +0.000 P 
ATOM     20  O   UNL     1       8.249   4.461  18.423  0.00  0.00    +0.000 OA
BRANCH  19  21
ATOM     21  O   UNL     1       8.184   7.004  18.596  0.00  0.00    +0.000 OA
ATOM     22  H   UNL     1       9.148   6.848  18.618  0.00  0.00    +0.000 HD
ENDBRANCH  19  21
BRANCH  19  23
ATOM     23  O   UNL     1       7.970   5.526  20.436  0.00  0.00    +0.000 OA
ATOM     24  H   UNL     1       8.282   4.600  20.500  0.00  0.00    +0.000 HD
ENDBRANCH  19  23
ENDBRANCH  18  19
ENDBRANCH  17  18
ENDBRANCH  16  17
ENDBRANCH   4  16
TORSDOF 7
ENDMDL
MODEL 2
REMARK VINA RESULT:      -6.9      0.809      1.121
REMARK  Name = 
REMARK  8 active torsions:
REMARK  status: ('A' for Active; 'I' for Inactive)
REMARK    1  A    between atoms: C_1  and  C_2
REMARK    2  A    between atoms: N_4  and  C_5
REMARK    3  A    between atoms: C_8  and  C_9
REMARK    4  A    between atoms: C_9  and  O_10
REMARK    5  A    between atoms: O_10  and  C_11
REMARK    6  A    between atoms: C_11  and  P_12
REMARK    7  A    between atoms: P_12  and  O_14
REMARK    8  A    between atoms: P_12  and  O_15
REMARK                            x       y       z     vdW  Elec       q    Type
REMARK                         _______ _______ _______ _____ _____    ______ ____
ROOT
ATOM      1  C   UNL     1       3.227   3.546  19.258  0.00  0.00    +0.000 C 
ATOM      2  C   UNL     1       2.275   2.697  18.419  0.00  0.00    +0.000 C 
ATOM      3  C   UNL     1       2.707   3.023  17.013  0.00  0.00    +0.000 C 
ATOM      4  C   UNL     1       4.216   3.134  17.163  0.00  0.00    +0.000 C 
ATOM      5  O   UNL     1       4.462   3.586  18.512  0.00  0.00    +0.000 OA
ENDROOT
BRANCH   1   9
ATOM      6  C   UNL     1       2.676   8.280  17.806  0.00  0.00    +0.000 C 
ATOM      7  C   UNL     1       2.510   7.178  18.797  0.00  0.00    +0.000 A 
ATOM      8  C   UNL     1       2.916   5.924  18.591  0.00  0.00    +0.000 A 
ATOM      9  N   UNL     1       2.746   4.910  19.518  0.00  0.00    +0.000 N 
ATOM     10  C   UNL     1       2.213   5.175  20.775  0.00  0.00    +0.000 A 
ATOM     11  O   UNL     1       2.118   4.336  21.670  0.00  0.00    +0.000 OA
ATOM     12  N   UNL     1       1.790   6.461  20.979  0.00  0.00    +0.000 N 
ATOM     13  C   UNL     1       1.865   7.490  20.089  0.00  0.00    +0.000 A 
ATOM     14  O   UNL     1       1.438   8.609  20.354  0.00  0.00    +0.000 OA
ATOM     15  H   UNL     1       1.378   6.659  21.879  0.00  0.00    +0.000 HD
ENDBRANCH   1   9
BRANCH   4  16
ATOM     16  C   UNL     1       4.819   4.097  16.137  0.00  0.00    +0.000 C 
BRANCH  16  17
ATOM     17  O   UNL     1       6.193   4.382  16.439  0.00  0.00    +0.000 OA
BRANCH  17  18
ATOM     18  C   UNL     1       6.452   5.784  16.247  0.00  0.00    +0.000 C 
BRANCH  18  19
ATOM     19  P   UNL     1       7.437   6.386  17.667  0.00  0.00    +0.000 P 
ATOM     20  O   UNL     1       7.113   7.837  17.303  0.00  0.00    +0.000 OA
BRANCH  19  21
ATOM     21  O   UNL     1       6.276   5.883  18.712  0.00  0.00    +0.000 OA
ATOM     22  H   UNL     1       5.973   4.975  18.511  0.00  0.00    +0.000 HD
ENDBRANCH  19  21
BRANCH  19  23
ATOM     23  O   UNL     1       8.369   6.955  19.009  0.00  0.00    +0.000 OA
ATOM     24  H   UNL     1       8.860   6.158  19.296  0.00  0.00    +0.000 HD
ENDBRANCH  19  23
ENDBRANCH  18  19
ENDBRANCH  17  18
ENDBRANCH  16  17
ENDBRANCH   4  16
TORSDOF 7
ENDMDL
MODEL 3
REMARK VINA RESULT:      -6.6      3.032      5.060
REMARK  Name = 
REMARK  8 active torsions:
REMARK  status: ('A' for Active; 'I' for Inactive)
REMARK    1  A    between atoms: C_1  and  C_2
REMARK    2  A    between atoms: N_4  and  C_5
REMARK    3  A    between atoms: C_8  and  C_9
REMARK    4  A    between atoms: C_9  and  O_10
REMARK    5  A    between atoms: O_10  and  C_11
REMARK    6  A    between atoms: C_11  and  P_12
REMARK    7  A    between atoms: P_12  and  O_14
REMARK    8  A    between atoms: P_12  and  O_15
REMARK                            x       y       z     vdW  Elec       q    Type
REMARK                         _______ _______ _______ _____ _____    ______ ____
ROOT
ATOM      1  C   UNL     1       5.378   6.052  18.181  0.00  0.00    +0.000 C 
ATOM      2  C   UNL     1       6.569   5.556  18.998  0.00  0.00    +0.000 C 
ATOM      3  C   UNL     1       7.315   4.710  17.998  0.00  0.00    +0.000 C 
ATOM      4  C   UNL     1       7.136   5.506  16.715  0.00  0.00    +0.000 C 
ATOM      5  O   UNL     1       5.873   6.196  16.833  0.00  0.00    +0.000 OA
ENDROOT
BRANCH   1   9
ATOM      6  C   UNL     1       3.488   1.446  18.353  0.00  0.00    +0.000 C 
ATOM      7  C   UNL     1       3.341   2.928  18.273  0.00  0.00    +0.000 A 
ATOM      8  C   UNL     1       4.370   3.779  18.269  0.00  0.00    +0.000 A 
ATOM      9  N   UNL     1       4.217   5.153  18.204  0.00  0.00    +0.000 N 
ATOM     10  C   UNL     1       2.959   5.724  18.042  0.00  0.00    +0.000 A 
ATOM     11  O   UNL     1       2.767   6.929  17.891  0.00  0.00    +0.000 OA
ATOM     12  N   UNL     1       1.906   4.849  18.055  0.00  0.00    +0.000 N 
ATOM     13  C   UNL     1       1.980   3.494  18.184  0.00  0.00    +0.000 A 
ATOM     14  O   UNL     1       0.976   2.789  18.207  0.00  0.00    +0.000 OA
ATOM     15  H   UNL     1       0.986   5.254  17.965  0.00  0.00    +0.000 HD
ENDBRANCH   1   9
BRANCH   4  16
ATOM     16  C   UNL     1       7.160   4.602  15.480  0.00  0.00    +0.000 C 
BRANCH  16  17
ATOM     17  O   UNL     1       6.565   5.255  14.348  0.00  0.00    +0.000 OA
BRANCH  17  18
ATOM     18  C   UNL     1       5.504   4.441  13.819  0.00  0.00    +0.000 C 
BRANCH  18  19
ATOM     19  P   UNL     1       6.229   3.251  12.633  0.00  0.00    +0.000 P 
ATOM     20  O   UNL     1       4.952   3.282  11.790  0.00  0.00    +0.000 OA
BRANCH  19  21
ATOM     21  O   UNL     1       7.223   4.415  12.041  0.00  0.00    +0.000 OA
ATOM     22  H   UNL     1       8.059   4.041  11.700  0.00  0.00    +0.000 HD
ENDBRANCH  19  21
BRANCH  19  23
ATOM     23  O   UNL     1       6.914   2.126  11.512  0.00  0.00    +0.000 OA
ATOM     24  H   UNL     1       7.457   2.694  10.927  0.00  0.00    +0.000 HD
ENDBRANCH  19  23
ENDBRANCH  18  19
ENDBRANCH  17  18
ENDBRANCH  16  17
ENDBRANCH   4  16
TORSDOF 7
ENDMDL
MODEL 4
REMARK VINA RESULT:      -6.6      1.656      2.512
REMARK  Name = 
REMARK  8 active torsions:
REMARK  status: ('A' for Active; 'I' for Inactive)
REMARK    1  A    between atoms: C_1  and  C_2
REMARK    2  A    between atoms: N_4  and  C_5
REMARK    3  A    between atoms: C_8  and  C_9
REMARK    4  A    between atoms: C_9  and  O_10
REMARK    5  A    between atoms: O_10  and  C_11
REMARK    6  A    between atoms: C_11  and  P_12
REMARK    7  A    between atoms: P_12  and  O_14
REMARK    8  A    between atoms: P_12  and  O_15
REMARK                            x       y       z     vdW  Elec       q    Type
REMARK                         _______ _______ _______ _____ _____    ______ ____
ROOT
ATOM      1  C   UNL     1       2.714   3.861  18.945  0.00  0.00    +0.000 C 
ATOM      2  C   UNL     1       2.566   3.563  17.454  0.00  0.00    +0.000 C 
ATOM      3  C   UNL     1       3.912   3.968  16.910  0.00  0.00    +0.000 C 
ATOM      4  C   UNL     1       4.850   3.518  18.019  0.00  0.00    +0.000 C 
ATOM      5  O   UNL     1       4.101   3.603  19.250  0.00  0.00    +0.000 OA
ENDROOT
BRANCH   1   9
ATOM      6  C   UNL     1       2.256   8.680  17.766  0.00  0.00    +0.000 C 
ATOM      7  C   UNL     1       2.162   7.544  18.728  0.00  0.00    +0.000 A 
ATOM      8  C   UNL     1       2.459   6.280  18.418  0.00  0.00    +0.000 A 
ATOM      9  N   UNL     1       2.357   5.235  19.321  0.00  0.00    +0.000 N 
ATOM     10  C   UNL     1       2.021   5.471  20.650  0.00  0.00    +0.000 A 
ATOM     11  O   UNL     1       2.000   4.598  21.517  0.00  0.00    +0.000 OA
ATOM     12  N   UNL     1       1.710   6.767  20.961  0.00  0.00    +0.000 N 
ATOM     13  C   UNL     1       1.723   7.831  20.109  0.00  0.00    +0.000 A 
ATOM     14  O   UNL     1       1.405   8.958  20.473  0.00  0.00    +0.000 OA
ATOM     15  H   UNL     1       1.439   6.946  21.916  0.00  0.00    +0.000 HD
ENDBRANCH   1   9
BRANCH   4  16
ATOM     16  C   UNL     1       6.114   4.381  18.077  0.00  0.00    +0.000 C 
BRANCH  16  17
ATOM     17  O   UNL     1       6.012   5.508  17.194  0.00  0.00    +0.000 OA
BRANCH  17  18
ATOM     18  C   UNL     1       7.197   5.599  16.384  0.00  0.00    +0.000 C 
BRANCH  18  19
ATOM     19  P   UNL     1       6.852   4.810  14.770  0.00  0.00    +0.000 P 
ATOM     20  O   UNL     1       5.608   5.683  14.586  0.00  0.00    +0.000 OA
BRANCH  19  21
ATOM     21  O   UNL     1       8.108   5.613  14.084  0.00  0.00    +0.000 OA
ATOM     22  H   UNL     1       8.179   5.429  13.127  0.00  0.00    +0.000 HD
ENDBRANCH  19  21
BRANCH  19  23
ATOM     23  O   UNL     1       6.525   4.063  13.244  0.00  0.00    +0.000 OA
ATOM     24  H   UNL     1       6.735   4.770  12.599  0.00  0.00    +0.000 HD
ENDBRANCH  19  23
ENDBRANCH  18  19
ENDBRANCH  17  18
ENDBRANCH  16  17
ENDBRANCH   4  16
TORSDOF 7
ENDMDL
MODEL 5
REMARK VINA RESULT:      -6.5      1.253      1.897
REMARK  Name = 
REMARK  8 active torsions:
REMARK  status: ('A' for Active; 'I' for Inactive)
REMARK    1  A    between atoms: C_1  and  C_2
REMARK    2  A    between atoms: N_4  and  C_5
REMARK    3  A    between atoms: C_8  and  C_9
REMARK    4  A    between atoms: C_9  and  O_10
REMARK    5  A    between atoms: O_10  and  C_11
REMARK    6  A    between atoms: C_11  and  P_12
REMARK    7  A    between atoms: P_12  and  O_14
REMARK    8  A    between atoms: P_12  and  O_15
REMARK                            x       y       z     vdW  Elec       q    Type
REMARK                         _______ _______ _______ _____ _____    ______ ____
ROOT
ATOM      1  C   UNL     1       2.654   3.354  19.204  0.00  0.00    +0.000 C 
ATOM      2  C   UNL     1       1.995   2.861  17.918  0.00  0.00    +0.000 C 
ATOM      3  C   UNL     1       3.039   3.180  16.879  0.00  0.00    +0.000 C 
ATOM      4  C   UNL     1       4.329   2.874  17.623  0.00  0.00    +0.000 C 
ATOM      5  O   UNL     1       4.068   3.129  19.020  0.00  0.00    +0.000 OA
ENDROOT
BRANCH   1   9
ATOM      6  C   UNL     1       2.589   8.128  17.781  0.00  0.00    +0.000 C 
ATOM      7  C   UNL     1       2.393   7.053  18.796  0.00  0.00    +0.000 A 
ATOM      8  C   UNL     1       2.595   5.756  18.555  0.00  0.00    +0.000 A 
ATOM      9  N   UNL     1       2.399   4.768  19.506  0.00  0.00    +0.000 N 
ATOM     10  C   UNL     1       2.063   5.096  20.815  0.00  0.00    +0.000 A 
ATOM     11  O   UNL     1       1.961   4.273  21.723  0.00  0.00    +0.000 OA
ATOM     12  N   UNL     1       1.848   6.426  21.056  0.00  0.00    +0.000 N 
ATOM     13  C   UNL     1       1.957   7.442  20.153  0.00  0.00    +0.000 A 
ATOM     14  O   UNL     1       1.722   8.607  20.456  0.00  0.00    +0.000 OA
ATOM     15  H   UNL     1       1.578   6.673  21.996  0.00  0.00    +0.000 HD
ENDBRANCH   1   9
BRANCH   4  16
ATOM     16  C   UNL     1       5.493   3.728  17.112  0.00  0.00    +0.000 C 
BRANCH  16  17
ATOM     17  O   UNL     1       6.365   4.110  18.187  0.00  0.00    +0.000 OA
BRANCH  17  18
ATOM     18  C   UNL     1       7.119   5.276  17.810  0.00  0.00    +0.000 C 
BRANCH  18  19
ATOM     19  P   UNL     1       6.221   6.131  16.465  0.00  0.00    +0.000 P 
ATOM     20  O   UNL     1       6.530   7.491  17.096  0.00  0.00    +0.000 OA
BRANCH  19  21
ATOM     21  O   UNL     1       7.438   5.802  15.414  0.00  0.00    +0.000 OA
ATOM     22  H   UNL     1       7.104   5.434  14.573  0.00  0.00    +0.000 HD
ENDBRANCH  19  21
BRANCH  19  23
ATOM     23  O   UNL     1       5.371   6.940  15.193  0.00  0.00    +0.000 OA
ATOM     24  H   UNL     1       5.995   7.645  14.920  0.00  0.00    +0.000 HD
ENDBRANCH  19  23
ENDBRANCH  18  19
ENDBRANCH  17  18
ENDBRANCH  16  17
ENDBRANCH   4  16
TORSDOF 7
ENDMDL
MODEL 6
REMARK VINA RESULT:      -6.5      0.985      1.199
REMARK  Name = 
REMARK  8 active torsions:
REMARK  status: ('A' for Active; 'I' for Inactive)
REMARK    1  A    between atoms: C_1  and  C_2
REMARK    2  A    between atoms: N_4  and  C_5
REMARK    3  A    between atoms: C_8  and  C_9
REMARK    4  A    between atoms: C_9  and  O_10
REMARK    5  A    between atoms: O_10  and  C_11
REMARK    6  A    between atoms: C_11  and  P_12
REMARK    7  A    between atoms: P_12  and  O_14
REMARK    8  A    between atoms: P_12  and  O_15
REMARK                            x       y       z     vdW  Elec       q    Type
REMARK                         _______ _______ _______ _____ _____    ______ ____
ROOT
ATOM      1  C   UNL     1       3.052   3.255  19.432  0.00  0.00    +0.000 C 
ATOM      2  C   UNL     1       2.047   2.450  18.612  0.00  0.00    +0.000 C 
ATOM      3  C   UNL     1       2.465   2.759  17.197  0.00  0.00    +0.000 C 
ATOM      4  C   UNL     1       3.980   2.801  17.317  0.00  0.00    +0.000 C 
ATOM      5  O   UNL     1       4.273   3.240  18.661  0.00  0.00    +0.000 OA
ENDROOT
BRANCH   1   9
ATOM      6  C   UNL     1       2.698   8.013  18.000  0.00  0.00    +0.000 C 
ATOM      7  C   UNL     1       2.496   6.918  18.991  0.00  0.00    +0.000 A 
ATOM      8  C   UNL     1       2.842   5.646  18.775  0.00  0.00    +0.000 A 
ATOM      9  N   UNL     1       2.638   4.638  19.702  0.00  0.00    +0.000 N 
ATOM     10  C   UNL     1       2.136   4.924  20.968  0.00  0.00    +0.000 A 
ATOM     11  O   UNL     1       2.015   4.087  21.861  0.00  0.00    +0.000 OA
ATOM     12  N   UNL     1       1.775   6.226  21.181  0.00  0.00    +0.000 N 
ATOM     13  C   UNL     1       1.885   7.254  20.292  0.00  0.00    +0.000 A 
ATOM     14  O   UNL     1       1.513   8.390  20.566  0.00  0.00    +0.000 OA
ATOM     15  H   UNL     1       1.385   6.440  22.087  0.00  0.00    +0.000 HD
ENDBRANCH   1   9
BRANCH   4  16
ATOM     16  C   UNL     1       4.604   3.739  16.280  0.00  0.00    +0.000 C 
BRANCH  16  17
ATOM     17  O   UNL     1       4.512   5.109  16.698  0.00  0.00    +0.000 OA
BRANCH  17  18
ATOM     18  C   UNL     1       5.731   5.800  16.373  0.00  0.00    +0.000 C 
BRANCH  18  19
ATOM     19  P   UNL     1       7.128   4.881  17.118  0.00  0.00    +0.000 P 
ATOM     20  O   UNL     1       7.785   4.727  15.744  0.00  0.00    +0.000 OA
BRANCH  19  21
ATOM     21  O   UNL     1       7.714   6.265  17.777  0.00  0.00    +0.000 OA
ATOM     22  H   UNL     1       7.665   7.015  17.151  0.00  0.00    +0.000 HD
ENDBRANCH  19  21
BRANCH  19  23
ATOM     23  O   UNL     1       8.448   4.012  17.821  0.00  0.00    +0.000 OA
ATOM     24  H   UNL     1       9.174   4.671  17.823  0.00  0.00    +0.000 HD
ENDBRANCH  19  23
ENDBRANCH  18  19
ENDBRANCH  17  18
ENDBRANCH  16  17
ENDBRANCH   4  16
TORSDOF 7
ENDMDL
MODEL 7
REMARK VINA RESULT:      -6.4      2.396      5.098
REMARK  Name = 
REMARK  8 active torsions:
REMARK  status: ('A' for Active; 'I' for Inactive)
REMARK    1  A    between atoms: C_1  and  C_2
REMARK    2  A    between atoms: N_4  and  C_5
REMARK    3  A    between atoms: C_8  and  C_9
REMARK    4  A    between atoms: C_9  and  O_10
REMARK    5  A    between atoms: O_10  and  C_11
REMARK    6  A    between atoms: C_11  and  P_12
REMARK    7  A    between atoms: P_12  and  O_14
REMARK    8  A    between atoms: P_12  and  O_15
REMARK                            x       y       z     vdW  Elec       q    Type
REMARK                         _______ _______ _______ _____ _____    ______ ____
ROOT
ATOM      1  C   UNL     1       3.969   6.421  19.068  0.00  0.00    +0.000 C 
ATOM      2  C   UNL     1       2.997   7.303  18.288  0.00  0.00    +0.000 C 
ATOM      3  C   UNL     1       1.922   6.325  17.891  0.00  0.00    +0.000 C 
ATOM      4  C   UNL     1       1.832   5.437  19.123  0.00  0.00    +0.000 C 
ATOM      5  O   UNL     1       3.146   5.430  19.720  0.00  0.00    +0.000 OA
ENDROOT
BRANCH   1   9
ATOM      6  C   UNL     1       5.588   4.927  14.600  0.00  0.00    +0.000 C 
ATOM      7  C   UNL     1       5.731   5.051  16.079  0.00  0.00    +0.000 A 
ATOM      8  C   UNL     1       4.836   5.653  16.866  0.00  0.00    +0.000 A 
ATOM      9  N   UNL     1       4.989   5.769  18.237  0.00  0.00    +0.000 N 
ATOM     10  C   UNL     1       6.062   5.168  18.888  0.00  0.00    +0.000 A 
ATOM     11  O   UNL     1       6.204   5.161  20.110  0.00  0.00    +0.000 OA
ATOM     12  N   UNL     1       6.981   4.559  18.077  0.00  0.00    +0.000 N 
ATOM     13  C   UNL     1       6.928   4.468  16.718  0.00  0.00    +0.000 A 
ATOM     14  O   UNL     1       7.814   3.920  16.071  0.00  0.00    +0.000 OA
ATOM     15  H   UNL     1       7.777   4.143  18.537  0.00  0.00    +0.000 HD
ENDBRANCH   1   9
BRANCH   4  16
ATOM     16  C   UNL     1       1.377   4.019  18.768  0.00  0.00    +0.000 C 
BRANCH  16  17
ATOM     17  O   UNL     1       1.988   3.570  17.549  0.00  0.00    +0.000 OA
BRANCH  17  18
ATOM     18  C   UNL     1       2.399   2.198  17.689  0.00  0.00    +0.000 C 
BRANCH  18  19
ATOM     19  P   UNL     1       3.881   2.149  18.762  0.00  0.00    +0.000 P 
ATOM     20  O   UNL     1       2.998   2.111  20.012  0.00  0.00    +0.000 OA
BRANCH  19  21
ATOM     21  O   UNL     1       4.167   0.591  18.331  0.00  0.00    +0.000 OA
ATOM     22  H   UNL     1       3.942  -0.032  19.049  0.00  0.00    +0.000 HD
ENDBRANCH  19  21
BRANCH  19  23
ATOM     23  O   UNL     1       5.281   2.102  19.777  0.00  0.00    +0.000 OA
ATOM     24  H   UNL     1       4.960   1.643  20.581  0.00  0.00    +0.000 HD
ENDBRANCH  19  23
ENDBRANCH  18  19
ENDBRANCH  17  18
ENDBRANCH  16  17
ENDBRANCH   4  16
TORSDOF 7
ENDMDL
MODEL 8
REMARK VINA RESULT:      -6.4      3.177      6.370
REMARK  Name = 
REMARK  8 active torsions:
REMARK  status: ('A' for Active; 'I' for Inactive)
REMARK    1  A    between atoms: C_1  and  C_2
REMARK    2  A    between atoms: N_4  and  C_5
REMARK    3  A    between atoms: C_8  and  C_9
REMARK    4  A    between atoms: C_9  and  O_10
REMARK    5  A    between atoms: O_10  and  C_11
REMARK    6  A    between atoms: C_11  and  P_12
REMARK    7  A    between atoms: P_12  and  O_14
REMARK    8  A    between atoms: P_12  and  O_15
REMARK                            x       y       z     vdW  Elec       q    Type
REMARK                         _______ _______ _______ _____ _____    ______ ____
ROOT
ATOM      1  C   UNL     1       5.690   4.964  17.562  0.00  0.00    +0.000 C 
ATOM      2  C   UNL     1       4.860   6.197  17.910  0.00  0.00    +0.000 C 
ATOM      3  C   UNL     1       3.464   5.757  17.551  0.00  0.00    +0.000 C 
ATOM      4  C   UNL     1       3.472   4.298  17.982  0.00  0.00    +0.000 C 
ATOM      5  O   UNL     1       4.832   3.836  17.837  0.00  0.00    +0.000 OA
ENDROOT
BRANCH   1   9
ATOM      6  C   UNL     1       5.277   3.186  12.927  0.00  0.00    +0.000 C 
ATOM      7  C   UNL     1       5.936   4.039  13.956  0.00  0.00    +0.000 A 
ATOM      8  C   UNL     1       5.535   4.118  15.227  0.00  0.00    +0.000 A 
ATOM      9  N   UNL     1       6.152   4.923  16.169  0.00  0.00    +0.000 N 
ATOM     10  C   UNL     1       7.305   5.635  15.852  0.00  0.00    +0.000 A 
ATOM     11  O   UNL     1       7.946   6.297  16.667  0.00  0.00    +0.000 OA
ATOM     12  N   UNL     1       7.708   5.559  14.547  0.00  0.00    +0.000 N 
ATOM     13  C   UNL     1       7.110   4.842  13.554  0.00  0.00    +0.000 A 
ATOM     14  O   UNL     1       7.532   4.851  12.403  0.00  0.00    +0.000 OA
ATOM     15  H   UNL     1       8.528   6.092  14.300  0.00  0.00    +0.000 HD
ENDBRANCH   1   9
BRANCH   4  16
ATOM     16  C   UNL     1       2.508   3.455  17.143  0.00  0.00    +0.000 C 
BRANCH  16  17
ATOM     17  O   UNL     1       1.851   2.465  17.949  0.00  0.00    +0.000 OA
BRANCH  17  18
ATOM     18  C   UNL     1       0.827   3.088  18.745  0.00  0.00    +0.000 C 
BRANCH  18  19
ATOM     19  P   UNL     1       1.201   2.779  20.509  0.00  0.00    +0.000 P 
ATOM     20  O   UNL     1       2.545   2.148  20.133  0.00  0.00    +0.000 OA
BRANCH  19  21
ATOM     21  O   UNL     1       1.475   4.378  20.753  0.00  0.00    +0.000 OA
ATOM     22  H   UNL     1       1.305   4.639  21.680  0.00  0.00    +0.000 HD
ENDBRANCH  19  21
BRANCH  19  23
ATOM     23  O   UNL     1       1.557   2.485  22.176  0.00  0.00    +0.000 OA
ATOM     24  H   UNL     1       0.678   2.281  22.560  0.00  0.00    +0.000 HD
ENDBRANCH  19  23
ENDBRANCH  18  19
ENDBRANCH  17  18
ENDBRANCH  16  17
ENDBRANCH   4  16
TORSDOF 7
ENDMDL
MODEL 9
REMARK VINA RESULT:      -6.4      3.087      6.245
REMARK  Name = 
REMARK  8 active torsions:
REMARK  status: ('A' for Active; 'I' for Inactive)
REMARK    1  A    between atoms: C_1  and  C_2
REMARK    2  A    between atoms: N_4  and  C_5
REMARK    3  A    between atoms: C_8  and  C_9
REMARK    4  A    between atoms: C_9  and  O_10
REMARK    5  A    between atoms: O_10  and  C_11
REMARK    6  A    between atoms: C_11  and  P_12
REMARK    7  A    between atoms: P_12  and  O_14
REMARK    8  A    between atoms: P_12  and  O_15
REMARK                            x       y       z     vdW  Elec       q    Type
REMARK                         _______ _______ _______ _____ _____    ______ ____
ROOT
ATOM      1  C   UNL     1       1.931   3.666  19.046  0.00  0.00    +0.000 C 
ATOM      2  C   UNL     1       2.246   3.237  20.477  0.00  0.00    +0.000 C 
ATOM      3  C   UNL     1       2.455   4.558  21.171  0.00  0.00    +0.000 C 
ATOM      4  C   UNL     1       1.403   5.433  20.508  0.00  0.00    +0.000 C 
ATOM      5  O   UNL     1       1.226   4.920  19.170  0.00  0.00    +0.000 OA
ENDROOT
BRANCH   1   9
ATOM      6  C   UNL     1       4.984   6.595  16.415  0.00  0.00    +0.000 C 
ATOM      7  C   UNL     1       4.554   5.262  16.926  0.00  0.00    +0.000 A 
ATOM      8  C   UNL     1       3.496   5.074  17.718  0.00  0.00    +0.000 A 
ATOM      9  N   UNL     1       3.115   3.830  18.193  0.00  0.00    +0.000 N 
ATOM     10  C   UNL     1       3.778   2.678  17.783  0.00  0.00    +0.000 A 
ATOM     11  O   UNL     1       3.433   1.540  18.100  0.00  0.00    +0.000 OA
ATOM     12  N   UNL     1       4.867   2.876  16.978  0.00  0.00    +0.000 N 
ATOM     13  C   UNL     1       5.337   4.074  16.529  0.00  0.00    +0.000 A 
ATOM     14  O   UNL     1       6.338   4.155  15.826  0.00  0.00    +0.000 OA
ATOM     15  H   UNL     1       5.371   2.048  16.696  0.00  0.00    +0.000 HD
ENDBRANCH   1   9
BRANCH   4  16
ATOM     16  C   UNL     1       1.822   6.906  20.486  0.00  0.00    +0.000 C 
BRANCH  16  17
ATOM     17  O   UNL     1       1.070   7.672  21.439  0.00  0.00    +0.000 OA
BRANCH  17  18
ATOM     18  C   UNL     1       1.080   9.061  21.062  0.00  0.00    +0.000 C 
BRANCH  18  19
ATOM     19  P   UNL     1       0.025   9.983  22.239  0.00  0.00    +0.000 P 
ATOM     20  O   UNL     1       0.930   9.571  23.403  0.00  0.00    +0.000 OA
BRANCH  19  21
ATOM     21  O   UNL     1       0.600  11.410  21.668  0.00  0.00    +0.000 OA
ATOM     22  H   UNL     1       1.434  11.294  21.172  0.00  0.00    +0.000 HD
ENDBRANCH  19  21
BRANCH  19  23
ATOM     23  O   UNL     1      -0.971  10.854  23.353  0.00  0.00    +0.000 OA
ATOM     24  H   UNL     1      -1.838  10.402  23.279  0.00  0.00    +0.000 HD
ENDBRANCH  19  23
ENDBRANCH  18  19
ENDBRANCH  17  18
ENDBRANCH  16  17
ENDBRANCH   4  16
TORSDOF 7
ENDMDL
