MODEL 1
REMARK VINA RESULT:      -7.7      0.000      0.000
REMARK  Name = 
REMARK  5 active torsions:
REMARK  status: ('A' for Active; 'I' for Inactive)
REMARK    1  A    between atoms: C_2  and  C_3
REMARK    2  A    between atoms: C_2  and  C_15
REMARK    3  A    between atoms: C_3  and  S_4
REMARK    4  A    between atoms: S_4  and  C_5
REMARK    5  A    between atoms: C_8  and  C_9
REMARK                            x       y       z     vdW  Elec       q    Type
REMARK                         _______ _______ _______ _____ _____    ______ ____
ROOT
ATOM      1  S   UNL     1       7.051   4.615  17.773  0.00  0.00    +0.000 S 
ENDROOT
BRANCH   1   2
ATOM      2  C   UNL     1       6.991   4.678  16.040  0.00  0.00    +0.000 A 
ATOM      3  N   UNL     1       7.598   5.559  15.273  0.00  0.00    +0.000 NA
ATOM      4  N   UNL     1       7.264   5.235  13.967  0.00  0.00    +0.000 NA
ATOM      5  C   UNL     1       6.475   4.176  14.026  0.00  0.00    +0.000 A 
ATOM      6  O   UNL     1       6.265   3.773  15.321  0.00  0.00    +0.000 OA
BRANCH   5   7
ATOM      7  C   UNL     1       5.893   3.512  12.898  0.00  0.00    +0.000 A 
ATOM      8  C   UNL     1       4.670   3.731  12.284  0.00  0.00    +0.000 A 
ATOM      9  C   UNL     1       4.563   2.812  11.211  0.00  0.00    +0.000 A 
ATOM     10  C   UNL     1       5.725   2.080  11.224  0.00  0.00    +0.000 A 
ATOM     11  O   UNL     1       6.531   2.492  12.233  0.00  0.00    +0.000 OA
ENDBRANCH   5   7
ENDBRANCH   1   2
BRANCH   1  12
ATOM     12  C   UNL     1       5.936   5.965  18.251  0.00  0.00    +0.000 C 
BRANCH  12  14
ATOM     13  O   UNL     1       4.486   6.606  16.399  0.00  0.00    +0.000 OA
ATOM     14  C   UNL     1       4.659   5.934  17.413  0.00  0.00    +0.000 C 
BRANCH  14  15
ATOM     15  C   UNL     1       3.595   4.969  17.813  0.00  0.00    +0.000 A 
ATOM     16  C   UNL     1       3.547   3.716  17.179  0.00  0.00    +0.000 A 
ATOM     17  C   UNL     1       2.540   2.800  17.499  0.00  0.00    +0.000 A 
ATOM     18  C   UNL     1       1.573   3.126  18.444  0.00  0.00    +0.000 A 
ATOM     19  C   UNL     1       1.606   4.371  19.072  0.00  0.00    +0.000 A 
ATOM     20  C   UNL     1       2.614   5.295  18.763  0.00  0.00    +0.000 A 
ATOM     21 CL   UNL     1       2.591   6.784  19.639  0.00  0.00    +0.000 Cl
ENDBRANCH  14  15
ENDBRANCH  12  14
ENDBRANCH   1  12
TORSDOF 5
ENDMDL
MODEL 2
REMARK VINA RESULT:      -7.6      1.973      2.661
REMARK  Name = 
REMARK  5 active torsions:
REMARK  status: ('A' for Active; 'I' for Inactive)
REMARK    1  A    between atoms: C_2  and  C_3
REMARK    2  A    between atoms: C_2  and  C_15
REMARK    3  A    between atoms: C_3  and  S_4
REMARK    4  A    between atoms: S_4  and  C_5
REMARK    5  A    between atoms: C_8  and  C_9
REMARK                            x       y       z     vdW  Elec       q    Type
REMARK                         _______ _______ _______ _____ _____    ______ ____
ROOT
ATOM      1  S   UNL     1       5.105   4.923  19.014  0.00  0.00    +0.000 S 
ENDROOT
BRANCH   1   2
ATOM      2  C   UNL     1       6.095   4.729  17.602  0.00  0.00    +0.000 A 
ATOM      3  N   UNL     1       7.410   4.787  17.561  0.00  0.00    +0.000 NA
ATOM      4  N   UNL     1       7.768   4.588  16.237  0.00  0.00    +0.000 NA
ATOM      5  C   UNL     1       6.645   4.423  15.558  0.00  0.00    +0.000 A 
ATOM      6  O   UNL     1       5.545   4.500  16.374  0.00  0.00    +0.000 OA
BRANCH   5   7
ATOM      7  C   UNL     1       6.556   4.192  14.147  0.00  0.00    +0.000 A 
ATOM      8  C   UNL     1       7.480   4.469  13.151  0.00  0.00    +0.000 A 
ATOM      9  C   UNL     1       6.915   4.052  11.921  0.00  0.00    +0.000 A 
ATOM     10  C   UNL     1       5.678   3.542  12.227  0.00  0.00    +0.000 A 
ATOM     11  O   UNL     1       5.452   3.621  13.562  0.00  0.00    +0.000 OA
ENDBRANCH   5   7
ENDBRANCH   1   2
BRANCH   1  12
ATOM     12  C   UNL     1       3.935   6.210  18.496  0.00  0.00    +0.000 C 
BRANCH  12  14
ATOM     13  O   UNL     1       2.133   7.269  19.751  0.00  0.00    +0.000 OA
ATOM     14  C   UNL     1       2.720   6.241  19.422  0.00  0.00    +0.000 C 
BRANCH  14  15
ATOM     15  C   UNL     1       2.174   4.933  19.887  0.00  0.00    +0.000 A 
ATOM     16  C   UNL     1       2.354   4.567  21.232  0.00  0.00    +0.000 A 
ATOM     17  C   UNL     1       1.891   3.332  21.696  0.00  0.00    +0.000 A 
ATOM     18  C   UNL     1       1.253   2.453  20.826  0.00  0.00    +0.000 A 
ATOM     19  C   UNL     1       1.077   2.804  19.488  0.00  0.00    +0.000 A 
ATOM     20  C   UNL     1       1.534   4.041  19.012  0.00  0.00    +0.000 A 
ATOM     21 CL   UNL     1       1.216   4.396  17.352  0.00  0.00    +0.000 Cl
ENDBRANCH  14  15
ENDBRANCH  12  14
ENDBRANCH   1  12
TORSDOF 5
ENDMDL
MODEL 3
REMARK VINA RESULT:      -7.5      3.954      6.419
REMARK  Name = 
REMARK  5 active torsions:
REMARK  status: ('A' for Active; 'I' for Inactive)
REMARK    1  A    between atoms: C_2  and  C_3
REMARK    2  A    between atoms: C_2  and  C_15
REMARK    3  A    between atoms: C_3  and  S_4
REMARK    4  A    between atoms: S_4  and  C_5
REMARK    5  A    between atoms: C_8  and  C_9
REMARK                            x       y       z     vdW  Elec       q    Type
REMARK                         _______ _______ _______ _____ _____    ______ ____
ROOT
ATOM      1  S   UNL     1       7.385   5.112  18.214  0.00  0.00    +0.000 S 
ENDROOT
BRANCH   1   2
ATOM      2  C   UNL     1       7.561   6.820  17.968  0.00  0.00    +0.000 A 
ATOM      3  N   UNL     1       6.915   7.549  17.082  0.00  0.00    +0.000 NA
ATOM      4  N   UNL     1       7.377   8.847  17.233  0.00  0.00    +0.000 NA
ATOM      5  C   UNL     1       8.275   8.822  18.203  0.00  0.00    +0.000 A 
ATOM      6  O   UNL     1       8.435   7.559  18.712  0.00  0.00    +0.000 OA
BRANCH   5   7
ATOM      7  C   UNL     1       9.008   9.956  18.683  0.00  0.00    +0.000 A 
ATOM      8  C   UNL     1       9.565  11.008  17.972  0.00  0.00    +0.000 A 
ATOM      9  C   UNL     1      10.185  11.872  18.908  0.00  0.00    +0.000 A 
ATOM     10  C   UNL     1       9.976  11.304  20.140  0.00  0.00    +0.000 A 
ATOM     11  O   UNL     1       9.269  10.154  20.017  0.00  0.00    +0.000 OA
ENDBRANCH   5   7
ENDBRANCH   1   2
BRANCH   1  12
ATOM     12  C   UNL     1       5.885   5.018  19.232  0.00  0.00    +0.000 C 
BRANCH  12  14
ATOM     13  O   UNL     1       4.662   4.829  17.131  0.00  0.00    +0.000 OA
ATOM     14  C   UNL     1       4.653   4.781  18.360  0.00  0.00    +0.000 C 
BRANCH  14  15
ATOM     15  C   UNL     1       3.387   4.393  19.044  0.00  0.00    +0.000 A 
ATOM     16  C   UNL     1       2.743   5.340  19.859  0.00  0.00    +0.000 A 
ATOM     17  C   UNL     1       1.575   5.001  20.549  0.00  0.00    +0.000 A 
ATOM     18  C   UNL     1       1.045   3.719  20.439  0.00  0.00    +0.000 A 
ATOM     19  C   UNL     1       1.682   2.770  19.640  0.00  0.00    +0.000 A 
ATOM     20  C   UNL     1       2.851   3.100  18.940  0.00  0.00    +0.000 A 
ATOM     21 CL   UNL     1       3.526   1.865  17.938  0.00  0.00    +0.000 Cl
ENDBRANCH  14  15
ENDBRANCH  12  14
ENDBRANCH   1  12
TORSDOF 5
ENDMDL
MODEL 4
REMARK VINA RESULT:      -7.4      1.411      1.650
REMARK  Name = 
REMARK  5 active torsions:
REMARK  status: ('A' for Active; 'I' for Inactive)
REMARK    1  A    between atoms: C_2  and  C_3
REMARK    2  A    between atoms: C_2  and  C_15
REMARK    3  A    between atoms: C_3  and  S_4
REMARK    4  A    between atoms: S_4  and  C_5
REMARK    5  A    between atoms: C_8  and  C_9
REMARK                            x       y       z     vdW  Elec       q    Type
REMARK                         _______ _______ _______ _____ _____    ______ ____
ROOT
ATOM      1  S   UNL     1       6.950   4.725  17.794  0.00  0.00    +0.000 S 
ENDROOT
BRANCH   1   2
ATOM      2  C   UNL     1       6.947   4.752  16.060  0.00  0.00    +0.000 A 
ATOM      3  N   UNL     1       7.595   5.605  15.294  0.00  0.00    +0.000 NA
ATOM      4  N   UNL     1       7.298   5.259  13.986  0.00  0.00    +0.000 NA
ATOM      5  C   UNL     1       6.487   4.216  14.041  0.00  0.00    +0.000 A 
ATOM      6  O   UNL     1       6.228   3.845  15.336  0.00  0.00    +0.000 OA
BRANCH   5   7
ATOM      7  C   UNL     1       5.929   3.539  12.909  0.00  0.00    +0.000 A 
ATOM      8  C   UNL     1       6.525   2.633  12.045  0.00  0.00    +0.000 A 
ATOM      9  C   UNL     1       5.550   2.254  11.089  0.00  0.00    +0.000 A 
ATOM     10  C   UNL     1       4.411   2.946  11.417  0.00  0.00    +0.000 A 
ATOM     11  O   UNL     1       4.627   3.721  12.509  0.00  0.00    +0.000 OA
ENDBRANCH   5   7
ENDBRANCH   1   2
BRANCH   1  12
ATOM     12  C   UNL     1       5.491   5.725  18.202  0.00  0.00    +0.000 C 
BRANCH  12  14
ATOM     13  O   UNL     1       3.765   4.551  16.942  0.00  0.00    +0.000 OA
ATOM     14  C   UNL     1       4.211   4.908  18.031  0.00  0.00    +0.000 C 
BRANCH  14  15
ATOM     15  C   UNL     1       3.512   4.453  19.267  0.00  0.00    +0.000 A 
ATOM     16  C   UNL     1       3.698   3.129  19.698  0.00  0.00    +0.000 A 
ATOM     17  C   UNL     1       3.027   2.654  20.830  0.00  0.00    +0.000 A 
ATOM     18  C   UNL     1       2.165   3.488  21.534  0.00  0.00    +0.000 A 
ATOM     19  C   UNL     1       1.968   4.802  21.108  0.00  0.00    +0.000 A 
ATOM     20  C   UNL     1       2.637   5.290  19.977  0.00  0.00    +0.000 A 
ATOM     21 CL   UNL     1       2.361   6.946  19.571  0.00  0.00    +0.000 Cl
ENDBRANCH  14  15
ENDBRANCH  12  14
ENDBRANCH   1  12
TORSDOF 5
ENDMDL
MODEL 5
REMARK VINA RESULT:      -7.4      1.050      1.256
REMARK  Name = 
REMARK  5 active torsions:
REMARK  status: ('A' for Active; 'I' for Inactive)
REMARK    1  A    between atoms: C_2  and  C_3
REMARK    2  A    between atoms: C_2  and  C_15
REMARK    3  A    between atoms: C_3  and  S_4
REMARK    4  A    between atoms: S_4  and  C_5
REMARK    5  A    between atoms: C_8  and  C_9
REMARK                            x       y       z     vdW  Elec       q    Type
REMARK                         _______ _______ _______ _____ _____    ______ ____
ROOT
ATOM      1  S   UNL     1       6.311   4.506  18.573  0.00  0.00    +0.000 S 
ENDROOT
BRANCH   1   2
ATOM      2  C   UNL     1       6.586   4.754  16.878  0.00  0.00    +0.000 A 
ATOM      3  N   UNL     1       7.309   5.714  16.340  0.00  0.00    +0.000 NA
ATOM      4  N   UNL     1       7.242   5.532  14.968  0.00  0.00    +0.000 NA
ATOM      5  C   UNL     1       6.482   4.470  14.760  0.00  0.00    +0.000 A 
ATOM      6  O   UNL     1       6.035   3.930  15.939  0.00  0.00    +0.000 OA
BRANCH   5   7
ATOM      7  C   UNL     1       6.145   3.930  13.477  0.00  0.00    +0.000 A 
ATOM      8  C   UNL     1       6.980   3.526  12.447  0.00  0.00    +0.000 A 
ATOM      9  C   UNL     1       6.157   3.066  11.389  0.00  0.00    +0.000 A 
ATOM     10  C   UNL     1       4.864   3.211  11.827  0.00  0.00    +0.000 A 
ATOM     11  O   UNL     1       4.845   3.728  13.080  0.00  0.00    +0.000 OA
ENDBRANCH   5   7
ENDBRANCH   1   2
BRANCH   1  12
ATOM     12  C   UNL     1       5.132   5.825  18.974  0.00  0.00    +0.000 C 
BRANCH  12  14
ATOM     13  O   UNL     1       3.583   6.424  17.189  0.00  0.00    +0.000 OA
ATOM     14  C   UNL     1       3.862   5.690  18.134  0.00  0.00    +0.000 C 
BRANCH  14  15
ATOM     15  C   UNL     1       2.953   4.548  18.437  0.00  0.00    +0.000 A 
ATOM     16  C   UNL     1       3.016   3.402  17.625  0.00  0.00    +0.000 A 
ATOM     17  C   UNL     1       2.152   2.326  17.853  0.00  0.00    +0.000 A 
ATOM     18  C   UNL     1       1.218   2.385  18.882  0.00  0.00    +0.000 A 
ATOM     19  C   UNL     1       1.142   3.522  19.687  0.00  0.00    +0.000 A 
ATOM     20  C   UNL     1       2.006   4.605  19.471  0.00  0.00    +0.000 A 
ATOM     21 CL   UNL     1       1.862   5.937  20.561  0.00  0.00    +0.000 Cl
ENDBRANCH  14  15
ENDBRANCH  12  14
ENDBRANCH   1  12
TORSDOF 5
ENDMDL
MODEL 6
REMARK VINA RESULT:      -7.3      1.440      1.654
REMARK  Name = 
REMARK  5 active torsions:
REMARK  status: ('A' for Active; 'I' for Inactive)
REMARK    1  A    between atoms: C_2  and  C_3
REMARK    2  A    between atoms: C_2  and  C_15
REMARK    3  A    between atoms: C_3  and  S_4
REMARK    4  A    between atoms: S_4  and  C_5
REMARK    5  A    between atoms: C_8  and  C_9
REMARK                            x       y       z     vdW  Elec       q    Type
REMARK                         _______ _______ _______ _____ _____    ______ ____
ROOT
ATOM      1  S   UNL     1       6.990   4.923  17.491  0.00  0.00    +0.000 S 
ENDROOT
BRANCH   1   2
ATOM      2  C   UNL     1       6.976   4.815  15.760  0.00  0.00    +0.000 A 
ATOM      3  N   UNL     1       7.681   5.553  14.929  0.00  0.00    +0.000 NA
ATOM      4  N   UNL     1       7.348   5.131  13.652  0.00  0.00    +0.000 NA
ATOM      5  C   UNL     1       6.459   4.162  13.790  0.00  0.00    +0.000 A 
ATOM      6  O   UNL     1       6.183   3.914  15.110  0.00  0.00    +0.000 OA
BRANCH   5   7
ATOM      7  C   UNL     1       5.842   3.444  12.715  0.00  0.00    +0.000 A 
ATOM      8  C   UNL     1       6.342   2.399  11.954  0.00  0.00    +0.000 A 
ATOM      9  C   UNL     1       5.342   2.039  11.017  0.00  0.00    +0.000 A 
ATOM     10  C   UNL     1       4.284   2.881  11.254  0.00  0.00    +0.000 A 
ATOM     11  O   UNL     1       4.572   3.728  12.272  0.00  0.00    +0.000 OA
ENDBRANCH   5   7
ENDBRANCH   1   2
BRANCH   1  12
ATOM     12  C   UNL     1       5.225   5.065  17.888  0.00  0.00    +0.000 C 
BRANCH  12  14
ATOM     13  O   UNL     1       5.567   3.663  19.852  0.00  0.00    +0.000 OA
ATOM     14  C   UNL     1       4.825   4.041  18.949  0.00  0.00    +0.000 C 
BRANCH  14  15
ATOM     15  C   UNL     1       3.423   3.535  18.926  0.00  0.00    +0.000 A 
ATOM     16  C   UNL     1       3.158   2.311  18.289  0.00  0.00    +0.000 A 
ATOM     17  C   UNL     1       1.850   1.823  18.211  0.00  0.00    +0.000 A 
ATOM     18  C   UNL     1       0.798   2.550  18.760  0.00  0.00    +0.000 A 
ATOM     19  C   UNL     1       1.050   3.770  19.386  0.00  0.00    +0.000 A 
ATOM     20  C   UNL     1       2.358   4.268  19.474  0.00  0.00    +0.000 A 
ATOM     21 CL   UNL     1       2.562   5.761  20.318  0.00  0.00    +0.000 Cl
ENDBRANCH  14  15
ENDBRANCH  12  14
ENDBRANCH   1  12
TORSDOF 5
ENDMDL
MODEL 7
REMARK VINA RESULT:      -7.3      1.870      2.293
REMARK  Name = 
REMARK  5 active torsions:
REMARK  status: ('A' for Active; 'I' for Inactive)
REMARK    1  A    between atoms: C_2  and  C_3
REMARK    2  A    between atoms: C_2  and  C_15
REMARK    3  A    between atoms: C_3  and  S_4
REMARK    4  A    between atoms: S_4  and  C_5
REMARK    5  A    between atoms: C_8  and  C_9
REMARK                            x       y       z     vdW  Elec       q    Type
REMARK                         _______ _______ _______ _____ _____    ______ ____
ROOT
ATOM      1  S   UNL     1       6.803   5.599  18.767  0.00  0.00    +0.000 S 
ENDROOT
BRANCH   1   2
ATOM      2  C   UNL     1       6.384   5.719  17.088  0.00  0.00    +0.000 A 
ATOM      3  N   UNL     1       5.813   6.750  16.501  0.00  0.00    +0.000 NA
ATOM      4  N   UNL     1       5.658   6.404  15.168  0.00  0.00    +0.000 NA
ATOM      5  C   UNL     1       6.145   5.183  15.031  0.00  0.00    +0.000 A 
ATOM      6  O   UNL     1       6.625   4.694  16.220  0.00  0.00    +0.000 OA
BRANCH   5   7
ATOM      7  C   UNL     1       6.181   4.437  13.809  0.00  0.00    +0.000 A 
ATOM      8  C   UNL     1       5.228   3.585  13.271  0.00  0.00    +0.000 A 
ATOM      9  C   UNL     1       5.741   3.094  12.045  0.00  0.00    +0.000 A 
ATOM     10  C   UNL     1       6.979   3.670  11.897  0.00  0.00    +0.000 A 
ATOM     11  O   UNL     1       7.253   4.479  12.950  0.00  0.00    +0.000 OA
ENDBRANCH   5   7
ENDBRANCH   1   2
BRANCH   1  12
ATOM     12  C   UNL     1       5.527   4.479  19.409  0.00  0.00    +0.000 C 
BRANCH  12  14
ATOM     13  O   UNL     1       4.013   6.390  19.378  0.00  0.00    +0.000 OA
ATOM     14  C   UNL     1       4.165   5.172  19.437  0.00  0.00    +0.000 C 
BRANCH  14  15
ATOM     15  C   UNL     1       2.951   4.306  19.459  0.00  0.00    +0.000 A 
ATOM     16  C   UNL     1       2.213   4.209  20.651  0.00  0.00    +0.000 A 
ATOM     17  C   UNL     1       1.092   3.376  20.722  0.00  0.00    +0.000 A 
ATOM     18  C   UNL     1       0.702   2.632  19.613  0.00  0.00    +0.000 A 
ATOM     19  C   UNL     1       1.434   2.715  18.428  0.00  0.00    +0.000 A 
ATOM     20  C   UNL     1       2.557   3.549  18.344  0.00  0.00    +0.000 A 
ATOM     21 CL   UNL     1       3.356   3.617  16.814  0.00  0.00    +0.000 Cl
ENDBRANCH  14  15
ENDBRANCH  12  14
ENDBRANCH   1  12
TORSDOF 5
ENDMDL
MODEL 8
REMARK VINA RESULT:      -7.3      1.512      2.010
REMARK  Name = 
REMARK  5 active torsions:
REMARK  status: ('A' for Active; 'I' for Inactive)
REMARK    1  A    between atoms: C_2  and  C_3
REMARK    2  A    between atoms: C_2  and  C_15
REMARK    3  A    between atoms: C_3  and  S_4
REMARK    4  A    between atoms: S_4  and  C_5
REMARK    5  A    between atoms: C_8  and  C_9
REMARK                            x       y       z     vdW  Elec       q    Type
REMARK                         _______ _______ _______ _____ _____    ______ ____
ROOT
ATOM      1  S   UNL     1       6.670   4.529  18.344  0.00  0.00    +0.000 S 
ENDROOT
BRANCH   1   2
ATOM      2  C   UNL     1       6.798   4.708  16.624  0.00  0.00    +0.000 A 
ATOM      3  N   UNL     1       7.485   5.634  15.987  0.00  0.00    +0.000 NA
ATOM      4  N   UNL     1       7.294   5.400  14.634  0.00  0.00    +0.000 NA
ATOM      5  C   UNL     1       6.503   4.345  14.536  0.00  0.00    +0.000 A 
ATOM      6  O   UNL     1       6.155   3.858  15.770  0.00  0.00    +0.000 OA
BRANCH   5   7
ATOM      7  C   UNL     1       6.047   3.762  13.310  0.00  0.00    +0.000 A 
ATOM      8  C   UNL     1       6.770   3.106  12.326  0.00  0.00    +0.000 A 
ATOM      9  C   UNL     1       5.857   2.718  11.315  0.00  0.00    +0.000 A 
ATOM     10  C   UNL     1       4.625   3.157  11.732  0.00  0.00    +0.000 A 
ATOM     11  O   UNL     1       4.727   3.785  12.929  0.00  0.00    +0.000 OA
ENDBRANCH   5   7
ENDBRANCH   1   2
BRANCH   1  12
ATOM     12  C   UNL     1       5.499   5.844  18.787  0.00  0.00    +0.000 C 
BRANCH  12  14
ATOM     13  O   UNL     1       3.856   5.873  16.986  0.00  0.00    +0.000 OA
ATOM     14  C   UNL     1       4.134   5.589  18.149  0.00  0.00    +0.000 C 
BRANCH  14  15
ATOM     15  C   UNL     1       3.110   4.881  18.969  0.00  0.00    +0.000 A 
ATOM     16  C   UNL     1       2.388   5.615  19.926  0.00  0.00    +0.000 A 
ATOM     17  C   UNL     1       1.448   4.978  20.743  0.00  0.00    +0.000 A 
ATOM     18  C   UNL     1       1.225   3.611  20.618  0.00  0.00    +0.000 A 
ATOM     19  C   UNL     1       1.943   2.873  19.677  0.00  0.00    +0.000 A 
ATOM     20  C   UNL     1       2.885   3.501  18.850  0.00  0.00    +0.000 A 
ATOM     21 CL   UNL     1       3.677   2.502  17.684  0.00  0.00    +0.000 Cl
ENDBRANCH  14  15
ENDBRANCH  12  14
ENDBRANCH   1  12
TORSDOF 5
ENDMDL
MODEL 9
REMARK VINA RESULT:      -7.3      1.848      2.699
REMARK  Name = 
REMARK  5 active torsions:
REMARK  status: ('A' for Active; 'I' for Inactive)
REMARK    1  A    between atoms: C_2  and  C_3
REMARK    2  A    between atoms: C_2  and  C_15
REMARK    3  A    between atoms: C_3  and  S_4
REMARK    4  A    between atoms: S_4  and  C_5
REMARK    5  A    between atoms: C_8  and  C_9
REMARK                            x       y       z     vdW  Elec       q    Type
REMARK                         _______ _______ _______ _____ _____    ______ ____
ROOT
ATOM      1  S   UNL     1       5.775   4.765  19.093  0.00  0.00    +0.000 S 
ENDROOT
BRANCH   1   2
ATOM      2  C   UNL     1       6.438   5.097  17.525  0.00  0.00    +0.000 A 
ATOM      3  N   UNL     1       7.303   6.046  17.231  0.00  0.00    +0.000 NA
ATOM      4  N   UNL     1       7.543   5.947  15.870  0.00  0.00    +0.000 NA
ATOM      5  C   UNL     1       6.807   4.943  15.424  0.00  0.00    +0.000 A 
ATOM      6  O   UNL     1       6.083   4.360  16.432  0.00  0.00    +0.000 OA
BRANCH   5   7
ATOM      7  C   UNL     1       6.751   4.497  14.064  0.00  0.00    +0.000 A 
ATOM      8  C   UNL     1       7.525   4.881  12.980  0.00  0.00    +0.000 A 
ATOM      9  C   UNL     1       7.074   4.148  11.855  0.00  0.00    +0.000 A 
ATOM     10  C   UNL     1       6.049   3.355  12.308  0.00  0.00    +0.000 A 
ATOM     11  O   UNL     1       5.846   3.556  13.634  0.00  0.00    +0.000 OA
ENDBRANCH   5   7
ENDBRANCH   1   2
BRANCH   1  12
ATOM     12  C   UNL     1       4.525   3.502  18.729  0.00  0.00    +0.000 C 
BRANCH  12  14
ATOM     13  O   UNL     1       2.670   3.627  17.151  0.00  0.00    +0.000 OA
ATOM     14  C   UNL     1       3.291   4.132  18.084  0.00  0.00    +0.000 C 
BRANCH  14  15
ATOM     15  C   UNL     1       2.771   5.396  18.679  0.00  0.00    +0.000 A 
ATOM     16  C   UNL     1       2.944   6.597  17.970  0.00  0.00    +0.000 A 
ATOM     17  C   UNL     1       2.506   7.809  18.515  0.00  0.00    +0.000 A 
ATOM     18  C   UNL     1       1.900   7.835  19.766  0.00  0.00    +0.000 A 
ATOM     19  C   UNL     1       1.731   6.649  20.481  0.00  0.00    +0.000 A 
ATOM     20  C   UNL     1       2.163   5.428  19.944  0.00  0.00    +0.000 A 
ATOM     21 CL   UNL     1       1.855   4.016  20.891  0.00  0.00    +0.000 Cl
ENDBRANCH  14  15
ENDBRANCH  12  14
ENDBRANCH   1  12
TORSDOF 5
ENDMDL
