MODEL 1
REMARK VINA RESULT:      -7.1      0.000      0.000
REMARK  Name = 
REMARK  3 active torsions:
REMARK  status: ('A' for Active; 'I' for Inactive)
REMARK    1  A    between atoms: O_1  and  C_2
REMARK    2  A    between atoms: N_7  and  N_8
REMARK    3  A    between atoms: C_9  and  C_10
REMARK                            x       y       z     vdW  Elec       q    Type
REMARK                         _______ _______ _______ _____ _____    ______ ____
ROOT
ATOM      1  C   UNL     1       7.326   5.048  14.689  0.00  0.00    +0.000 A 
ATOM      2  C   UNL     1       6.307   4.393  14.038  0.00  0.00    +0.000 A 
ATOM      3  N   UNL     1       5.366   3.756  14.743  0.00  0.00    +0.000 NA
ATOM      4  N   UNL     1       5.473   3.777  16.100  0.00  0.00    +0.000 NA
ATOM      5  C   UNL     1       6.499   4.430  16.711  0.00  0.00    +0.000 A 
ATOM      6  N   UNL     1       6.614   4.423  18.108  0.00  0.00    +0.000 N 
ATOM      7  N   UNL     1       7.445   5.092  16.024  0.00  0.00    +0.000 NA
ATOM      8  H   UNL     1       7.321   5.061  18.452  0.00  0.00    +0.000 HD
ENDROOT
BRANCH   1   9
ATOM      9  O   UNL     1       8.309   5.708  14.005  0.00  0.00    +0.000 OA
ATOM     10  H   UNL     1       8.582   5.169  13.249  0.00  0.00    +0.000 HD
ENDBRANCH   1   9
BRANCH   6  11
ATOM     11  N   UNL     1       5.613   3.898  18.848  0.00  0.00    +0.000 NA
ATOM     12  C   UNL     1       4.534   4.601  18.964  0.00  0.00    +0.000 C 
BRANCH  12  13
ATOM     13  C   UNL     1       3.393   4.094  19.756  0.00  0.00    +0.000 A 
ATOM     14  C   UNL     1       2.202   4.813  19.808  0.00  0.00    +0.000 A 
ATOM     15  C   UNL     1       1.176   4.326  20.609  0.00  0.00    +0.000 A 
ATOM     16  C   UNL     1       1.372   3.146  21.317  0.00  0.00    +0.000 A 
ATOM     17  C   UNL     1       2.590   2.491  21.188  0.00  0.00    +0.000 A 
ATOM     18  N   UNL     1       3.611   2.935  20.421  0.00  0.00    +0.000 NA
ENDBRANCH  12  13
ENDBRANCH   6  11
TORSDOF 3
ENDMDL
MODEL 2
REMARK VINA RESULT:      -6.9      3.024      6.949
REMARK  Name = 
REMARK  3 active torsions:
REMARK  status: ('A' for Active; 'I' for Inactive)
REMARK    1  A    between atoms: O_1  and  C_2
REMARK    2  A    between atoms: N_7  and  N_8
REMARK    3  A    between atoms: C_9  and  C_10
REMARK                            x       y       z     vdW  Elec       q    Type
REMARK                         _______ _______ _______ _____ _____    ______ ____
ROOT
ATOM      1  C   UNL     1       2.337   3.119  20.094  0.00  0.00    +0.000 A 
ATOM      2  C   UNL     1       1.275   2.960  19.235  0.00  0.00    +0.000 A 
ATOM      3  N   UNL     1       1.469   3.034  17.914  0.00  0.00    +0.000 NA
ATOM      4  N   UNL     1       2.734   3.281  17.476  0.00  0.00    +0.000 NA
ATOM      5  C   UNL     1       3.761   3.441  18.355  0.00  0.00    +0.000 A 
ATOM      6  N   UNL     1       5.055   3.722  17.895  0.00  0.00    +0.000 N 
ATOM      7  N   UNL     1       3.592   3.353  19.686  0.00  0.00    +0.000 NA
ATOM      8  H   UNL     1       5.756   3.668  18.623  0.00  0.00    +0.000 HD
ENDROOT
BRANCH   1   9
ATOM      9  O   UNL     1       2.179   3.055  21.451  0.00  0.00    +0.000 OA
ATOM     10  H   UNL     1       1.248   2.885  21.652  0.00  0.00    +0.000 HD
ENDBRANCH   1   9
BRANCH   6  11
ATOM     11  N   UNL     1       5.305   3.676  16.568  0.00  0.00    +0.000 NA
ATOM     12  C   UNL     1       6.210   4.479  16.110  0.00  0.00    +0.000 C 
BRANCH  12  13
ATOM     13  C   UNL     1       6.542   4.487  14.669  0.00  0.00    +0.000 A 
ATOM     14  C   UNL     1       5.825   3.692  13.780  0.00  0.00    +0.000 A 
ATOM     15  C   UNL     1       6.208   3.691  12.444  0.00  0.00    +0.000 A 
ATOM     16  C   UNL     1       7.281   4.480  12.048  0.00  0.00    +0.000 A 
ATOM     17  C   UNL     1       7.925   5.252  13.006  0.00  0.00    +0.000 A 
ATOM     18  N   UNL     1       7.582   5.278  14.313  0.00  0.00    +0.000 NA
ENDBRANCH  12  13
ENDBRANCH   6  11
TORSDOF 3
ENDMDL
MODEL 3
REMARK VINA RESULT:      -6.9      0.696      1.205
REMARK  Name = 
REMARK  3 active torsions:
REMARK  status: ('A' for Active; 'I' for Inactive)
REMARK    1  A    between atoms: O_1  and  C_2
REMARK    2  A    between atoms: N_7  and  N_8
REMARK    3  A    between atoms: C_9  and  C_10
REMARK                            x       y       z     vdW  Elec       q    Type
REMARK                         _______ _______ _______ _____ _____    ______ ____
ROOT
ATOM      1  C   UNL     1       7.267   5.001  14.723  0.00  0.00    +0.000 A 
ATOM      2  C   UNL     1       6.202   4.400  14.094  0.00  0.00    +0.000 A 
ATOM      3  N   UNL     1       5.254   3.796  14.818  0.00  0.00    +0.000 NA
ATOM      4  N   UNL     1       5.400   3.794  16.171  0.00  0.00    +0.000 NA
ATOM      5  C   UNL     1       6.471   4.393  16.760  0.00  0.00    +0.000 A 
ATOM      6  N   UNL     1       6.626   4.362  18.154  0.00  0.00    +0.000 N 
ATOM      7  N   UNL     1       7.426   5.022  16.054  0.00  0.00    +0.000 NA
ATOM      8  H   UNL     1       7.369   4.964  18.485  0.00  0.00    +0.000 HD
ENDROOT
BRANCH   1   9
ATOM      9  O   UNL     1       8.259   5.626  14.019  0.00  0.00    +0.000 OA
ATOM     10  H   UNL     1       9.039   5.714  14.585  0.00  0.00    +0.000 HD
ENDBRANCH   1   9
BRANCH   6  11
ATOM     11  N   UNL     1       5.624   3.871  18.916  0.00  0.00    +0.000 NA
ATOM     12  C   UNL     1       4.562   4.601  19.035  0.00  0.00    +0.000 C 
BRANCH  12  13
ATOM     13  C   UNL     1       3.421   4.133  19.851  0.00  0.00    +0.000 A 
ATOM     14  C   UNL     1       3.488   2.911  20.513  0.00  0.00    +0.000 A 
ATOM     15  C   UNL     1       2.371   2.486  21.223  0.00  0.00    +0.000 A 
ATOM     16  C   UNL     1       1.240   3.294  21.250  0.00  0.00    +0.000 A 
ATOM     17  C   UNL     1       1.275   4.505  20.572  0.00  0.00    +0.000 A 
ATOM     18  N   UNL     1       2.342   4.950  19.869  0.00  0.00    +0.000 NA
ENDBRANCH  12  13
ENDBRANCH   6  11
TORSDOF 3
ENDMDL
MODEL 4
REMARK VINA RESULT:      -6.8      1.166      1.318
REMARK  Name = 
REMARK  3 active torsions:
REMARK  status: ('A' for Active; 'I' for Inactive)
REMARK    1  A    between atoms: O_1  and  C_2
REMARK    2  A    between atoms: N_7  and  N_8
REMARK    3  A    between atoms: C_9  and  C_10
REMARK                            x       y       z     vdW  Elec       q    Type
REMARK                         _______ _______ _______ _____ _____    ______ ____
ROOT
ATOM      1  C   UNL     1       7.556   5.171  13.925  0.00  0.00    +0.000 A 
ATOM      2  C   UNL     1       6.740   4.308  13.233  0.00  0.00    +0.000 A 
ATOM      3  N   UNL     1       5.781   3.635  13.878  0.00  0.00    +0.000 NA
ATOM      4  N   UNL     1       5.667   3.831  15.220  0.00  0.00    +0.000 NA
ATOM      5  C   UNL     1       6.498   4.688  15.875  0.00  0.00    +0.000 A 
ATOM      6  N   UNL     1       6.390   4.863  17.262  0.00  0.00    +0.000 N 
ATOM      7  N   UNL     1       7.456   5.389  15.244  0.00  0.00    +0.000 NA
ATOM      8  H   UNL     1       6.952   5.630  17.610  0.00  0.00    +0.000 HD
ENDROOT
BRANCH   1   9
ATOM      9  O   UNL     1       8.550   5.875  13.303  0.00  0.00    +0.000 OA
ATOM     10  H   UNL     1       8.501   6.800  13.580  0.00  0.00    +0.000 HD
ENDBRANCH   1   9
BRANCH   6  11
ATOM     11  N   UNL     1       5.354   4.296  17.917  0.00  0.00    +0.000 NA
ATOM     12  C   UNL     1       4.365   5.066  18.236  0.00  0.00    +0.000 C 
BRANCH  12  13
ATOM     13  C   UNL     1       3.193   4.519  18.953  0.00  0.00    +0.000 A 
ATOM     14  C   UNL     1       2.377   3.572  18.342  0.00  0.00    +0.000 A 
ATOM     15  C   UNL     1       1.255   3.128  19.033  0.00  0.00    +0.000 A 
ATOM     16  C   UNL     1       0.996   3.637  20.300  0.00  0.00    +0.000 A 
ATOM     17  C   UNL     1       1.878   4.567  20.832  0.00  0.00    +0.000 A 
ATOM     18  N   UNL     1       2.977   5.025  20.190  0.00  0.00    +0.000 NA
ENDBRANCH  12  13
ENDBRANCH   6  11
TORSDOF 3
ENDMDL
MODEL 5
REMARK VINA RESULT:      -6.8      1.190      1.285
REMARK  Name = 
REMARK  3 active torsions:
REMARK  status: ('A' for Active; 'I' for Inactive)
REMARK    1  A    between atoms: O_1  and  C_2
REMARK    2  A    between atoms: N_7  and  N_8
REMARK    3  A    between atoms: C_9  and  C_10
REMARK                            x       y       z     vdW  Elec       q    Type
REMARK                         _______ _______ _______ _____ _____    ______ ____
ROOT
ATOM      1  C   UNL     1       7.562   5.182  13.984  0.00  0.00    +0.000 A 
ATOM      2  C   UNL     1       6.772   4.317  13.264  0.00  0.00    +0.000 A 
ATOM      3  N   UNL     1       5.792   3.643  13.874  0.00  0.00    +0.000 NA
ATOM      4  N   UNL     1       5.628   3.842  15.211  0.00  0.00    +0.000 NA
ATOM      5  C   UNL     1       6.433   4.700  15.894  0.00  0.00    +0.000 A 
ATOM      6  N   UNL     1       6.274   4.877  17.276  0.00  0.00    +0.000 N 
ATOM      7  N   UNL     1       7.413   5.401  15.298  0.00  0.00    +0.000 NA
ATOM      8  H   UNL     1       6.821   5.645  17.644  0.00  0.00    +0.000 HD
ENDROOT
BRANCH   1   9
ATOM      9  O   UNL     1       8.577   5.886  13.398  0.00  0.00    +0.000 OA
ATOM     10  H   UNL     1       9.368   5.816  13.950  0.00  0.00    +0.000 HD
ENDBRANCH   1   9
BRANCH   6  11
ATOM     11  N   UNL     1       5.215   4.310  17.894  0.00  0.00    +0.000 NA
ATOM     12  C   UNL     1       4.236   5.089  18.222  0.00  0.00    +0.000 C 
BRANCH  12  13
ATOM     13  C   UNL     1       3.040   4.543  18.900  0.00  0.00    +0.000 A 
ATOM     14  C   UNL     1       2.723   4.946  20.193  0.00  0.00    +0.000 A 
ATOM     15  C   UNL     1       1.621   4.365  20.810  0.00  0.00    +0.000 A 
ATOM     16  C   UNL     1       0.880   3.416  20.116  0.00  0.00    +0.000 A 
ATOM     17  C   UNL     1       1.266   3.090  18.823  0.00  0.00    +0.000 A 
ATOM     18  N   UNL     1       2.332   3.632  18.191  0.00  0.00    +0.000 NA
ENDBRANCH  12  13
ENDBRANCH   6  11
TORSDOF 3
ENDMDL
MODEL 6
REMARK VINA RESULT:      -6.7      1.792      2.009
REMARK  Name = 
REMARK  3 active torsions:
REMARK  status: ('A' for Active; 'I' for Inactive)
REMARK    1  A    between atoms: O_1  and  C_2
REMARK    2  A    between atoms: N_7  and  N_8
REMARK    3  A    between atoms: C_9  and  C_10
REMARK                            x       y       z     vdW  Elec       q    Type
REMARK                         _______ _______ _______ _____ _____    ______ ____
ROOT
ATOM      1  C   UNL     1       8.018   5.326  13.212  0.00  0.00    +0.000 A 
ATOM      2  C   UNL     1       7.370   4.526  12.300  0.00  0.00    +0.000 A 
ATOM      3  N   UNL     1       6.383   3.719  12.702  0.00  0.00    +0.000 NA
ATOM      4  N   UNL     1       6.069   3.720  14.027  0.00  0.00    +0.000 NA
ATOM      5  C   UNL     1       6.736   4.520  14.903  0.00  0.00    +0.000 A 
ATOM      6  N   UNL     1       6.423   4.493  16.270  0.00  0.00    +0.000 N 
ATOM      7  N   UNL     1       7.719   5.352  14.519  0.00  0.00    +0.000 NA
ATOM      8  H   UNL     1       6.873   5.232  16.795  0.00  0.00    +0.000 HD
ENDROOT
BRANCH   1   9
ATOM      9  O   UNL     1       9.034   6.162  12.841  0.00  0.00    +0.000 OA
ATOM     10  H   UNL     1       9.260   6.733  13.588  0.00  0.00    +0.000 HD
ENDBRANCH   1   9
BRANCH   6  11
ATOM     11  N   UNL     1       5.350   3.786  16.685  0.00  0.00    +0.000 NA
ATOM     12  C   UNL     1       4.482   4.405  17.417  0.00  0.00    +0.000 C 
BRANCH  12  13
ATOM     13  C   UNL     1       3.279   3.700  17.908  0.00  0.00    +0.000 A 
ATOM     14  C   UNL     1       2.037   4.327  17.875  0.00  0.00    +0.000 A 
ATOM     15  C   UNL     1       0.943   3.647  18.399  0.00  0.00    +0.000 A 
ATOM     16  C   UNL     1       1.128   2.374  18.925  0.00  0.00    +0.000 A 
ATOM     17  C   UNL     1       2.403   1.825  18.899  0.00  0.00    +0.000 A 
ATOM     18  N   UNL     1       3.490   2.457  18.401  0.00  0.00    +0.000 NA
ENDBRANCH  12  13
ENDBRANCH   6  11
TORSDOF 3
ENDMDL
MODEL 7
REMARK VINA RESULT:      -6.4      6.145      7.882
REMARK  Name = 
REMARK  3 active torsions:
REMARK  status: ('A' for Active; 'I' for Inactive)
REMARK    1  A    between atoms: O_1  and  C_2
REMARK    2  A    between atoms: N_7  and  N_8
REMARK    3  A    between atoms: C_9  and  C_10
REMARK                            x       y       z     vdW  Elec       q    Type
REMARK                         _______ _______ _______ _____ _____    ______ ____
ROOT
ATOM      1  C   UNL     1       7.094   5.138  16.761  0.00  0.00    +0.000 A 
ATOM      2  C   UNL     1       7.383   4.565  17.977  0.00  0.00    +0.000 A 
ATOM      3  N   UNL     1       7.838   5.323  18.980  0.00  0.00    +0.000 NA
ATOM      4  N   UNL     1       8.010   6.652  18.739  0.00  0.00    +0.000 NA
ATOM      5  C   UNL     1       7.720   7.184  17.521  0.00  0.00    +0.000 A 
ATOM      6  N   UNL     1       7.926   8.549  17.275  0.00  0.00    +0.000 N 
ATOM      7  N   UNL     1       7.245   6.446  16.504  0.00  0.00    +0.000 NA
ATOM      8  H   UNL     1       7.536   8.857  16.393  0.00  0.00    +0.000 HD
ENDROOT
BRANCH   1   9
ATOM      9  O   UNL     1       6.631   4.398  15.709  0.00  0.00    +0.000 OA
ATOM     10  H   UNL     1       6.983   3.500  15.777  0.00  0.00    +0.000 HD
ENDBRANCH   1   9
BRANCH   6  11
ATOM     11  N   UNL     1       8.263   9.359  18.302  0.00  0.00    +0.000 NA
ATOM     12  C   UNL     1       8.941  10.423  18.017  0.00  0.00    +0.000 C 
BRANCH  12  13
ATOM     13  C   UNL     1       9.345  11.361  19.086  0.00  0.00    +0.000 A 
ATOM     14  C   UNL     1       9.500  10.909  20.393  0.00  0.00    +0.000 A 
ATOM     15  C   UNL     1       9.828  11.837  21.375  0.00  0.00    +0.000 A 
ATOM     16  C   UNL     1       9.994  13.170  21.017  0.00  0.00    +0.000 A 
ATOM     17  C   UNL     1       9.833  13.522  19.684  0.00  0.00    +0.000 A 
ATOM     18  N   UNL     1       9.513  12.649  18.702  0.00  0.00    +0.000 NA
ENDBRANCH  12  13
ENDBRANCH   6  11
TORSDOF 3
ENDMDL
MODEL 8
REMARK VINA RESULT:      -6.4      5.931      7.905
REMARK  Name = 
REMARK  3 active torsions:
REMARK  status: ('A' for Active; 'I' for Inactive)
REMARK    1  A    between atoms: O_1  and  C_2
REMARK    2  A    between atoms: N_7  and  N_8
REMARK    3  A    between atoms: C_9  and  C_10
REMARK                            x       y       z     vdW  Elec       q    Type
REMARK                         _______ _______ _______ _____ _____    ______ ____
ROOT
ATOM      1  C   UNL     1       6.065   5.245  16.883  0.00  0.00    +0.000 A 
ATOM      2  C   UNL     1       6.644   4.503  17.886  0.00  0.00    +0.000 A 
ATOM      3  N   UNL     1       7.526   5.072  18.713  0.00  0.00    +0.000 NA
ATOM      4  N   UNL     1       7.824   6.385  18.511  0.00  0.00    +0.000 NA
ATOM      5  C   UNL     1       7.237   7.088  17.504  0.00  0.00    +0.000 A 
ATOM      6  N   UNL     1       7.571   8.432  17.286  0.00  0.00    +0.000 N 
ATOM      7  N   UNL     1       6.335   6.541  16.671  0.00  0.00    +0.000 NA
ATOM      8  H   UNL     1       6.966   8.889  16.615  0.00  0.00    +0.000 HD
ENDROOT
BRANCH   1   9
ATOM      9  O   UNL     1       5.162   4.699  16.014  0.00  0.00    +0.000 OA
ATOM     10  H   UNL     1       5.096   5.265  15.232  0.00  0.00    +0.000 HD
ENDBRANCH   1   9
BRANCH   6  11
ATOM     11  N   UNL     1       8.360   9.067  18.181  0.00  0.00    +0.000 NA
ATOM     12  C   UNL     1       8.833  10.220  17.837  0.00  0.00    +0.000 C 
BRANCH  12  13
ATOM     13  C   UNL     1       9.702  10.978  18.763  0.00  0.00    +0.000 A 
ATOM     14  C   UNL     1      10.912  11.500  18.318  0.00  0.00    +0.000 A 
ATOM     15  C   UNL     1      11.722  12.158  19.237  0.00  0.00    +0.000 A 
ATOM     16  C   UNL     1      11.293  12.275  20.553  0.00  0.00    +0.000 A 
ATOM     17  C   UNL     1      10.061  11.735  20.899  0.00  0.00    +0.000 A 
ATOM     18  N   UNL     1       9.248  11.087  20.034  0.00  0.00    +0.000 NA
ENDBRANCH  12  13
ENDBRANCH   6  11
TORSDOF 3
ENDMDL
MODEL 9
REMARK VINA RESULT:      -6.4      5.837      7.893
REMARK  Name = 
REMARK  3 active torsions:
REMARK  status: ('A' for Active; 'I' for Inactive)
REMARK    1  A    between atoms: O_1  and  C_2
REMARK    2  A    between atoms: N_7  and  N_8
REMARK    3  A    between atoms: C_9  and  C_10
REMARK                            x       y       z     vdW  Elec       q    Type
REMARK                         _______ _______ _______ _____ _____    ______ ____
ROOT
ATOM      1  C   UNL     1       5.496   5.238  17.399  0.00  0.00    +0.000 A 
ATOM      2  C   UNL     1       6.151   4.484  18.344  0.00  0.00    +0.000 A 
ATOM      3  N   UNL     1       7.226   4.979  18.965  0.00  0.00    +0.000 NA
ATOM      4  N   UNL     1       7.637   6.229  18.614  0.00  0.00    +0.000 NA
ATOM      5  C   UNL     1       6.969   6.945  17.670  0.00  0.00    +0.000 A 
ATOM      6  N   UNL     1       7.416   8.220  17.296  0.00  0.00    +0.000 N 
ATOM      7  N   UNL     1       5.876   6.475  17.045  0.00  0.00    +0.000 NA
ATOM      8  H   UNL     1       6.760   8.714  16.704  0.00  0.00    +0.000 HD
ENDROOT
BRANCH   1   9
ATOM      9  O   UNL     1       4.396   4.767  16.739  0.00  0.00    +0.000 OA
ATOM     10  H   UNL     1       4.669   4.423  15.877  0.00  0.00    +0.000 HD
ENDBRANCH   1   9
BRANCH   6  11
ATOM     11  N   UNL     1       8.420   8.796  17.994  0.00  0.00    +0.000 NA
ATOM     12  C   UNL     1       8.455  10.088  18.020  0.00  0.00    +0.000 C 
BRANCH  12  13
ATOM     13  C   UNL     1       9.521  10.792  18.764  0.00  0.00    +0.000 A 
ATOM     14  C   UNL     1       9.399  11.000  20.134  0.00  0.00    +0.000 A 
ATOM     15  C   UNL     1      10.400  11.715  20.782  0.00  0.00    +0.000 A 
ATOM     16  C   UNL     1      11.480  12.186  20.045  0.00  0.00    +0.000 A 
ATOM     17  C   UNL     1      11.521  11.914  18.684  0.00  0.00    +0.000 A 
ATOM     18  N   UNL     1      10.566  11.225  18.019  0.00  0.00    +0.000 NA
ENDBRANCH  12  13
ENDBRANCH   6  11
TORSDOF 3
ENDMDL
