MODEL 1
REMARK VINA RESULT:      -9.1      0.000      0.000
REMARK  Name = 
REMARK  1 active torsions:
REMARK  status: ('A' for Active; 'I' for Inactive)
REMARK    1  A    between atoms: C_8  and  C_9
REMARK                            x       y       z     vdW  Elec       q    Type
REMARK                         _______ _______ _______ _____ _____    ______ ____
ROOT
ATOM      1 CL   UNL     1       0.338   2.605  18.947  0.00  0.00    +0.000 Cl
ATOM      2  C   UNL     1       1.913   3.234  18.669  0.00  0.00    +0.000 A 
ATOM      3  C   UNL     1       3.030   2.450  18.931  0.00  0.00    +0.000 A 
ATOM      4  C   UNL     1       4.307   2.970  18.712  0.00  0.00    +0.000 A 
ATOM      5  C   UNL     1       4.479   4.289  18.253  0.00  0.00    +0.000 A 
ATOM      6  C   UNL     1       3.346   5.094  18.035  0.00  0.00    +0.000 A 
ATOM      7  C   UNL     1       2.062   4.540  18.210  0.00  0.00    +0.000 A 
ATOM      8  C   UNL     1       3.423   6.570  17.722  0.00  0.00    +0.000 C 
ATOM      9  N   UNL     1       4.200   7.137  16.858  0.00  0.00    +0.000 NA
ATOM     10  C   UNL     1       5.172   6.382  16.069  0.00  0.00    +0.000 C 
ATOM     11  C   UNL     1       6.152   5.703  16.951  0.00  0.00    +0.000 A 
ATOM     12  N   UNL     1       7.479   5.874  16.904  0.00  0.00    +0.000 NA
ATOM     13  N   UNL     1       7.878   5.052  17.889  0.00  0.00    +0.000 N 
ATOM     14  N   UNL     1       6.944   4.328  18.533  0.00  0.00    +0.000 NA
ATOM     15  C   UNL     1       5.817   4.766  17.951  0.00  0.00    +0.000 A 
ATOM     16  H   UNL     1       8.863   4.970  18.131  0.00  0.00    +0.000 HD
ENDROOT
BRANCH   8  17
ATOM     17  C   UNL     1       2.489   7.472  18.485  0.00  0.00    +0.000 A 
ATOM     18  C   UNL     1       1.886   8.578  17.869  0.00  0.00    +0.000 A 
ATOM     19  C   UNL     1       1.140   9.481  18.627  0.00  0.00    +0.000 A 
ATOM     20  C   UNL     1       0.959   9.262  19.991  0.00  0.00    +0.000 A 
ATOM     21  C   UNL     1       1.502   8.127  20.595  0.00  0.00    +0.000 A 
ATOM     22  C   UNL     1       2.263   7.229  19.843  0.00  0.00    +0.000 A 
ENDBRANCH   8  17
TORSDOF 1
ENDMDL
MODEL 2
REMARK VINA RESULT:      -8.9      3.160      5.637
REMARK  Name = 
REMARK  1 active torsions:
REMARK  status: ('A' for Active; 'I' for Inactive)
REMARK    1  A    between atoms: C_8  and  C_9
REMARK                            x       y       z     vdW  Elec       q    Type
REMARK                         _______ _______ _______ _____ _____    ______ ____
ROOT
ATOM      1 CL   UNL     1       2.446   9.239  17.772  0.00  0.00    +0.000 Cl
ATOM      2  C   UNL     1       2.383   7.728  18.590  0.00  0.00    +0.000 A 
ATOM      3  C   UNL     1       1.941   7.669  19.905  0.00  0.00    +0.000 A 
ATOM      4  C   UNL     1       1.900   6.440  20.567  0.00  0.00    +0.000 A 
ATOM      5  C   UNL     1       2.327   5.262  19.926  0.00  0.00    +0.000 A 
ATOM      6  C   UNL     1       2.819   5.336  18.610  0.00  0.00    +0.000 A 
ATOM      7  C   UNL     1       2.805   6.573  17.936  0.00  0.00    +0.000 A 
ATOM      8  C   UNL     1       3.469   4.171  17.900  0.00  0.00    +0.000 C 
ATOM      9  N   UNL     1       3.030   2.956  17.848  0.00  0.00    +0.000 NA
ATOM     10  C   UNL     1       1.812   2.535  18.537  0.00  0.00    +0.000 C 
ATOM     11  C   UNL     1       1.935   2.745  19.999  0.00  0.00    +0.000 A 
ATOM     12  N   UNL     1       1.807   1.790  20.929  0.00  0.00    +0.000 NA
ATOM     13  N   UNL     1       2.008   2.497  22.053  0.00  0.00    +0.000 N 
ATOM     14  N   UNL     1       2.203   3.825  21.945  0.00  0.00    +0.000 NA
ATOM     15  C   UNL     1       2.186   3.991  20.613  0.00  0.00    +0.000 A 
ATOM     16  H   UNL     1       2.000   2.043  22.963  0.00  0.00    +0.000 HD
ENDROOT
BRANCH   8  17
ATOM     17  C   UNL     1       4.752   4.459  17.166  0.00  0.00    +0.000 A 
ATOM     18  C   UNL     1       4.805   4.437  15.765  0.00  0.00    +0.000 A 
ATOM     19  C   UNL     1       6.031   4.564  15.109  0.00  0.00    +0.000 A 
ATOM     20  C   UNL     1       7.198   4.753  15.846  0.00  0.00    +0.000 A 
ATOM     21  C   UNL     1       7.140   4.842  17.238  0.00  0.00    +0.000 A 
ATOM     22  C   UNL     1       5.918   4.700  17.899  0.00  0.00    +0.000 A 
ENDBRANCH   8  17
TORSDOF 1
ENDMDL
MODEL 3
REMARK VINA RESULT:      -8.9      0.182      1.070
REMARK  Name = 
REMARK  1 active torsions:
REMARK  status: ('A' for Active; 'I' for Inactive)
REMARK    1  A    between atoms: C_8  and  C_9
REMARK                            x       y       z     vdW  Elec       q    Type
REMARK                         _______ _______ _______ _____ _____    ______ ____
ROOT
ATOM      1 CL   UNL     1       0.335   2.821  19.276  0.00  0.00    +0.000 Cl
ATOM      2  C   UNL     1       1.914   3.384  18.893  0.00  0.00    +0.000 A 
ATOM      3  C   UNL     1       3.017   2.576  19.138  0.00  0.00    +0.000 A 
ATOM      4  C   UNL     1       4.297   3.042  18.833  0.00  0.00    +0.000 A 
ATOM      5  C   UNL     1       4.487   4.333  18.305  0.00  0.00    +0.000 A 
ATOM      6  C   UNL     1       3.371   5.164  18.104  0.00  0.00    +0.000 A 
ATOM      7  C   UNL     1       2.080   4.662  18.366  0.00  0.00    +0.000 A 
ATOM      8  C   UNL     1       3.479   6.621  17.718  0.00  0.00    +0.000 C 
ATOM      9  N   UNL     1       4.229   7.121  16.792  0.00  0.00    +0.000 NA
ATOM     10  C   UNL     1       5.137   6.300  15.994  0.00  0.00    +0.000 C 
ATOM     11  C   UNL     1       6.137   5.629  16.859  0.00  0.00    +0.000 A 
ATOM     12  N   UNL     1       7.465   5.752  16.740  0.00  0.00    +0.000 NA
ATOM     13  N   UNL     1       7.887   4.963  17.742  0.00  0.00    +0.000 N 
ATOM     14  N   UNL     1       6.964   4.301  18.464  0.00  0.00    +0.000 NA
ATOM     15  C   UNL     1       5.823   4.750  17.917  0.00  0.00    +0.000 A 
ATOM     16  H   UNL     1       8.879   4.859  17.941  0.00  0.00    +0.000 HD
ENDROOT
BRANCH   8  17
ATOM     17  C   UNL     1       2.612   7.587  18.482  0.00  0.00    +0.000 A 
ATOM     18  C   UNL     1       2.306   7.373  19.834  0.00  0.00    +0.000 A 
ATOM     19  C   UNL     1       1.387   8.200  20.482  0.00  0.00    +0.000 A 
ATOM     20  C   UNL     1       0.804   9.264  19.798  0.00  0.00    +0.000 A 
ATOM     21  C   UNL     1       1.156   9.520  18.472  0.00  0.00    +0.000 A 
ATOM     22  C   UNL     1       2.063   8.686  17.814  0.00  0.00    +0.000 A 
ENDBRANCH   8  17
TORSDOF 1
ENDMDL
MODEL 4
REMARK VINA RESULT:      -8.7      3.143      5.630
REMARK  Name = 
REMARK  1 active torsions:
REMARK  status: ('A' for Active; 'I' for Inactive)
REMARK    1  A    between atoms: C_8  and  C_9
REMARK                            x       y       z     vdW  Elec       q    Type
REMARK                         _______ _______ _______ _____ _____    ______ ____
ROOT
ATOM      1 CL   UNL     1       2.392   9.293  17.807  0.00  0.00    +0.000 Cl
ATOM      2  C   UNL     1       2.344   7.777  18.618  0.00  0.00    +0.000 A 
ATOM      3  C   UNL     1       1.899   7.707  19.932  0.00  0.00    +0.000 A 
ATOM      4  C   UNL     1       1.870   6.474  20.587  0.00  0.00    +0.000 A 
ATOM      5  C   UNL     1       2.312   5.304  19.941  0.00  0.00    +0.000 A 
ATOM      6  C   UNL     1       2.807   5.390  18.628  0.00  0.00    +0.000 A 
ATOM      7  C   UNL     1       2.781   6.631  17.960  0.00  0.00    +0.000 A 
ATOM      8  C   UNL     1       3.473   4.236  17.914  0.00  0.00    +0.000 C 
ATOM      9  N   UNL     1       3.048   3.017  17.855  0.00  0.00    +0.000 NA
ATOM     10  C   UNL     1       1.833   2.579  18.538  0.00  0.00    +0.000 C 
ATOM     11  C   UNL     1       1.950   2.783  20.002  0.00  0.00    +0.000 A 
ATOM     12  N   UNL     1       1.830   1.822  20.926  0.00  0.00    +0.000 NA
ATOM     13  N   UNL     1       2.020   2.526  22.055  0.00  0.00    +0.000 N 
ATOM     14  N   UNL     1       2.200   3.856  21.954  0.00  0.00    +0.000 NA
ATOM     15  C   UNL     1       2.185   4.028  20.622  0.00  0.00    +0.000 A 
ATOM     16  H   UNL     1       2.015   2.066  22.962  0.00  0.00    +0.000 HD
ENDROOT
BRANCH   8  17
ATOM     17  C   UNL     1       4.755   4.543  17.185  0.00  0.00    +0.000 A 
ATOM     18  C   UNL     1       5.868   5.061  17.864  0.00  0.00    +0.000 A 
ATOM     19  C   UNL     1       6.994   5.472  17.149  0.00  0.00    +0.000 A 
ATOM     20  C   UNL     1       7.029   5.331  15.764  0.00  0.00    +0.000 A 
ATOM     21  C   UNL     1       5.950   4.754  15.092  0.00  0.00    +0.000 A 
ATOM     22  C   UNL     1       4.814   4.356  15.801  0.00  0.00    +0.000 A 
ENDBRANCH   8  17
TORSDOF 1
ENDMDL
MODEL 5
REMARK VINA RESULT:      -8.7      1.902      4.303
REMARK  Name = 
REMARK  1 active torsions:
REMARK  status: ('A' for Active; 'I' for Inactive)
REMARK    1  A    between atoms: C_8  and  C_9
REMARK                            x       y       z     vdW  Elec       q    Type
REMARK                         _______ _______ _______ _____ _____    ______ ____
ROOT
ATOM      1 CL   UNL     1       1.061   8.577  19.787  0.00  0.00    +0.000 Cl
ATOM      2  C   UNL     1       2.342   7.828  18.919  0.00  0.00    +0.000 A 
ATOM      3  C   UNL     1       2.873   8.447  17.794  0.00  0.00    +0.000 A 
ATOM      4  C   UNL     1       3.907   7.829  17.088  0.00  0.00    +0.000 A 
ATOM      5  C   UNL     1       4.402   6.573  17.486  0.00  0.00    +0.000 A 
ATOM      6  C   UNL     1       3.827   5.930  18.597  0.00  0.00    +0.000 A 
ATOM      7  C   UNL     1       2.821   6.587  19.332  0.00  0.00    +0.000 A 
ATOM      8  C   UNL     1       4.155   4.509  18.996  0.00  0.00    +0.000 C 
ATOM      9  N   UNL     1       5.334   3.986  19.089  0.00  0.00    +0.000 NA
ATOM     10  C   UNL     1       6.548   4.733  18.766  0.00  0.00    +0.000 C 
ATOM     11  C   UNL     1       6.530   5.179  17.352  0.00  0.00    +0.000 A 
ATOM     12  N   UNL     1       7.460   4.877  16.437  0.00  0.00    +0.000 NA
ATOM     13  N   UNL     1       6.973   5.512  15.357  0.00  0.00    +0.000 N 
ATOM     14  N   UNL     1       5.848   6.237  15.497  0.00  0.00    +0.000 NA
ATOM     15  C   UNL     1       5.536   6.003  16.782  0.00  0.00    +0.000 A 
ATOM     16  H   UNL     1       7.450   5.456  14.461  0.00  0.00    +0.000 HD
ENDROOT
BRANCH   8  17
ATOM     17  C   UNL     1       2.990   3.617  19.333  0.00  0.00    +0.000 A 
ATOM     18  C   UNL     1       2.141   3.125  18.331  0.00  0.00    +0.000 A 
ATOM     19  C   UNL     1       0.987   2.420  18.676  0.00  0.00    +0.000 A 
ATOM     20  C   UNL     1       0.699   2.170  20.016  0.00  0.00    +0.000 A 
ATOM     21  C   UNL     1       1.576   2.600  21.012  0.00  0.00    +0.000 A 
ATOM     22  C   UNL     1       2.724   3.319  20.673  0.00  0.00    +0.000 A 
ENDBRANCH   8  17
TORSDOF 1
ENDMDL
MODEL 6
REMARK VINA RESULT:      -8.4      2.036      4.456
REMARK  Name = 
REMARK  1 active torsions:
REMARK  status: ('A' for Active; 'I' for Inactive)
REMARK    1  A    between atoms: C_8  and  C_9
REMARK                            x       y       z     vdW  Elec       q    Type
REMARK                         _______ _______ _______ _____ _____    ______ ____
ROOT
ATOM      1 CL   UNL     1       0.657   9.040  20.043  0.00  0.00    +0.000 Cl
ATOM      2  C   UNL     1       1.912   8.300  19.130  0.00  0.00    +0.000 A 
ATOM      3  C   UNL     1       2.360   8.894  17.957  0.00  0.00    +0.000 A 
ATOM      4  C   UNL     1       3.374   8.284  17.216  0.00  0.00    +0.000 A 
ATOM      5  C   UNL     1       3.931   7.060  17.628  0.00  0.00    +0.000 A 
ATOM      6  C   UNL     1       3.439   6.439  18.791  0.00  0.00    +0.000 A 
ATOM      7  C   UNL     1       2.453   7.091  19.558  0.00  0.00    +0.000 A 
ATOM      8  C   UNL     1       3.835   5.044  19.218  0.00  0.00    +0.000 C 
ATOM      9  N   UNL     1       5.034   4.561  19.263  0.00  0.00    +0.000 NA
ATOM     10  C   UNL     1       6.203   5.333  18.847  0.00  0.00    +0.000 C 
ATOM     11  C   UNL     1       6.093   5.728  17.422  0.00  0.00    +0.000 A 
ATOM     12  N   UNL     1       6.981   5.423  16.467  0.00  0.00    +0.000 NA
ATOM     13  N   UNL     1       6.415   6.003  15.396  0.00  0.00    +0.000 N 
ATOM     14  N   UNL     1       5.276   6.697  15.574  0.00  0.00    +0.000 NA
ATOM     15  C   UNL     1       5.043   6.500  16.882  0.00  0.00    +0.000 A 
ATOM     16  H   UNL     1       6.844   5.930  14.477  0.00  0.00    +0.000 HD
ENDROOT
BRANCH   8  17
ATOM     17  C   UNL     1       2.721   4.129  19.650  0.00  0.00    +0.000 A 
ATOM     18  C   UNL     1       2.522   3.818  21.003  0.00  0.00    +0.000 A 
ATOM     19  C   UNL     1       1.577   2.858  21.369  0.00  0.00    +0.000 A 
ATOM     20  C   UNL     1       0.802   2.236  20.392  0.00  0.00    +0.000 A 
ATOM     21  C   UNL     1       0.951   2.591  19.051  0.00  0.00    +0.000 A 
ATOM     22  C   UNL     1       1.906   3.540  18.678  0.00  0.00    +0.000 A 
ENDBRANCH   8  17
TORSDOF 1
ENDMDL
MODEL 7
REMARK VINA RESULT:      -8.4      3.201      4.366
REMARK  Name = 
REMARK  1 active torsions:
REMARK  status: ('A' for Active; 'I' for Inactive)
REMARK    1  A    between atoms: C_8  and  C_9
REMARK                            x       y       z     vdW  Elec       q    Type
REMARK                         _______ _______ _______ _____ _____    ______ ____
ROOT
ATOM      1 CL   UNL     1       6.939   7.143  17.053  0.00  0.00    +0.000 Cl
ATOM      2  C   UNL     1       5.689   6.031  17.447  0.00  0.00    +0.000 A 
ATOM      3  C   UNL     1       5.611   4.811  16.786  0.00  0.00    +0.000 A 
ATOM      4  C   UNL     1       4.588   3.916  17.105  0.00  0.00    +0.000 A 
ATOM      5  C   UNL     1       3.618   4.245  18.070  0.00  0.00    +0.000 A 
ATOM      6  C   UNL     1       3.674   5.500  18.701  0.00  0.00    +0.000 A 
ATOM      7  C   UNL     1       4.742   6.373  18.408  0.00  0.00    +0.000 A 
ATOM      8  C   UNL     1       2.586   6.023  19.610  0.00  0.00    +0.000 C 
ATOM      9  N   UNL     1       2.005   5.379  20.569  0.00  0.00    +0.000 NA
ATOM     10  C   UNL     1       2.321   3.986  20.878  0.00  0.00    +0.000 C 
ATOM     11  C   UNL     1       2.036   3.111  19.715  0.00  0.00    +0.000 A 
ATOM     12  N   UNL     1       1.202   2.064  19.724  0.00  0.00    +0.000 NA
ATOM     13  N   UNL     1       1.307   1.640  18.454  0.00  0.00    +0.000 N 
ATOM     14  N   UNL     1       2.166   2.278  17.638  0.00  0.00    +0.000 NA
ATOM     15  C   UNL     1       2.623   3.254  18.440  0.00  0.00    +0.000 A 
ATOM     16  H   UNL     1       0.762   0.848  18.122  0.00  0.00    +0.000 HD
ENDROOT
BRANCH   8  17
ATOM     17  C   UNL     1       2.143   7.444  19.384  0.00  0.00    +0.000 A 
ATOM     18  C   UNL     1       1.600   8.208  20.428  0.00  0.00    +0.000 A 
ATOM     19  C   UNL     1       1.065   9.470  20.167  0.00  0.00    +0.000 A 
ATOM     20  C   UNL     1       1.106   9.989  18.874  0.00  0.00    +0.000 A 
ATOM     21  C   UNL     1       1.705   9.260  17.847  0.00  0.00    +0.000 A 
ATOM     22  C   UNL     1       2.228   7.990  18.100  0.00  0.00    +0.000 A 
ENDBRANCH   8  17
TORSDOF 1
ENDMDL
MODEL 8
REMARK VINA RESULT:      -8.2      3.179      4.260
REMARK  Name = 
REMARK  1 active torsions:
REMARK  status: ('A' for Active; 'I' for Inactive)
REMARK    1  A    between atoms: C_8  and  C_9
REMARK                            x       y       z     vdW  Elec       q    Type
REMARK                         _______ _______ _______ _____ _____    ______ ____
ROOT
ATOM      1 CL   UNL     1       6.872   7.354  17.077  0.00  0.00    +0.000 Cl
ATOM      2  C   UNL     1       5.657   6.200  17.460  0.00  0.00    +0.000 A 
ATOM      3  C   UNL     1       5.642   4.968  16.819  0.00  0.00    +0.000 A 
ATOM      4  C   UNL     1       4.647   4.039  17.128  0.00  0.00    +0.000 A 
ATOM      5  C   UNL     1       3.642   4.344  18.064  0.00  0.00    +0.000 A 
ATOM      6  C   UNL     1       3.634   5.611  18.675  0.00  0.00    +0.000 A 
ATOM      7  C   UNL     1       4.673   6.520  18.393  0.00  0.00    +0.000 A 
ATOM      8  C   UNL     1       2.504   6.105  19.548  0.00  0.00    +0.000 C 
ATOM      9  N   UNL     1       1.925   5.454  20.504  0.00  0.00    +0.000 NA
ATOM     10  C   UNL     1       2.288   4.080  20.844  0.00  0.00    +0.000 C 
ATOM     11  C   UNL     1       2.065   3.176  19.690  0.00  0.00    +0.000 A 
ATOM     12  N   UNL     1       1.272   2.097  19.697  0.00  0.00    +0.000 NA
ATOM     13  N   UNL     1       1.426   1.657  18.437  0.00  0.00    +0.000 N 
ATOM     14  N   UNL     1       2.279   2.316  17.631  0.00  0.00    +0.000 NA
ATOM     15  C   UNL     1       2.677   3.321  18.427  0.00  0.00    +0.000 A 
ATOM     16  H   UNL     1       0.919   0.840  18.106  0.00  0.00    +0.000 HD
ENDROOT
BRANCH   8  17
ATOM     17  C   UNL     1       2.012   7.504  19.288  0.00  0.00    +0.000 A 
ATOM     18  C   UNL     1       2.127   8.088  18.018  0.00  0.00    +0.000 A 
ATOM     19  C   UNL     1       1.798   9.431  17.833  0.00  0.00    +0.000 A 
ATOM     20  C   UNL     1       1.316  10.184  18.903  0.00  0.00    +0.000 A 
ATOM     21  C   UNL     1       1.138   9.588  20.152  0.00  0.00    +0.000 A 
ATOM     22  C   UNL     1       1.480   8.249  20.346  0.00  0.00    +0.000 A 
ENDBRANCH   8  17
TORSDOF 1
ENDMDL
MODEL 9
REMARK VINA RESULT:      -7.3      3.035      4.946
REMARK  Name = 
REMARK  1 active torsions:
REMARK  status: ('A' for Active; 'I' for Inactive)
REMARK    1  A    between atoms: C_8  and  C_9
REMARK                            x       y       z     vdW  Elec       q    Type
REMARK                         _______ _______ _______ _____ _____    ______ ____
ROOT
ATOM      1 CL   UNL     1       1.889   9.169  20.405  0.00  0.00    +0.000 Cl
ATOM      2  C   UNL     1       1.981   7.485  20.070  0.00  0.00    +0.000 A 
ATOM      3  C   UNL     1       1.194   6.591  20.785  0.00  0.00    +0.000 A 
ATOM      4  C   UNL     1       1.280   5.224  20.515  0.00  0.00    +0.000 A 
ATOM      5  C   UNL     1       2.174   4.737  19.543  0.00  0.00    +0.000 A 
ATOM      6  C   UNL     1       3.003   5.642  18.857  0.00  0.00    +0.000 A 
ATOM      7  C   UNL     1       2.869   7.024  19.102  0.00  0.00    +0.000 A 
ATOM      8  C   UNL     1       4.119   5.211  17.934  0.00  0.00    +0.000 C 
ATOM      9  N   UNL     1       4.052   4.310  17.009  0.00  0.00    +0.000 NA
ATOM     10  C   UNL     1       2.838   3.535  16.760  0.00  0.00    +0.000 C 
ATOM     11  C   UNL     1       2.455   2.758  17.963  0.00  0.00    +0.000 A 
ATOM     12  N   UNL     1       2.307   1.427  18.007  0.00  0.00    +0.000 NA
ATOM     13  N   UNL     1       1.966   1.249  19.294  0.00  0.00    +0.000 N 
ATOM     14  N   UNL     1       1.829   2.337  20.074  0.00  0.00    +0.000 NA
ATOM     15  C   UNL     1       2.172   3.320  19.226  0.00  0.00    +0.000 A 
ATOM     16  H   UNL     1       1.804   0.316  19.665  0.00  0.00    +0.000 HD
ENDROOT
BRANCH   8  17
ATOM     17  C   UNL     1       5.441   5.913  18.099  0.00  0.00    +0.000 A 
ATOM     18  C   UNL     1       5.811   6.968  17.252  0.00  0.00    +0.000 A 
ATOM     19  C   UNL     1       7.095   7.509  17.329  0.00  0.00    +0.000 A 
ATOM     20  C   UNL     1       7.998   7.029  18.275  0.00  0.00    +0.000 A 
ATOM     21  C   UNL     1       7.610   6.025  19.164  0.00  0.00    +0.000 A 
ATOM     22  C   UNL     1       6.332   5.469  19.081  0.00  0.00    +0.000 A 
ENDBRANCH   8  17
TORSDOF 1
ENDMDL
