MODEL 1
REMARK VINA RESULT:      -7.4      0.000      0.000
REMARK  Name = 
REMARK  9 active torsions:
REMARK  status: ('A' for Active; 'I' for Inactive)
REMARK    1  A    between atoms: C_1  and  C_2
REMARK    2  A    between atoms: C_2  and  C_3
REMARK    3  A    between atoms: C_2  and  O_4
REMARK    4  A    between atoms: C_2  and  C_5
REMARK    5  A    between atoms: C_5  and  C_6
REMARK    6  A    between atoms: C_6  and  C_7
REMARK    7  A    between atoms: C_10  and  C_11
REMARK    8  A    between atoms: N_16  and  C_17
REMARK    9  A    between atoms: C_17  and  C_18
REMARK                            x       y       z     vdW  Elec       q    Type
REMARK                         _______ _______ _______ _____ _____    ______ ____
ROOT
ATOM      1  C   UNL     1       3.094   6.144  19.054  0.00  0.00    +0.000 C 
ATOM      2  O   UNL     1       3.308   5.433  20.037  0.00  0.00    +0.000 OA
ATOM      3  N   UNL     1       2.152   7.166  19.080  0.00  0.00    +0.000 N 
ATOM      4  C   UNL     1       1.599   7.570  20.375  0.00  0.00    +0.000 C 
ATOM      5  C   UNL     1       1.693   9.101  20.542  0.00  0.00    +0.000 C 
ATOM      6  N   UNL     1       1.097   9.882  19.428  0.00  0.00    +0.000 NA
ATOM      7  C   UNL     1       1.699   9.406  18.152  0.00  0.00    +0.000 C 
ATOM      8  C   UNL     1       1.570   7.883  17.938  0.00  0.00    +0.000 C 
ENDROOT
BRANCH   1  12
ATOM      9  C   UNL     1       5.554   5.268  15.637  0.00  0.00    +0.000 A 
ATOM     10  C   UNL     1       4.802   4.269  16.270  0.00  0.00    +0.000 A 
ATOM     11  C   UNL     1       3.978   4.580  17.352  0.00  0.00    +0.000 A 
ATOM     12  C   UNL     1       3.918   5.889  17.843  0.00  0.00    +0.000 A 
ATOM     13  C   UNL     1       4.727   6.868  17.258  0.00  0.00    +0.000 A 
ATOM     14  C   UNL     1       5.503   6.573  16.139  0.00  0.00    +0.000 A 
BRANCH   9  15
ATOM     15  C   UNL     1       6.479   4.943  14.490  0.00  0.00    +0.000 C 
BRANCH  15  16
ATOM     16  C   UNL     1       6.247   3.543  13.912  0.00  0.00    +0.000 C 
BRANCH  16  18
ATOM     17  C   UNL     1       7.149   4.622  11.838  0.00  0.00    +0.000 C 
ATOM     18  C   UNL     1       6.254   3.499  12.371  0.00  0.00    +0.000 C 
ATOM     19  C   UNL     1       4.853   3.620  11.776  0.00  0.00    +0.000 C 
BRANCH  18  20
ATOM     20  O   UNL     1       6.814   2.249  11.958  0.00  0.00    +0.000 OA
ATOM     21  H   UNL     1       7.670   2.140  12.410  0.00  0.00    +0.000 HD
ENDBRANCH  18  20
ENDBRANCH  16  18
ENDBRANCH  15  16
ENDBRANCH   9  15
ENDBRANCH   1  12
BRANCH   6  22
ATOM     22  C   UNL     1      -0.371   9.776  19.368  0.00  0.00    +0.000 C 
BRANCH  22  23
ATOM     23  C   UNL     1      -1.027  10.620  18.271  0.00  0.00    +0.000 C 
ATOM     24  C   UNL     1      -1.707   9.795  17.182  0.00  0.00    +0.000 C 
ATOM     25  C   UNL     1      -2.638  10.802  16.530  0.00  0.00    +0.000 C 
ATOM     26  C   UNL     1      -3.153  11.662  17.681  0.00  0.00    +0.000 C 
ATOM     27  C   UNL     1      -2.149  11.505  18.821  0.00  0.00    +0.000 C 
ENDBRANCH  22  23
ENDBRANCH   6  22
TORSDOF 7
ENDMDL
MODEL 2
REMARK VINA RESULT:      -7.0      3.235      4.979
REMARK  Name = 
REMARK  9 active torsions:
REMARK  status: ('A' for Active; 'I' for Inactive)
REMARK    1  A    between atoms: C_1  and  C_2
REMARK    2  A    between atoms: C_2  and  C_3
REMARK    3  A    between atoms: C_2  and  O_4
REMARK    4  A    between atoms: C_2  and  C_5
REMARK    5  A    between atoms: C_5  and  C_6
REMARK    6  A    between atoms: C_6  and  C_7
REMARK    7  A    between atoms: C_10  and  C_11
REMARK    8  A    between atoms: N_16  and  C_17
REMARK    9  A    between atoms: C_17  and  C_18
REMARK                            x       y       z     vdW  Elec       q    Type
REMARK                         _______ _______ _______ _____ _____    ______ ____
ROOT
ATOM      1  C   UNL     1       2.011   9.228  18.151  0.00  0.00    +0.000 C 
ATOM      2  O   UNL     1       2.122   9.962  17.167  0.00  0.00    +0.000 OA
ATOM      3  N   UNL     1       1.320   9.627  19.289  0.00  0.00    +0.000 N 
ATOM      4  C   UNL     1       0.490  10.832  19.212  0.00  0.00    +0.000 C 
ATOM      5  C   UNL     1      -0.925  10.543  19.755  0.00  0.00    +0.000 C 
ATOM      6  N   UNL     1      -0.954   9.947  21.116  0.00  0.00    +0.000 NA
ATOM      7  C   UNL     1      -0.081   8.741  21.114  0.00  0.00    +0.000 C 
ATOM      8  C   UNL     1       1.355   9.017  20.624  0.00  0.00    +0.000 C 
ENDROOT
BRANCH   1  12
ATOM      9  C   UNL     1       3.807   5.346  17.705  0.00  0.00    +0.000 A 
ATOM     10  C   UNL     1       4.498   6.514  17.354  0.00  0.00    +0.000 A 
ATOM     11  C   UNL     1       3.914   7.767  17.544  0.00  0.00    +0.000 A 
ATOM     12  C   UNL     1       2.616   7.873  18.055  0.00  0.00    +0.000 A 
ATOM     13  C   UNL     1       1.900   6.703  18.332  0.00  0.00    +0.000 A 
ATOM     14  C   UNL     1       2.504   5.454  18.201  0.00  0.00    +0.000 A 
BRANCH   9  15
ATOM     15  C   UNL     1       4.408   3.981  17.471  0.00  0.00    +0.000 C 
BRANCH  15  16
ATOM     16  C   UNL     1       3.367   2.857  17.497  0.00  0.00    +0.000 C 
BRANCH  16  18
ATOM     17  C   UNL     1       1.998   1.884  19.358  0.00  0.00    +0.000 C 
ATOM     18  C   UNL     1       3.412   2.001  18.779  0.00  0.00    +0.000 C 
ATOM     19  C   UNL     1       4.361   2.572  19.830  0.00  0.00    +0.000 C 
BRANCH  18  20
ATOM     20  O   UNL     1       3.860   0.688  18.430  0.00  0.00    +0.000 OA
ATOM     21  H   UNL     1       4.417   0.358  19.158  0.00  0.00    +0.000 HD
ENDBRANCH  18  20
ENDBRANCH  16  18
ENDBRANCH  15  16
ENDBRANCH   9  15
ENDBRANCH   1  12
BRANCH   6  22
ATOM     22  C   UNL     1      -0.523  10.885  22.167  0.00  0.00    +0.000 C 
BRANCH  22  23
ATOM     23  C   UNL     1      -1.425  12.110  22.338  0.00  0.00    +0.000 C 
ATOM     24  C   UNL     1      -2.552  11.910  23.348  0.00  0.00    +0.000 C 
ATOM     25  C   UNL     1      -2.967  13.334  23.674  0.00  0.00    +0.000 C 
ATOM     26  C   UNL     1      -1.664  14.128  23.688  0.00  0.00    +0.000 C 
ATOM     27  C   UNL     1      -0.655  13.320  22.877  0.00  0.00    +0.000 C 
ENDBRANCH  22  23
ENDBRANCH   6  22
TORSDOF 7
ENDMDL
MODEL 3
REMARK VINA RESULT:      -6.9      0.877      1.340
REMARK  Name = 
REMARK  9 active torsions:
REMARK  status: ('A' for Active; 'I' for Inactive)
REMARK    1  A    between atoms: C_1  and  C_2
REMARK    2  A    between atoms: C_2  and  C_3
REMARK    3  A    between atoms: C_2  and  O_4
REMARK    4  A    between atoms: C_2  and  C_5
REMARK    5  A    between atoms: C_5  and  C_6
REMARK    6  A    between atoms: C_6  and  C_7
REMARK    7  A    between atoms: C_10  and  C_11
REMARK    8  A    between atoms: N_16  and  C_17
REMARK    9  A    between atoms: C_17  and  C_18
REMARK                            x       y       z     vdW  Elec       q    Type
REMARK                         _______ _______ _______ _____ _____    ______ ____
ROOT
ATOM      1  C   UNL     1       3.045   6.236  19.009  0.00  0.00    +0.000 C 
ATOM      2  O   UNL     1       3.213   5.534  20.008  0.00  0.00    +0.000 OA
ATOM      3  N   UNL     1       2.165   7.312  19.010  0.00  0.00    +0.000 N 
ATOM      4  C   UNL     1       1.632   7.774  20.294  0.00  0.00    +0.000 C 
ATOM      5  C   UNL     1       1.815   9.300  20.430  0.00  0.00    +0.000 C 
ATOM      6  N   UNL     1       1.270  10.091  19.298  0.00  0.00    +0.000 NA
ATOM      7  C   UNL     1       1.848   9.554  18.035  0.00  0.00    +0.000 C 
ATOM      8  C   UNL     1       1.630   8.038  17.851  0.00  0.00    +0.000 C 
ENDROOT
BRANCH   1  12
ATOM      9  C   UNL     1       5.480   5.163  15.630  0.00  0.00    +0.000 A 
ATOM     10  C   UNL     1       4.800   4.191  16.377  0.00  0.00    +0.000 A 
ATOM     11  C   UNL     1       3.983   4.562  17.446  0.00  0.00    +0.000 A 
ATOM     12  C   UNL     1       3.857   5.908  17.807  0.00  0.00    +0.000 A 
ATOM     13  C   UNL     1       4.596   6.868  17.109  0.00  0.00    +0.000 A 
ATOM     14  C   UNL     1       5.364   6.506  16.004  0.00  0.00    +0.000 A 
BRANCH   9  15
ATOM     15  C   UNL     1       6.398   4.778  14.496  0.00  0.00    +0.000 C 
BRANCH  15  16
ATOM     16  C   UNL     1       6.048   3.420  13.879  0.00  0.00    +0.000 C 
BRANCH  16  18
ATOM     17  C   UNL     1       7.035   4.535  11.862  0.00  0.00    +0.000 C 
ATOM     18  C   UNL     1       6.119   3.403  12.339  0.00  0.00    +0.000 C 
ATOM     19  C   UNL     1       4.743   3.536  11.689  0.00  0.00    +0.000 C 
BRANCH  18  20
ATOM     20  O   UNL     1       6.695   2.160  11.927  0.00  0.00    +0.000 OA
ATOM     21  H   UNL     1       7.620   2.142  12.232  0.00  0.00    +0.000 HD
ENDBRANCH  18  20
ENDBRANCH  16  18
ENDBRANCH  15  16
ENDBRANCH   9  15
ENDBRANCH   1  12
BRANCH   6  22
ATOM     22  C   UNL     1      -0.202  10.071  19.233  0.00  0.00    +0.000 C 
BRANCH  22  23
ATOM     23  C   UNL     1      -0.875  11.394  19.607  0.00  0.00    +0.000 C 
ATOM     24  C   UNL     1      -2.303  11.528  19.088  0.00  0.00    +0.000 C 
ATOM     25  C   UNL     1      -2.874  12.635  19.957  0.00  0.00    +0.000 C 
ATOM     26  C   UNL     1      -2.270  12.400  21.338  0.00  0.00    +0.000 C 
ATOM     27  C   UNL     1      -1.015  11.557  21.124  0.00  0.00    +0.000 C 
ENDBRANCH  22  23
ENDBRANCH   6  22
TORSDOF 7
ENDMDL
MODEL 4
REMARK VINA RESULT:      -6.9      2.415      9.038
REMARK  Name = 
REMARK  9 active torsions:
REMARK  status: ('A' for Active; 'I' for Inactive)
REMARK    1  A    between atoms: C_1  and  C_2
REMARK    2  A    between atoms: C_2  and  C_3
REMARK    3  A    between atoms: C_2  and  O_4
REMARK    4  A    between atoms: C_2  and  C_5
REMARK    5  A    between atoms: C_5  and  C_6
REMARK    6  A    between atoms: C_6  and  C_7
REMARK    7  A    between atoms: C_10  and  C_11
REMARK    8  A    between atoms: N_16  and  C_17
REMARK    9  A    between atoms: C_17  and  C_18
REMARK                            x       y       z     vdW  Elec       q    Type
REMARK                         _______ _______ _______ _____ _____    ______ ____
ROOT
ATOM      1  C   UNL     1       3.123   6.165  19.350  0.00  0.00    +0.000 C 
ATOM      2  O   UNL     1       2.839   5.461  20.320  0.00  0.00    +0.000 OA
ATOM      3  N   UNL     1       4.023   5.744  18.378  0.00  0.00    +0.000 N 
ATOM      4  C   UNL     1       4.434   4.338  18.373  0.00  0.00    +0.000 C 
ATOM      5  C   UNL     1       4.273   3.739  16.960  0.00  0.00    +0.000 C 
ATOM      6  N   UNL     1       4.948   4.508  15.883  0.00  0.00    +0.000 NA
ATOM      7  C   UNL     1       4.489   5.922  15.963  0.00  0.00    +0.000 C 
ATOM      8  C   UNL     1       4.689   6.559  17.354  0.00  0.00    +0.000 C 
ENDROOT
BRANCH   1  12
ATOM      9  C   UNL     1       0.970   9.880  19.103  0.00  0.00    +0.000 A 
ATOM     10  C   UNL     1       1.035   9.153  20.299  0.00  0.00    +0.000 A 
ATOM     11  C   UNL     1       1.771   7.970  20.370  0.00  0.00    +0.000 A 
ATOM     12  C   UNL     1       2.429   7.476  19.238  0.00  0.00    +0.000 A 
ATOM     13  C   UNL     1       2.300   8.163  18.027  0.00  0.00    +0.000 A 
ATOM     14  C   UNL     1       1.616   9.376  17.969  0.00  0.00    +0.000 A 
BRANCH   9  15
ATOM     15  C   UNL     1       0.147  11.141  18.997  0.00  0.00    +0.000 C 
BRANCH  15  16
ATOM     16  C   UNL     1      -1.324  10.928  19.369  0.00  0.00    +0.000 C 
BRANCH  16  18
ATOM     17  C   UNL     1      -3.544  11.964  18.842  0.00  0.00    +0.000 C 
ATOM     18  C   UNL     1      -2.308  11.290  18.239  0.00  0.00    +0.000 C 
ATOM     19  C   UNL     1      -2.725  10.075  17.414  0.00  0.00    +0.000 C 
BRANCH  18  20
ATOM     20  O   UNL     1      -1.669  12.229  17.368  0.00  0.00    +0.000 OA
ATOM     21  H   UNL     1      -2.361  12.676  16.849  0.00  0.00    +0.000 HD
ENDBRANCH  18  20
ENDBRANCH  16  18
ENDBRANCH  15  16
ENDBRANCH   9  15
ENDBRANCH   1  12
BRANCH   6  22
ATOM     22  C   UNL     1       6.418   4.446  15.961  0.00  0.00    +0.000 C 
BRANCH  22  23
ATOM     23  C   UNL     1       7.116   4.167  14.627  0.00  0.00    +0.000 C 
ATOM     24  C   UNL     1       6.195   3.589  13.558  0.00  0.00    +0.000 C 
ATOM     25  C   UNL     1       6.963   3.852  12.274  0.00  0.00    +0.000 C 
ATOM     26  C   UNL     1       7.616   5.216  12.481  0.00  0.00    +0.000 C 
ATOM     27  C   UNL     1       7.667   5.446  13.989  0.00  0.00    +0.000 C 
ENDBRANCH  22  23
ENDBRANCH   6  22
TORSDOF 7
ENDMDL
MODEL 5
REMARK VINA RESULT:      -6.8      1.043      1.530
REMARK  Name = 
REMARK  9 active torsions:
REMARK  status: ('A' for Active; 'I' for Inactive)
REMARK    1  A    between atoms: C_1  and  C_2
REMARK    2  A    between atoms: C_2  and  C_3
REMARK    3  A    between atoms: C_2  and  O_4
REMARK    4  A    between atoms: C_2  and  C_5
REMARK    5  A    between atoms: C_5  and  C_6
REMARK    6  A    between atoms: C_6  and  C_7
REMARK    7  A    between atoms: C_10  and  C_11
REMARK    8  A    between atoms: N_16  and  C_17
REMARK    9  A    between atoms: C_17  and  C_18
REMARK                            x       y       z     vdW  Elec       q    Type
REMARK                         _______ _______ _______ _____ _____    ______ ____
ROOT
ATOM      1  C   UNL     1       3.140   6.020  19.083  0.00  0.00    +0.000 C 
ATOM      2  O   UNL     1       3.338   5.286  20.053  0.00  0.00    +0.000 OA
ATOM      3  N   UNL     1       2.212   7.054  19.125  0.00  0.00    +0.000 N 
ATOM      4  C   UNL     1       1.657   7.439  20.425  0.00  0.00    +0.000 C 
ATOM      5  C   UNL     1       1.771   8.965  20.624  0.00  0.00    +0.000 C 
ATOM      6  N   UNL     1       1.193   9.777  19.523  0.00  0.00    +0.000 NA
ATOM      7  C   UNL     1       1.797   9.318  18.241  0.00  0.00    +0.000 C 
ATOM      8  C   UNL     1       1.648   7.802  17.995  0.00  0.00    +0.000 C 
ENDROOT
BRANCH   1  12
ATOM      9  C   UNL     1       5.594   5.169  15.656  0.00  0.00    +0.000 A 
ATOM     10  C   UNL     1       4.719   4.209  16.183  0.00  0.00    +0.000 A 
ATOM     11  C   UNL     1       3.902   4.517  17.271  0.00  0.00    +0.000 A 
ATOM     12  C   UNL     1       3.969   5.778  17.872  0.00  0.00    +0.000 A 
ATOM     13  C   UNL     1       4.897   6.708  17.393  0.00  0.00    +0.000 A 
ATOM     14  C   UNL     1       5.670   6.424  16.269  0.00  0.00    +0.000 A 
BRANCH   9  15
ATOM     15  C   UNL     1       6.514   4.841  14.505  0.00  0.00    +0.000 C 
BRANCH  15  16
ATOM     16  C   UNL     1       6.240   3.463  13.894  0.00  0.00    +0.000 C 
BRANCH  16  18
ATOM     17  C   UNL     1       7.114   4.611  11.845  0.00  0.00    +0.000 C 
ATOM     18  C   UNL     1       6.245   3.455  12.353  0.00  0.00    +0.000 C 
ATOM     19  C   UNL     1       4.841   3.560  11.763  0.00  0.00    +0.000 C 
BRANCH  18  20
ATOM     20  O   UNL     1       6.832   2.229  11.909  0.00  0.00    +0.000 OA
ATOM     21  H   UNL     1       6.113   1.645  11.605  0.00  0.00    +0.000 HD
ENDBRANCH  18  20
ENDBRANCH  16  18
ENDBRANCH  15  16
ENDBRANCH   9  15
ENDBRANCH   1  12
BRANCH   6  22
ATOM     22  C   UNL     1      -0.276   9.693  19.451  0.00  0.00    +0.000 C 
BRANCH  22  23
ATOM     23  C   UNL     1      -1.002  11.021  19.685  0.00  0.00    +0.000 C 
ATOM     24  C   UNL     1      -0.569  11.745  20.957  0.00  0.00    +0.000 C 
ATOM     25  C   UNL     1      -1.044  13.166  20.712  0.00  0.00    +0.000 C 
ATOM     26  C   UNL     1      -0.805  13.409  19.225  0.00  0.00    +0.000 C 
ATOM     27  C   UNL     1      -0.723  12.032  18.569  0.00  0.00    +0.000 C 
ENDBRANCH  22  23
ENDBRANCH   6  22
TORSDOF 7
ENDMDL
MODEL 6
REMARK VINA RESULT:      -6.8      2.559      4.845
REMARK  Name = 
REMARK  9 active torsions:
REMARK  status: ('A' for Active; 'I' for Inactive)
REMARK    1  A    between atoms: C_1  and  C_2
REMARK    2  A    between atoms: C_2  and  C_3
REMARK    3  A    between atoms: C_2  and  O_4
REMARK    4  A    between atoms: C_2  and  C_5
REMARK    5  A    between atoms: C_5  and  C_6
REMARK    6  A    between atoms: C_6  and  C_7
REMARK    7  A    between atoms: C_10  and  C_11
REMARK    8  A    between atoms: N_16  and  C_17
REMARK    9  A    between atoms: C_17  and  C_18
REMARK                            x       y       z     vdW  Elec       q    Type
REMARK                         _______ _______ _______ _____ _____    ______ ____
ROOT
ATOM      1  C   UNL     1       0.520  10.163  20.277  0.00  0.00    +0.000 C 
ATOM      2  O   UNL     1       0.979  10.767  21.248  0.00  0.00    +0.000 OA
ATOM      3  N   UNL     1      -0.735  10.458  19.757  0.00  0.00    +0.000 N 
ATOM      4  C   UNL     1      -1.405  11.681  20.207  0.00  0.00    +0.000 C 
ATOM      5  C   UNL     1      -1.889  12.503  18.994  0.00  0.00    +0.000 C 
ATOM      6  N   UNL     1      -2.728  11.745  18.030  0.00  0.00    +0.000 NA
ATOM      7  C   UNL     1      -1.985  10.517  17.633  0.00  0.00    +0.000 C 
ATOM      8  C   UNL     1      -1.537   9.651  18.829  0.00  0.00    +0.000 C 
ENDROOT
BRANCH   1  12
ATOM      9  C   UNL     1       2.918   7.168  18.333  0.00  0.00    +0.000 A 
ATOM     10  C   UNL     1       2.571   8.360  17.682  0.00  0.00    +0.000 A 
ATOM     11  C   UNL     1       1.826   9.337  18.343  0.00  0.00    +0.000 A 
ATOM     12  C   UNL     1       1.386   9.126  19.655  0.00  0.00    +0.000 A 
ATOM     13  C   UNL     1       1.668   7.905  20.274  0.00  0.00    +0.000 A 
ATOM     14  C   UNL     1       2.464   6.954  19.639  0.00  0.00    +0.000 A 
BRANCH   9  15
ATOM     15  C   UNL     1       3.690   6.084  17.622  0.00  0.00    +0.000 C 
BRANCH  15  16
ATOM     16  C   UNL     1       4.915   5.607  18.409  0.00  0.00    +0.000 C 
BRANCH  16  18
ATOM     17  C   UNL     1       7.111   6.405  17.501  0.00  0.00    +0.000 C 
ATOM     18  C   UNL     1       6.118   5.238  17.519  0.00  0.00    +0.000 C 
ATOM     19  C   UNL     1       5.704   4.883  16.093  0.00  0.00    +0.000 C 
BRANCH  18  20
ATOM     20  O   UNL     1       6.774   4.104  18.094  0.00  0.00    +0.000 OA
ATOM     21  H   UNL     1       7.456   3.802  17.468  0.00  0.00    +0.000 HD
ENDBRANCH  18  20
ENDBRANCH  16  18
ENDBRANCH  15  16
ENDBRANCH   9  15
ENDBRANCH   1  12
BRANCH   6  22
ATOM     22  C   UNL     1      -4.051  11.387  18.571  0.00  0.00    +0.000 C 
BRANCH  22  23
ATOM     23  C   UNL     1      -5.126  12.461  18.389  0.00  0.00    +0.000 C 
ATOM     24  C   UNL     1      -5.821  12.415  17.032  0.00  0.00    +0.000 C 
ATOM     25  C   UNL     1      -7.093  13.208  17.278  0.00  0.00    +0.000 C 
ATOM     26  C   UNL     1      -7.518  12.836  18.696  0.00  0.00    +0.000 C 
ATOM     27  C   UNL     1      -6.270  12.305  19.397  0.00  0.00    +0.000 C 
ENDBRANCH  22  23
ENDBRANCH   6  22
TORSDOF 7
ENDMDL
MODEL 7
REMARK VINA RESULT:      -6.8      3.316      5.178
REMARK  Name = 
REMARK  9 active torsions:
REMARK  status: ('A' for Active; 'I' for Inactive)
REMARK    1  A    between atoms: C_1  and  C_2
REMARK    2  A    between atoms: C_2  and  C_3
REMARK    3  A    between atoms: C_2  and  O_4
REMARK    4  A    between atoms: C_2  and  C_5
REMARK    5  A    between atoms: C_5  and  C_6
REMARK    6  A    between atoms: C_6  and  C_7
REMARK    7  A    between atoms: C_10  and  C_11
REMARK    8  A    between atoms: N_16  and  C_17
REMARK    9  A    between atoms: C_17  and  C_18
REMARK                            x       y       z     vdW  Elec       q    Type
REMARK                         _______ _______ _______ _____ _____    ______ ____
ROOT
ATOM      1  C   UNL     1       0.700  10.299  20.630  0.00  0.00    +0.000 C 
ATOM      2  O   UNL     1       1.354  10.755  21.569  0.00  0.00    +0.000 OA
ATOM      3  N   UNL     1      -0.538  10.822  20.276  0.00  0.00    +0.000 N 
ATOM      4  C   UNL     1      -0.945  12.102  20.862  0.00  0.00    +0.000 C 
ATOM      5  C   UNL     1      -1.415  13.071  19.757  0.00  0.00    +0.000 C 
ATOM      6  N   UNL     1      -2.466  12.523  18.862  0.00  0.00    +0.000 NA
ATOM      7  C   UNL     1      -1.983  11.223  18.319  0.00  0.00    +0.000 C 
ATOM      8  C   UNL     1      -1.557  10.218  19.409  0.00  0.00    +0.000 C 
ENDROOT
BRANCH   1  12
ATOM      9  C   UNL     1       2.592   7.057  18.530  0.00  0.00    +0.000 A 
ATOM     10  C   UNL     1       2.255   6.950  19.886  0.00  0.00    +0.000 A 
ATOM     11  C   UNL     1       1.605   7.997  20.540  0.00  0.00    +0.000 A 
ATOM     12  C   UNL     1       1.311   9.183  19.859  0.00  0.00    +0.000 A 
ATOM     13  C   UNL     1       1.717   9.317  18.528  0.00  0.00    +0.000 A 
ATOM     14  C   UNL     1       2.310   8.250  17.856  0.00  0.00    +0.000 A 
BRANCH   9  15
ATOM     15  C   UNL     1       3.329   5.950  17.816  0.00  0.00    +0.000 C 
BRANCH  15  16
ATOM     16  C   UNL     1       4.378   5.265  18.698  0.00  0.00    +0.000 C 
BRANCH  16  18
ATOM     17  C   UNL     1       3.694   3.182  17.484  0.00  0.00    +0.000 C 
ATOM     18  C   UNL     1       4.182   3.741  18.824  0.00  0.00    +0.000 C 
ATOM     19  C   UNL     1       3.202   3.368  19.934  0.00  0.00    +0.000 C 
BRANCH  18  20
ATOM     20  O   UNL     1       5.449   3.146  19.121  0.00  0.00    +0.000 OA
ATOM     21  H   UNL     1       5.298   2.419  19.751  0.00  0.00    +0.000 HD
ENDBRANCH  18  20
ENDBRANCH  16  18
ENDBRANCH  15  16
ENDBRANCH   9  15
ENDBRANCH   1  12
BRANCH   6  22
ATOM     22  C   UNL     1      -3.764  12.342  19.536  0.00  0.00    +0.000 C 
BRANCH  22  23
ATOM     23  C   UNL     1      -4.857  11.724  18.659  0.00  0.00    +0.000 C 
ATOM     24  C   UNL     1      -5.957  11.021  19.448  0.00  0.00    +0.000 C 
ATOM     25  C   UNL     1      -7.090  10.935  18.441  0.00  0.00    +0.000 C 
ATOM     26  C   UNL     1      -7.021  12.244  17.660  0.00  0.00    +0.000 C 
ATOM     27  C   UNL     1      -5.604  12.783  17.842  0.00  0.00    +0.000 C 
ENDBRANCH  22  23
ENDBRANCH   6  22
TORSDOF 7
ENDMDL
MODEL 8
REMARK VINA RESULT:      -6.8      3.243      5.153
REMARK  Name = 
REMARK  9 active torsions:
REMARK  status: ('A' for Active; 'I' for Inactive)
REMARK    1  A    between atoms: C_1  and  C_2
REMARK    2  A    between atoms: C_2  and  C_3
REMARK    3  A    between atoms: C_2  and  O_4
REMARK    4  A    between atoms: C_2  and  C_5
REMARK    5  A    between atoms: C_5  and  C_6
REMARK    6  A    between atoms: C_6  and  C_7
REMARK    7  A    between atoms: C_10  and  C_11
REMARK    8  A    between atoms: N_16  and  C_17
REMARK    9  A    between atoms: C_17  and  C_18
REMARK                            x       y       z     vdW  Elec       q    Type
REMARK                         _______ _______ _______ _____ _____    ______ ____
ROOT
ATOM      1  C   UNL     1       0.301  10.208  19.952  0.00  0.00    +0.000 C 
ATOM      2  O   UNL     1       0.684  10.899  20.898  0.00  0.00    +0.000 OA
ATOM      3  N   UNL     1      -0.944  10.396  19.364  0.00  0.00    +0.000 N 
ATOM      4  C   UNL     1      -1.698  11.605  19.704  0.00  0.00    +0.000 C 
ATOM      5  C   UNL     1      -2.173  12.318  18.421  0.00  0.00    +0.000 C 
ATOM      6  N   UNL     1      -2.927  11.453  17.477  0.00  0.00    +0.000 NA
ATOM      7  C   UNL     1      -2.102  10.246  17.193  0.00  0.00    +0.000 C 
ATOM      8  C   UNL     1      -1.659   9.487  18.461  0.00  0.00    +0.000 C 
ENDROOT
BRANCH   1  12
ATOM      9  C   UNL     1       2.943   7.238  18.310  0.00  0.00    +0.000 A 
ATOM     10  C   UNL     1       2.571   8.371  17.573  0.00  0.00    +0.000 A 
ATOM     11  C   UNL     1       1.745   9.343  18.137  0.00  0.00    +0.000 A 
ATOM     12  C   UNL     1       1.249   9.185  19.436  0.00  0.00    +0.000 A 
ATOM     13  C   UNL     1       1.559   8.017  20.140  0.00  0.00    +0.000 A 
ATOM     14  C   UNL     1       2.433   7.075  19.602  0.00  0.00    +0.000 A 
BRANCH   9  15
ATOM     15  C   UNL     1       3.804   6.157  17.702  0.00  0.00    +0.000 C 
BRANCH  15  16
ATOM     16  C   UNL     1       4.203   5.074  18.710  0.00  0.00    +0.000 C 
BRANCH  16  18
ATOM     17  C   UNL     1       2.580   3.593  17.502  0.00  0.00    +0.000 C 
ATOM     18  C   UNL     1       3.936   3.638  18.214  0.00  0.00    +0.000 C 
ATOM     19  C   UNL     1       3.966   2.614  19.346  0.00  0.00    +0.000 C 
BRANCH  18  20
ATOM     20  O   UNL     1       4.949   3.293  17.265  0.00  0.00    +0.000 OA
ATOM     21  H   UNL     1       4.507   3.018  16.441  0.00  0.00    +0.000 HD
ENDBRANCH  18  20
ENDBRANCH  16  18
ENDBRANCH  15  16
ENDBRANCH   9  15
ENDBRANCH   1  12
BRANCH   6  22
ATOM     22  C   UNL     1      -4.250  11.055  17.987  0.00  0.00    +0.000 C 
BRANCH  22  23
ATOM     23  C   UNL     1      -5.191  12.222  18.300  0.00  0.00    +0.000 C 
ATOM     24  C   UNL     1      -6.088  12.621  17.132  0.00  0.00    +0.000 C 
ATOM     25  C   UNL     1      -7.191  13.414  17.811  0.00  0.00    +0.000 C 
ATOM     26  C   UNL     1      -7.435  12.691  19.133  0.00  0.00    +0.000 C 
ATOM     27  C   UNL     1      -6.174  11.882  19.424  0.00  0.00    +0.000 C 
ENDBRANCH  22  23
ENDBRANCH   6  22
TORSDOF 7
ENDMDL
MODEL 9
REMARK VINA RESULT:      -6.8      0.532      1.094
REMARK  Name = 
REMARK  9 active torsions:
REMARK  status: ('A' for Active; 'I' for Inactive)
REMARK    1  A    between atoms: C_1  and  C_2
REMARK    2  A    between atoms: C_2  and  C_3
REMARK    3  A    between atoms: C_2  and  O_4
REMARK    4  A    between atoms: C_2  and  C_5
REMARK    5  A    between atoms: C_5  and  C_6
REMARK    6  A    between atoms: C_6  and  C_7
REMARK    7  A    between atoms: C_10  and  C_11
REMARK    8  A    between atoms: N_16  and  C_17
REMARK    9  A    between atoms: C_17  and  C_18
REMARK                            x       y       z     vdW  Elec       q    Type
REMARK                         _______ _______ _______ _____ _____    ______ ____
ROOT
ATOM      1  C   UNL     1       3.042   5.678  19.224  0.00  0.00    +0.000 C 
ATOM      2  O   UNL     1       3.157   4.881  20.157  0.00  0.00    +0.000 OA
ATOM      3  N   UNL     1       2.176   6.763  19.289  0.00  0.00    +0.000 N 
ATOM      4  C   UNL     1       1.593   7.110  20.588  0.00  0.00    +0.000 C 
ATOM      5  C   UNL     1       1.788   8.613  20.878  0.00  0.00    +0.000 C 
ATOM      6  N   UNL     1       1.304   9.517  19.804  0.00  0.00    +0.000 NA
ATOM      7  C   UNL     1       1.931   9.093  18.522  0.00  0.00    +0.000 C 
ATOM      8  C   UNL     1       1.703   7.605  18.184  0.00  0.00    +0.000 C 
ENDROOT
BRANCH   1  12
ATOM      9  C   UNL     1       5.434   5.146  15.689  0.00  0.00    +0.000 A 
ATOM     10  C   UNL     1       5.169   6.422  16.205  0.00  0.00    +0.000 A 
ATOM     11  C   UNL     1       4.425   6.573  17.376  0.00  0.00    +0.000 A 
ATOM     12  C   UNL     1       3.903   5.453  18.032  0.00  0.00    +0.000 A 
ATOM     13  C   UNL     1       4.104   4.187  17.473  0.00  0.00    +0.000 A 
ATOM     14  C   UNL     1       4.899   4.029  16.339  0.00  0.00    +0.000 A 
BRANCH   9  15
ATOM     15  C   UNL     1       6.205   4.967  14.404  0.00  0.00    +0.000 C 
BRANCH  15  16
ATOM     16  C   UNL     1       6.164   3.528  13.879  0.00  0.00    +0.000 C 
BRANCH  16  18
ATOM     17  C   UNL     1       7.059   4.530  11.763  0.00  0.00    +0.000 C 
ATOM     18  C   UNL     1       6.162   3.430  12.340  0.00  0.00    +0.000 C 
ATOM     19  C   UNL     1       4.759   3.537  11.749  0.00  0.00    +0.000 C 
BRANCH  18  20
ATOM     20  O   UNL     1       6.715   2.164  11.968  0.00  0.00    +0.000 OA
ATOM     21  H   UNL     1       6.970   1.696  12.783  0.00  0.00    +0.000 HD
ENDBRANCH  18  20
ENDBRANCH  16  18
ENDBRANCH  15  16
ENDBRANCH   9  15
ENDBRANCH   1  12
BRANCH   6  22
ATOM     22  C   UNL     1      -0.164   9.527  19.674  0.00  0.00    +0.000 C 
BRANCH  22  23
ATOM     23  C   UNL     1      -0.702  10.478  18.600  0.00  0.00    +0.000 C 
ATOM     24  C   UNL     1      -1.986   9.993  17.935  0.00  0.00    +0.000 C 
ATOM     25  C   UNL     1      -2.540  11.261  17.309  0.00  0.00    +0.000 C 
ATOM     26  C   UNL     1      -2.222  12.365  18.314  0.00  0.00    +0.000 C 
ATOM     27  C   UNL     1      -1.078  11.845  19.181  0.00  0.00    +0.000 C 
ENDBRANCH  22  23
ENDBRANCH   6  22
TORSDOF 7
ENDMDL
