MODEL 1
REMARK VINA RESULT:      -7.3      0.000      0.000
REMARK  Name = 
REMARK  8 active torsions:
REMARK  status: ('A' for Active; 'I' for Inactive)
REMARK    1  A    between atoms: C_1  and  C_2
REMARK    2  A    between atoms: C_2  and  O_4
REMARK    3  A    between atoms: O_4  and  C_5
REMARK    4  A    between atoms: C_5  and  O_6
REMARK    5  A    between atoms: O_6  and  C_7
REMARK    6  A    between atoms: C_7  and  C_9
REMARK    7  A    between atoms: C_14  and  N_15
REMARK    8  A    between atoms: C_19  and  C_20
REMARK                            x       y       z     vdW  Elec       q    Type
REMARK                         _______ _______ _______ _____ _____    ______ ____
ROOT
ATOM      1  C   UNL     1       4.184   5.523  18.718  0.00  0.00    +0.000 A 
ATOM      2  C   UNL     1       3.115   5.982  19.530  0.00  0.00    +0.000 A 
ATOM      3  C   UNL     1       2.382   7.123  19.208  0.00  0.00    +0.000 A 
ATOM      4  C   UNL     1       2.693   7.828  18.060  0.00  0.00    +0.000 A 
ATOM      5  C   UNL     1       3.736   7.395  17.238  0.00  0.00    +0.000 A 
ATOM      6  C   UNL     1       4.507   6.257  17.553  0.00  0.00    +0.000 A 
ENDROOT
BRANCH   6   7
ATOM      7  N   UNL     1       5.534   5.884  16.630  0.00  0.00    +0.000 N 
ATOM      8  C   UNL     1       5.380   5.093  15.511  0.00  0.00    +0.000 A 
ATOM      9  C   UNL     1       6.617   4.983  14.932  0.00  0.00    +0.000 A 
ATOM     10  N   UNL     1       7.524   5.758  15.588  0.00  0.00    +0.000 NA
ATOM     11  C   UNL     1       6.870   6.304  16.598  0.00  0.00    +0.000 A 
ATOM     12  C   UNL     1       7.539   7.168  17.611  0.00  0.00    +0.000 C 
ENDBRANCH   6   7
BRANCH   1  13
ATOM     13  C   UNL     1       4.921   4.311  19.204  0.00  0.00    +0.000 C 
ATOM     14  O   UNL     1       6.108   4.220  19.431  0.00  0.00    +0.000 OA
BRANCH  13  15
ATOM     15  O   UNL     1       4.026   3.299  19.280  0.00  0.00    +0.000 OA
BRANCH  15  16
ATOM     16  C   UNL     1       3.728   2.571  18.090  0.00  0.00    +0.000 C 
BRANCH  16  17
ATOM     17  O   UNL     1       2.388   2.080  18.184  0.00  0.00    +0.000 OA
BRANCH  17  19
ATOM     18  C   UNL     1       0.670   2.910  19.546  0.00  0.00    +0.000 C 
ATOM     19  C   UNL     1       1.449   3.060  18.278  0.00  0.00    +0.000 C 
ATOM     20  O   UNL     1       1.220   3.916  17.434  0.00  0.00    +0.000 OA
ENDBRANCH  17  19
ENDBRANCH  16  17
ENDBRANCH  15  16
ENDBRANCH  13  15
ENDBRANCH   1  13
TORSDOF 6
ENDMDL
MODEL 2
REMARK VINA RESULT:      -7.2      1.459      2.099
REMARK  Name = 
REMARK  8 active torsions:
REMARK  status: ('A' for Active; 'I' for Inactive)
REMARK    1  A    between atoms: C_1  and  C_2
REMARK    2  A    between atoms: C_2  and  O_4
REMARK    3  A    between atoms: O_4  and  C_5
REMARK    4  A    between atoms: C_5  and  O_6
REMARK    5  A    between atoms: O_6  and  C_7
REMARK    6  A    between atoms: C_7  and  C_9
REMARK    7  A    between atoms: C_14  and  N_15
REMARK    8  A    between atoms: C_19  and  C_20
REMARK                            x       y       z     vdW  Elec       q    Type
REMARK                         _______ _______ _______ _____ _____    ______ ____
ROOT
ATOM      1  C   UNL     1       3.321   5.006  17.561  0.00  0.00    +0.000 A 
ATOM      2  C   UNL     1       2.234   5.671  18.187  0.00  0.00    +0.000 A 
ATOM      3  C   UNL     1       2.196   7.058  18.320  0.00  0.00    +0.000 A 
ATOM      4  C   UNL     1       3.240   7.816  17.822  0.00  0.00    +0.000 A 
ATOM      5  C   UNL     1       4.319   7.189  17.195  0.00  0.00    +0.000 A 
ATOM      6  C   UNL     1       4.392   5.786  17.067  0.00  0.00    +0.000 A 
ENDROOT
BRANCH   6   7
ATOM      7  N   UNL     1       5.528   5.247  16.385  0.00  0.00    +0.000 N 
ATOM      8  C   UNL     1       5.601   4.930  15.045  0.00  0.00    +0.000 A 
ATOM      9  C   UNL     1       6.860   4.433  14.826  0.00  0.00    +0.000 A 
ATOM     10  N   UNL     1       7.612   4.520  15.956  0.00  0.00    +0.000 NA
ATOM     11  C   UNL     1       6.816   5.018  16.885  0.00  0.00    +0.000 A 
ATOM     12  C   UNL     1       7.248   5.195  18.299  0.00  0.00    +0.000 C 
ENDBRANCH   6   7
BRANCH   1  13
ATOM     13  C   UNL     1       3.259   3.509  17.528  0.00  0.00    +0.000 C 
ATOM     14  O   UNL     1       2.443   2.823  16.950  0.00  0.00    +0.000 OA
BRANCH  13  15
ATOM     15  O   UNL     1       4.249   3.047  18.328  0.00  0.00    +0.000 OA
BRANCH  15  16
ATOM     16  C   UNL     1       4.110   3.214  19.737  0.00  0.00    +0.000 C 
BRANCH  16  17
ATOM     17  O   UNL     1       3.154   2.263  20.214  0.00  0.00    +0.000 OA
BRANCH  17  19
ATOM     18  C   UNL     1       0.993   3.159  20.367  0.00  0.00    +0.000 C 
ATOM     19  C   UNL     1       2.249   2.784  21.087  0.00  0.00    +0.000 C 
ATOM     20  O   UNL     1       2.435   2.977  22.281  0.00  0.00    +0.000 OA
ENDBRANCH  17  19
ENDBRANCH  16  17
ENDBRANCH  15  16
ENDBRANCH  13  15
ENDBRANCH   1  13
TORSDOF 6
ENDMDL
MODEL 3
REMARK VINA RESULT:      -7.2      1.063      1.406
REMARK  Name = 
REMARK  8 active torsions:
REMARK  status: ('A' for Active; 'I' for Inactive)
REMARK    1  A    between atoms: C_1  and  C_2
REMARK    2  A    between atoms: C_2  and  O_4
REMARK    3  A    between atoms: O_4  and  C_5
REMARK    4  A    between atoms: C_5  and  O_6
REMARK    5  A    between atoms: O_6  and  C_7
REMARK    6  A    between atoms: C_7  and  C_9
REMARK    7  A    between atoms: C_14  and  N_15
REMARK    8  A    between atoms: C_19  and  C_20
REMARK                            x       y       z     vdW  Elec       q    Type
REMARK                         _______ _______ _______ _____ _____    ______ ____
ROOT
ATOM      1  C   UNL     1       4.103   5.481  18.497  0.00  0.00    +0.000 A 
ATOM      2  C   UNL     1       3.045   5.991  19.295  0.00  0.00    +0.000 A 
ATOM      3  C   UNL     1       2.428   7.207  19.011  0.00  0.00    +0.000 A 
ATOM      4  C   UNL     1       2.846   7.941  17.916  0.00  0.00    +0.000 A 
ATOM      5  C   UNL     1       3.880   7.461  17.109  0.00  0.00    +0.000 A 
ATOM      6  C   UNL     1       4.536   6.243  17.388  0.00  0.00    +0.000 A 
ENDROOT
BRANCH   6   7
ATOM      7  N   UNL     1       5.564   5.829  16.483  0.00  0.00    +0.000 N 
ATOM      8  C   UNL     1       5.388   5.110  15.320  0.00  0.00    +0.000 A 
ATOM      9  C   UNL     1       6.634   4.924  14.780  0.00  0.00    +0.000 A 
ATOM     10  N   UNL     1       7.575   5.585  15.507  0.00  0.00    +0.000 NA
ATOM     11  C   UNL     1       6.931   6.135  16.520  0.00  0.00    +0.000 A 
ATOM     12  C   UNL     1       7.629   6.888  17.599  0.00  0.00    +0.000 C 
ENDBRANCH   6   7
BRANCH   1  13
ATOM     13  C   UNL     1       4.711   4.185  18.942  0.00  0.00    +0.000 C 
ATOM     14  O   UNL     1       5.770   4.031  19.511  0.00  0.00    +0.000 OA
BRANCH  13  15
ATOM     15  O   UNL     1       3.891   3.191  18.526  0.00  0.00    +0.000 OA
BRANCH  15  16
ATOM     16  C   UNL     1       3.751   2.041  19.356  0.00  0.00    +0.000 C 
BRANCH  16  17
ATOM     17  O   UNL     1       2.383   1.943  19.766  0.00  0.00    +0.000 OA
BRANCH  17  19
ATOM     18  C   UNL     1       0.959   3.581  20.653  0.00  0.00    +0.000 C 
ATOM     19  C   UNL     1       2.098   2.642  20.898  0.00  0.00    +0.000 C 
ATOM     20  O   UNL     1       2.706   2.570  21.957  0.00  0.00    +0.000 OA
ENDBRANCH  17  19
ENDBRANCH  16  17
ENDBRANCH  15  16
ENDBRANCH  13  15
ENDBRANCH   1  13
TORSDOF 6
ENDMDL
MODEL 4
REMARK VINA RESULT:      -6.7      1.624      2.072
REMARK  Name = 
REMARK  8 active torsions:
REMARK  status: ('A' for Active; 'I' for Inactive)
REMARK    1  A    between atoms: C_1  and  C_2
REMARK    2  A    between atoms: C_2  and  O_4
REMARK    3  A    between atoms: O_4  and  C_5
REMARK    4  A    between atoms: C_5  and  O_6
REMARK    5  A    between atoms: O_6  and  C_7
REMARK    6  A    between atoms: C_7  and  C_9
REMARK    7  A    between atoms: C_14  and  N_15
REMARK    8  A    between atoms: C_19  and  C_20
REMARK                            x       y       z     vdW  Elec       q    Type
REMARK                         _______ _______ _______ _____ _____    ______ ____
ROOT
ATOM      1  C   UNL     1       3.349   5.124  17.796  0.00  0.00    +0.000 A 
ATOM      2  C   UNL     1       2.230   5.827  18.312  0.00  0.00    +0.000 A 
ATOM      3  C   UNL     1       2.144   7.217  18.259  0.00  0.00    +0.000 A 
ATOM      4  C   UNL     1       3.171   7.939  17.679  0.00  0.00    +0.000 A 
ATOM      5  C   UNL     1       4.282   7.273  17.157  0.00  0.00    +0.000 A 
ATOM      6  C   UNL     1       4.403   5.869  17.217  0.00  0.00    +0.000 A 
ENDROOT
BRANCH   6   7
ATOM      7  N   UNL     1       5.568   5.284  16.629  0.00  0.00    +0.000 N 
ATOM      8  C   UNL     1       5.697   4.857  15.324  0.00  0.00    +0.000 A 
ATOM      9  C   UNL     1       6.966   4.354  15.198  0.00  0.00    +0.000 A 
ATOM     10  N   UNL     1       7.672   4.542  16.346  0.00  0.00    +0.000 NA
ATOM     11  C   UNL     1       6.836   5.109  17.198  0.00  0.00    +0.000 A 
ATOM     12  C   UNL     1       7.210   5.408  18.608  0.00  0.00    +0.000 C 
ENDBRANCH   6   7
BRANCH   1  13
ATOM     13  C   UNL     1       3.337   3.634  17.961  0.00  0.00    +0.000 C 
ATOM     14  O   UNL     1       4.295   2.891  17.968  0.00  0.00    +0.000 OA
BRANCH  13  15
ATOM     15  O   UNL     1       2.041   3.247  18.029  0.00  0.00    +0.000 OA
BRANCH  15  16
ATOM     16  C   UNL     1       1.669   2.314  19.042  0.00  0.00    +0.000 C 
BRANCH  16  17
ATOM     17  O   UNL     1       0.933   3.012  20.050  0.00  0.00    +0.000 OA
BRANCH  17  19
ATOM     18  C   UNL     1       2.250   4.388  21.417  0.00  0.00    +0.000 C 
ATOM     19  C   UNL     1       1.567   3.068  21.254  0.00  0.00    +0.000 C 
ATOM     20  O   UNL     1       1.628   2.161  22.073  0.00  0.00    +0.000 OA
ENDBRANCH  17  19
ENDBRANCH  16  17
ENDBRANCH  15  16
ENDBRANCH  13  15
ENDBRANCH   1  13
TORSDOF 6
ENDMDL
MODEL 5
REMARK VINA RESULT:      -6.7      3.333      5.364
REMARK  Name = 
REMARK  8 active torsions:
REMARK  status: ('A' for Active; 'I' for Inactive)
REMARK    1  A    between atoms: C_1  and  C_2
REMARK    2  A    between atoms: C_2  and  O_4
REMARK    3  A    between atoms: O_4  and  C_5
REMARK    4  A    between atoms: C_5  and  O_6
REMARK    5  A    between atoms: O_6  and  C_7
REMARK    6  A    between atoms: C_7  and  C_9
REMARK    7  A    between atoms: C_14  and  N_15
REMARK    8  A    between atoms: C_19  and  C_20
REMARK                            x       y       z     vdW  Elec       q    Type
REMARK                         _______ _______ _______ _____ _____    ______ ____
ROOT
ATOM      1  C   UNL     1       5.961   5.701  16.935  0.00  0.00    +0.000 A 
ATOM      2  C   UNL     1       7.251   6.236  17.190  0.00  0.00    +0.000 A 
ATOM      3  C   UNL     1       7.826   6.200  18.459  0.00  0.00    +0.000 A 
ATOM      4  C   UNL     1       7.130   5.619  19.504  0.00  0.00    +0.000 A 
ATOM      5  C   UNL     1       5.862   5.079  19.280  0.00  0.00    +0.000 A 
ATOM      6  C   UNL     1       5.249   5.123  18.011  0.00  0.00    +0.000 A 
ENDROOT
BRANCH   6   7
ATOM      7  N   UNL     1       3.959   4.517  17.883  0.00  0.00    +0.000 N 
ATOM      8  C   UNL     1       3.700   3.171  17.732  0.00  0.00    +0.000 A 
ATOM      9  C   UNL     1       2.339   3.040  17.634  0.00  0.00    +0.000 A 
ATOM     10  N   UNL     1       1.728   4.242  17.821  0.00  0.00    +0.000 NA
ATOM     11  C   UNL     1       2.700   5.123  17.980  0.00  0.00    +0.000 A 
ATOM     12  C   UNL     1       2.441   6.581  18.134  0.00  0.00    +0.000 C 
ENDBRANCH   6   7
BRANCH   1  13
ATOM     13  C   UNL     1       5.441   5.849  15.537  0.00  0.00    +0.000 C 
ATOM     14  O   UNL     1       5.158   6.881  14.967  0.00  0.00    +0.000 OA
BRANCH  13  15
ATOM     15  O   UNL     1       5.270   4.602  15.037  0.00  0.00    +0.000 OA
BRANCH  15  16
ATOM     16  C   UNL     1       6.393   3.955  14.443  0.00  0.00    +0.000 C 
BRANCH  16  17
ATOM     17  O   UNL     1       6.476   4.360  13.073  0.00  0.00    +0.000 OA
BRANCH  17  19
ATOM     18  C   UNL     1       4.709   3.418  11.853  0.00  0.00    +0.000 C 
ATOM     19  C   UNL     1       6.167   3.372  12.189  0.00  0.00    +0.000 C 
ATOM     20  O   UNL     1       6.940   2.526  11.761  0.00  0.00    +0.000 OA
ENDBRANCH  17  19
ENDBRANCH  16  17
ENDBRANCH  15  16
ENDBRANCH  13  15
ENDBRANCH   1  13
TORSDOF 6
ENDMDL
MODEL 6
REMARK VINA RESULT:      -6.7      2.554      5.416
REMARK  Name = 
REMARK  8 active torsions:
REMARK  status: ('A' for Active; 'I' for Inactive)
REMARK    1  A    between atoms: C_1  and  C_2
REMARK    2  A    between atoms: C_2  and  O_4
REMARK    3  A    between atoms: O_4  and  C_5
REMARK    4  A    between atoms: C_5  and  O_6
REMARK    5  A    between atoms: O_6  and  C_7
REMARK    6  A    between atoms: C_7  and  C_9
REMARK    7  A    between atoms: C_14  and  N_15
REMARK    8  A    between atoms: C_19  and  C_20
REMARK                            x       y       z     vdW  Elec       q    Type
REMARK                         _______ _______ _______ _____ _____    ______ ____
ROOT
ATOM      1  C   UNL     1       4.093   5.532  18.392  0.00  0.00    +0.000 A 
ATOM      2  C   UNL     1       4.372   6.692  17.624  0.00  0.00    +0.000 A 
ATOM      3  C   UNL     1       3.450   7.729  17.494  0.00  0.00    +0.000 A 
ATOM      4  C   UNL     1       2.229   7.637  18.137  0.00  0.00    +0.000 A 
ATOM      5  C   UNL     1       1.930   6.510  18.905  0.00  0.00    +0.000 A 
ATOM      6  C   UNL     1       2.837   5.437  19.035  0.00  0.00    +0.000 A 
ENDROOT
BRANCH   6   7
ATOM      7  N   UNL     1       2.444   4.342  19.867  0.00  0.00    +0.000 N 
ATOM      8  C   UNL     1       2.351   4.353  21.242  0.00  0.00    +0.000 A 
ATOM      9  C   UNL     1       1.956   3.096  21.621  0.00  0.00    +0.000 A 
ATOM     10  N   UNL     1       1.700   2.326  20.529  0.00  0.00    +0.000 NA
ATOM     11  C   UNL     1       1.982   3.077  19.480  0.00  0.00    +0.000 A 
ATOM     12  C   UNL     1       1.905   2.564  18.084  0.00  0.00    +0.000 C 
ENDBRANCH   6   7
BRANCH   1  13
ATOM     13  C   UNL     1       5.152   4.471  18.409  0.00  0.00    +0.000 C 
ATOM     14  O   UNL     1       5.434   3.734  19.329  0.00  0.00    +0.000 OA
BRANCH  13  15
ATOM     15  O   UNL     1       5.797   4.527  17.220  0.00  0.00    +0.000 OA
BRANCH  15  16
ATOM     16  C   UNL     1       7.222   4.582  17.229  0.00  0.00    +0.000 C 
BRANCH  16  17
ATOM     17  O   UNL     1       7.625   5.919  16.919  0.00  0.00    +0.000 OA
BRANCH  17  19
ATOM     18  C   UNL     1       7.804   8.143  17.639  0.00  0.00    +0.000 C 
ATOM     19  C   UNL     1       7.838   6.696  18.017  0.00  0.00    +0.000 C 
ATOM     20  O   UNL     1       8.080   6.291  19.145  0.00  0.00    +0.000 OA
ENDBRANCH  17  19
ENDBRANCH  16  17
ENDBRANCH  15  16
ENDBRANCH  13  15
ENDBRANCH   1  13
TORSDOF 6
ENDMDL
MODEL 7
REMARK VINA RESULT:      -6.6      1.588      2.440
REMARK  Name = 
REMARK  8 active torsions:
REMARK  status: ('A' for Active; 'I' for Inactive)
REMARK    1  A    between atoms: C_1  and  C_2
REMARK    2  A    between atoms: C_2  and  O_4
REMARK    3  A    between atoms: O_4  and  C_5
REMARK    4  A    between atoms: C_5  and  O_6
REMARK    5  A    between atoms: O_6  and  C_7
REMARK    6  A    between atoms: C_7  and  C_9
REMARK    7  A    between atoms: C_14  and  N_15
REMARK    8  A    between atoms: C_19  and  C_20
REMARK                            x       y       z     vdW  Elec       q    Type
REMARK                         _______ _______ _______ _____ _____    ______ ____
ROOT
ATOM      1  C   UNL     1       3.301   4.966  17.669  0.00  0.00    +0.000 A 
ATOM      2  C   UNL     1       2.061   5.617  17.894  0.00  0.00    +0.000 A 
ATOM      3  C   UNL     1       1.965   7.003  18.004  0.00  0.00    +0.000 A 
ATOM      4  C   UNL     1       3.107   7.774  17.883  0.00  0.00    +0.000 A 
ATOM      5  C   UNL     1       4.340   7.161  17.655  0.00  0.00    +0.000 A 
ATOM      6  C   UNL     1       4.467   5.759  17.560  0.00  0.00    +0.000 A 
ENDROOT
BRANCH   6   7
ATOM      7  N   UNL     1       5.771   5.234  17.298  0.00  0.00    +0.000 N 
ATOM      8  C   UNL     1       6.758   4.994  18.230  0.00  0.00    +0.000 A 
ATOM      9  C   UNL     1       7.841   4.509  17.542  0.00  0.00    +0.000 A 
ATOM     10  N   UNL     1       7.536   4.340  16.227  0.00  0.00    +0.000 NA
ATOM     11  C   UNL     1       6.293   4.765  16.085  0.00  0.00    +0.000 A 
ATOM     12  C   UNL     1       5.611   4.817  14.762  0.00  0.00    +0.000 C 
ENDBRANCH   6   7
BRANCH   1  13
ATOM     13  C   UNL     1       3.271   3.468  17.618  0.00  0.00    +0.000 C 
ATOM     14  O   UNL     1       2.492   2.773  17.002  0.00  0.00    +0.000 OA
BRANCH  13  15
ATOM     15  O   UNL     1       4.237   3.017  18.453  0.00  0.00    +0.000 OA
BRANCH  15  16
ATOM     16  C   UNL     1       3.969   3.009  19.853  0.00  0.00    +0.000 C 
BRANCH  16  17
ATOM     17  O   UNL     1       2.720   2.346  20.071  0.00  0.00    +0.000 OA
BRANCH  17  19
ATOM     18  C   UNL     1       0.745   3.561  20.416  0.00  0.00    +0.000 C 
ATOM     19  C   UNL     1       1.950   2.925  21.033  0.00  0.00    +0.000 C 
ATOM     20  O   UNL     1       2.215   2.978  22.226  0.00  0.00    +0.000 OA
ENDBRANCH  17  19
ENDBRANCH  16  17
ENDBRANCH  15  16
ENDBRANCH  13  15
ENDBRANCH   1  13
TORSDOF 6
ENDMDL
MODEL 8
REMARK VINA RESULT:      -6.5      2.471      4.934
REMARK  Name = 
REMARK  8 active torsions:
REMARK  status: ('A' for Active; 'I' for Inactive)
REMARK    1  A    between atoms: C_1  and  C_2
REMARK    2  A    between atoms: C_2  and  O_4
REMARK    3  A    between atoms: O_4  and  C_5
REMARK    4  A    between atoms: C_5  and  O_6
REMARK    5  A    between atoms: O_6  and  C_7
REMARK    6  A    between atoms: C_7  and  C_9
REMARK    7  A    between atoms: C_14  and  N_15
REMARK    8  A    between atoms: C_19  and  C_20
REMARK                            x       y       z     vdW  Elec       q    Type
REMARK                         _______ _______ _______ _____ _____    ______ ____
ROOT
ATOM      1  C   UNL     1       4.345   4.002  18.556  0.00  0.00    +0.000 A 
ATOM      2  C   UNL     1       4.438   2.593  18.411  0.00  0.00    +0.000 A 
ATOM      3  C   UNL     1       3.347   1.818  18.022  0.00  0.00    +0.000 A 
ATOM      4  C   UNL     1       2.137   2.434  17.758  0.00  0.00    +0.000 A 
ATOM      5  C   UNL     1       2.018   3.819  17.886  0.00  0.00    +0.000 A 
ATOM      6  C   UNL     1       3.101   4.623  18.300  0.00  0.00    +0.000 A 
ENDROOT
BRANCH   6   7
ATOM      7  N   UNL     1       2.880   6.035  18.373  0.00  0.00    +0.000 N 
ATOM      8  C   UNL     1       3.175   6.959  17.393  0.00  0.00    +0.000 A 
ATOM      9  C   UNL     1       2.815   8.186  17.888  0.00  0.00    +0.000 A 
ATOM     10  N   UNL     1       2.213   8.055  19.101  0.00  0.00    +0.000 NA
ATOM     11  C   UNL     1       2.243   6.765  19.384  0.00  0.00    +0.000 A 
ATOM     12  C   UNL     1       1.746   6.217  20.677  0.00  0.00    +0.000 C 
ENDBRANCH   6   7
BRANCH   1  13
ATOM     13  C   UNL     1       5.580   4.709  19.028  0.00  0.00    +0.000 C 
ATOM     14  O   UNL     1       5.642   5.620  19.825  0.00  0.00    +0.000 OA
BRANCH  13  15
ATOM     15  O   UNL     1       6.626   4.192  18.342  0.00  0.00    +0.000 OA
BRANCH  15  16
ATOM     16  C   UNL     1       7.356   5.055  17.473  0.00  0.00    +0.000 C 
BRANCH  16  17
ATOM     17  O   UNL     1       7.663   4.337  16.275  0.00  0.00    +0.000 OA
BRANCH  17  19
ATOM     18  C   UNL     1       5.636   4.584  15.123  0.00  0.00    +0.000 C 
ATOM     19  C   UNL     1       7.103   4.871  15.155  0.00  0.00    +0.000 C 
ATOM     20  O   UNL     1       7.704   5.457  14.264  0.00  0.00    +0.000 OA
ENDBRANCH  17  19
ENDBRANCH  16  17
ENDBRANCH  15  16
ENDBRANCH  13  15
ENDBRANCH   1  13
TORSDOF 6
ENDMDL
MODEL 9
REMARK VINA RESULT:      -6.5      2.637      5.127
REMARK  Name = 
REMARK  8 active torsions:
REMARK  status: ('A' for Active; 'I' for Inactive)
REMARK    1  A    between atoms: C_1  and  C_2
REMARK    2  A    between atoms: C_2  and  O_4
REMARK    3  A    between atoms: O_4  and  C_5
REMARK    4  A    between atoms: C_5  and  O_6
REMARK    5  A    between atoms: O_6  and  C_7
REMARK    6  A    between atoms: C_7  and  C_9
REMARK    7  A    between atoms: C_14  and  N_15
REMARK    8  A    between atoms: C_19  and  C_20
REMARK                            x       y       z     vdW  Elec       q    Type
REMARK                         _______ _______ _______ _____ _____    ______ ____
ROOT
ATOM      1  C   UNL     1       4.251   5.544  18.385  0.00  0.00    +0.000 A 
ATOM      2  C   UNL     1       4.575   6.712  17.645  0.00  0.00    +0.000 A 
ATOM      3  C   UNL     1       3.664   7.751  17.471  0.00  0.00    +0.000 A 
ATOM      4  C   UNL     1       2.408   7.655  18.041  0.00  0.00    +0.000 A 
ATOM      5  C   UNL     1       2.063   6.522  18.780  0.00  0.00    +0.000 A 
ATOM      6  C   UNL     1       2.960   5.446  18.953  0.00  0.00    +0.000 A 
ENDROOT
BRANCH   6   7
ATOM      7  N   UNL     1       2.517   4.344  19.751  0.00  0.00    +0.000 N 
ATOM      8  C   UNL     1       2.326   4.349  21.116  0.00  0.00    +0.000 A 
ATOM      9  C   UNL     1       1.916   3.087  21.461  0.00  0.00    +0.000 A 
ATOM     10  N   UNL     1       1.746   2.319  20.350  0.00  0.00    +0.000 NA
ATOM     11  C   UNL     1       2.096   3.077  19.327  0.00  0.00    +0.000 A 
ATOM     12  C   UNL     1       2.125   2.569  17.927  0.00  0.00    +0.000 C 
ENDBRANCH   6   7
BRANCH   1  13
ATOM     13  C   UNL     1       5.306   4.482  18.454  0.00  0.00    +0.000 C 
ATOM     14  O   UNL     1       5.540   3.743  19.386  0.00  0.00    +0.000 OA
BRANCH  13  15
ATOM     15  O   UNL     1       6.011   4.539  17.300  0.00  0.00    +0.000 OA
BRANCH  15  16
ATOM     16  C   UNL     1       5.580   3.733  16.205  0.00  0.00    +0.000 C 
BRANCH  16  17
ATOM     17  O   UNL     1       5.415   4.576  15.061  0.00  0.00    +0.000 OA
BRANCH  17  19
ATOM     18  C   UNL     1       6.303   3.725  13.065  0.00  0.00    +0.000 C 
ATOM     19  C   UNL     1       6.506   4.618  14.248  0.00  0.00    +0.000 C 
ATOM     20  O   UNL     1       7.534   5.244  14.461  0.00  0.00    +0.000 OA
ENDBRANCH  17  19
ENDBRANCH  16  17
ENDBRANCH  15  16
ENDBRANCH  13  15
ENDBRANCH   1  13
TORSDOF 6
ENDMDL
