MODEL 1
REMARK VINA RESULT:      -7.2      0.000      0.000
REMARK  Name = 
REMARK  16 active torsions:
REMARK  status: ('A' for Active; 'I' for Inactive)
REMARK    1  A    between atoms: C_1  and  C_2
REMARK    2  A    between atoms: C_2  and  C_3
REMARK    3  A    between atoms: C_2  and  C_4
REMARK    4  A    between atoms: C_4  and  C_5
REMARK    5  A    between atoms: C_5  and  C_6
REMARK    6  A    between atoms: C_5  and  C_16
REMARK    7  A    between atoms: C_5  and  C_19
REMARK    8  A    between atoms: C_6  and  C_7
REMARK    9  A    between atoms: C_7  and  C_8
REMARK   10  A    between atoms: C_8  and  N_9
REMARK   11  A    between atoms: N_9  and  C_10
REMARK   12  A    between atoms: N_9  and  C_13
REMARK   13  A    between atoms: C_10  and  C_11
REMARK   14  A    between atoms: C_10  and  C_12
REMARK   15  A    between atoms: C_13  and  C_14
REMARK   16  A    between atoms: C_13  and  C_15
REMARK                            x       y       z     vdW  Elec       q    Type
REMARK                         _______ _______ _______ _____ _____    ______ ____
ROOT
ATOM      1  C   UNL     1       5.830   5.035  16.086  0.00  0.00    +0.000 C 
ENDROOT
BRANCH   1   2
ATOM      2  C   UNL     1       6.316   4.721  14.655  0.00  0.00    +0.000 A 
ATOM      3  C   UNL     1       5.692   3.802  13.803  0.00  0.00    +0.000 A 
ATOM      4  C   UNL     1       6.207   3.590  12.523  0.00  0.00    +0.000 A 
ATOM      5  C   UNL     1       7.344   4.269  12.114  0.00  0.00    +0.000 A 
ATOM      6  C   UNL     1       7.901   5.169  12.997  0.00  0.00    +0.000 A 
ATOM      7  N   UNL     1       7.393   5.427  14.222  0.00  0.00    +0.000 NA
ENDBRANCH   1   2
BRANCH   1   8
ATOM      8  C   UNL     1       5.006   6.345  16.124  0.00  0.00    +0.000 C 
ATOM      9  N   UNL     1       5.055   7.174  15.038  0.00  0.00    +0.000 N 
ATOM     10  O   UNL     1       4.215   6.627  17.027  0.00  0.00    +0.000 OA
ATOM     11  H   UNL     1       5.950   7.239  14.562  0.00  0.00    +0.000 HD
ATOM     12  H   UNL     1       4.588   8.059  15.190  0.00  0.00    +0.000 HD
ENDBRANCH   1   8
BRANCH   1  13
ATOM     13  C   UNL     1       7.080   5.130  17.042  0.00  0.00    +0.000 C 
BRANCH  13  15
ATOM     14  C   UNL     1       7.927   5.774  19.401  0.00  0.00    +0.000 C 
ATOM     15  C   UNL     1       7.155   6.214  18.156  0.00  0.00    +0.000 C 
ATOM     16  C   UNL     1       7.821   7.479  17.592  0.00  0.00    +0.000 C 
ENDBRANCH  13  15
ENDBRANCH   1  13
BRANCH   1  17
ATOM     17  C   UNL     1       4.846   3.916  16.628  0.00  0.00    +0.000 C 
BRANCH  17  18
ATOM     18  C   UNL     1       5.091   3.470  18.080  0.00  0.00    +0.000 C 
BRANCH  18  19
ATOM     19  C   UNL     1       4.245   4.158  19.160  0.00  0.00    +0.000 C 
BRANCH  19  20
ATOM     20  N   UNL     1       2.869   3.713  19.497  0.00  0.00    +0.000 NA
BRANCH  20  21
ATOM     21  C   UNL     1       2.032   3.319  18.312  0.00  0.00    +0.000 C 
ATOM     22  C   UNL     1       0.857   2.392  18.701  0.00  0.00    +0.000 C 
ATOM     23  C   UNL     1       1.384   4.482  17.541  0.00  0.00    +0.000 C 
ENDBRANCH  20  21
BRANCH  20  24
ATOM     24  C   UNL     1       2.944   2.599  20.513  0.00  0.00    +0.000 C 
ATOM     25  C   UNL     1       4.357   2.045  20.773  0.00  0.00    +0.000 C 
ATOM     26  C   UNL     1       2.273   2.937  21.860  0.00  0.00    +0.000 C 
ENDBRANCH  20  24
ENDBRANCH  19  20
ENDBRANCH  18  19
ENDBRANCH  17  18
ENDBRANCH   1  17
TORSDOF 10
ENDMDL
MODEL 2
REMARK VINA RESULT:      -6.7      1.016      1.997
REMARK  Name = 
REMARK  16 active torsions:
REMARK  status: ('A' for Active; 'I' for Inactive)
REMARK    1  A    between atoms: C_1  and  C_2
REMARK    2  A    between atoms: C_2  and  C_3
REMARK    3  A    between atoms: C_2  and  C_4
REMARK    4  A    between atoms: C_4  and  C_5
REMARK    5  A    between atoms: C_5  and  C_6
REMARK    6  A    between atoms: C_5  and  C_16
REMARK    7  A    between atoms: C_5  and  C_19
REMARK    8  A    between atoms: C_6  and  C_7
REMARK    9  A    between atoms: C_7  and  C_8
REMARK   10  A    between atoms: C_8  and  N_9
REMARK   11  A    between atoms: N_9  and  C_10
REMARK   12  A    between atoms: N_9  and  C_13
REMARK   13  A    between atoms: C_10  and  C_11
REMARK   14  A    between atoms: C_10  and  C_12
REMARK   15  A    between atoms: C_13  and  C_14
REMARK   16  A    between atoms: C_13  and  C_15
REMARK                            x       y       z     vdW  Elec       q    Type
REMARK                         _______ _______ _______ _____ _____    ______ ____
ROOT
ATOM      1  C   UNL     1       5.825   5.098  15.994  0.00  0.00    +0.000 C 
ENDROOT
BRANCH   1   2
ATOM      2  C   UNL     1       6.325   4.751  14.576  0.00  0.00    +0.000 A 
ATOM      3  C   UNL     1       5.686   3.841  13.723  0.00  0.00    +0.000 A 
ATOM      4  C   UNL     1       6.217   3.597  12.455  0.00  0.00    +0.000 A 
ATOM      5  C   UNL     1       7.383   4.233  12.059  0.00  0.00    +0.000 A 
ATOM      6  C   UNL     1       7.953   5.125  12.941  0.00  0.00    +0.000 A 
ATOM      7  N   UNL     1       7.433   5.415  14.153  0.00  0.00    +0.000 NA
ENDBRANCH   1   2
BRANCH   1   8
ATOM      8  C   UNL     1       5.027   6.424  15.997  0.00  0.00    +0.000 C 
ATOM      9  N   UNL     1       4.329   6.758  17.125  0.00  0.00    +0.000 N 
ATOM     10  O   UNL     1       5.079   7.254  15.088  0.00  0.00    +0.000 OA
ATOM     11  H   UNL     1       3.896   5.990  17.629  0.00  0.00    +0.000 HD
ATOM     12  H   UNL     1       3.742   7.573  17.003  0.00  0.00    +0.000 HD
ENDBRANCH   1   8
BRANCH   1  13
ATOM     13  C   UNL     1       7.064   5.185  16.966  0.00  0.00    +0.000 C 
BRANCH  13  15
ATOM     14  C   UNL     1       7.838   5.784  19.361  0.00  0.00    +0.000 C 
ATOM     15  C   UNL     1       7.120   6.254  18.095  0.00  0.00    +0.000 C 
ATOM     16  C   UNL     1       7.831   7.513  17.571  0.00  0.00    +0.000 C 
ENDBRANCH  13  15
ENDBRANCH   1  13
BRANCH   1  17
ATOM     17  C   UNL     1       4.813   4.008  16.540  0.00  0.00    +0.000 C 
BRANCH  17  18
ATOM     18  C   UNL     1       4.964   3.654  18.030  0.00  0.00    +0.000 C 
BRANCH  18  19
ATOM     19  C   UNL     1       3.913   2.704  18.619  0.00  0.00    +0.000 C 
BRANCH  19  20
ATOM     20  N   UNL     1       2.686   3.196  19.295  0.00  0.00    +0.000 NA
BRANCH  20  21
ATOM     21  C   UNL     1       2.700   3.061  20.792  0.00  0.00    +0.000 C 
ATOM     22  C   UNL     1       1.335   2.605  21.357  0.00  0.00    +0.000 C 
ATOM     23  C   UNL     1       3.720   2.059  21.358  0.00  0.00    +0.000 C 
ENDBRANCH  20  21
BRANCH  20  24
ATOM     24  C   UNL     1       2.427   4.623  18.874  0.00  0.00    +0.000 C 
ATOM     25  C   UNL     1       1.370   4.796  17.767  0.00  0.00    +0.000 C 
ATOM     26  C   UNL     1       2.097   5.569  20.046  0.00  0.00    +0.000 C 
ENDBRANCH  20  24
ENDBRANCH  19  20
ENDBRANCH  18  19
ENDBRANCH  17  18
ENDBRANCH   1  17
TORSDOF 10
ENDMDL
MODEL 3
REMARK VINA RESULT:      -6.7      2.534      4.392
REMARK  Name = 
REMARK  16 active torsions:
REMARK  status: ('A' for Active; 'I' for Inactive)
REMARK    1  A    between atoms: C_1  and  C_2
REMARK    2  A    between atoms: C_2  and  C_3
REMARK    3  A    between atoms: C_2  and  C_4
REMARK    4  A    between atoms: C_4  and  C_5
REMARK    5  A    between atoms: C_5  and  C_6
REMARK    6  A    between atoms: C_5  and  C_16
REMARK    7  A    between atoms: C_5  and  C_19
REMARK    8  A    between atoms: C_6  and  C_7
REMARK    9  A    between atoms: C_7  and  C_8
REMARK   10  A    between atoms: C_8  and  N_9
REMARK   11  A    between atoms: N_9  and  C_10
REMARK   12  A    between atoms: N_9  and  C_13
REMARK   13  A    between atoms: C_10  and  C_11
REMARK   14  A    between atoms: C_10  and  C_12
REMARK   15  A    between atoms: C_13  and  C_14
REMARK   16  A    between atoms: C_13  and  C_15
REMARK                            x       y       z     vdW  Elec       q    Type
REMARK                         _______ _______ _______ _____ _____    ______ ____
ROOT
ATOM      1  C   UNL     1       5.144   5.205  17.192  0.00  0.00    +0.000 C 
ENDROOT
BRANCH   1   2
ATOM      2  C   UNL     1       4.326   3.985  17.665  0.00  0.00    +0.000 A 
ATOM      3  C   UNL     1       3.201   3.491  16.994  0.00  0.00    +0.000 A 
ATOM      4  C   UNL     1       2.529   2.377  17.502  0.00  0.00    +0.000 A 
ATOM      5  C   UNL     1       2.964   1.785  18.677  0.00  0.00    +0.000 A 
ATOM      6  C   UNL     1       4.086   2.312  19.280  0.00  0.00    +0.000 A 
ATOM      7  N   UNL     1       4.780   3.358  18.782  0.00  0.00    +0.000 NA
ENDBRANCH   1   2
BRANCH   1   8
ATOM      8  C   UNL     1       6.060   4.838  15.999  0.00  0.00    +0.000 C 
ATOM      9  N   UNL     1       6.480   3.542  15.879  0.00  0.00    +0.000 N 
ATOM     10  O   UNL     1       6.336   5.618  15.086  0.00  0.00    +0.000 OA
ATOM     11  H   UNL     1       6.681   3.052  16.745  0.00  0.00    +0.000 HD
ATOM     12  H   UNL     1       7.167   3.413  15.147  0.00  0.00    +0.000 HD
ENDBRANCH   1   8
BRANCH   1  13
ATOM     13  C   UNL     1       5.992   5.753  18.403  0.00  0.00    +0.000 C 
BRANCH  13  15
ATOM     14  C   UNL     1       7.752   7.564  17.835  0.00  0.00    +0.000 C 
ATOM     15  C   UNL     1       7.497   6.108  18.230  0.00  0.00    +0.000 C 
ATOM     16  C   UNL     1       8.242   5.824  19.544  0.00  0.00    +0.000 C 
ENDBRANCH  13  15
ENDBRANCH   1  13
BRANCH   1  17
ATOM     17  C   UNL     1       4.207   6.361  16.648  0.00  0.00    +0.000 C 
BRANCH  17  18
ATOM     18  C   UNL     1       3.672   7.333  17.715  0.00  0.00    +0.000 C 
BRANCH  18  19
ATOM     19  C   UNL     1       2.432   6.879  18.496  0.00  0.00    +0.000 C 
BRANCH  19  20
ATOM     20  N   UNL     1       2.351   6.959  19.977  0.00  0.00    +0.000 NA
BRANCH  20  21
ATOM     21  C   UNL     1       1.683   8.199  20.501  0.00  0.00    +0.000 C 
ATOM     22  C   UNL     1       1.210   9.139  19.369  0.00  0.00    +0.000 C 
ATOM     23  C   UNL     1       0.436   7.964  21.371  0.00  0.00    +0.000 C 
ENDBRANCH  20  21
BRANCH  20  24
ATOM     24  C   UNL     1       1.685   5.711  20.505  0.00  0.00    +0.000 C 
ATOM     25  C   UNL     1       0.983   4.846  19.441  0.00  0.00    +0.000 C 
ATOM     26  C   UNL     1       2.613   4.820  21.354  0.00  0.00    +0.000 C 
ENDBRANCH  20  24
ENDBRANCH  19  20
ENDBRANCH  18  19
ENDBRANCH  17  18
ENDBRANCH   1  17
TORSDOF 10
ENDMDL
MODEL 4
REMARK VINA RESULT:      -6.7      3.602      5.157
REMARK  Name = 
REMARK  16 active torsions:
REMARK  status: ('A' for Active; 'I' for Inactive)
REMARK    1  A    between atoms: C_1  and  C_2
REMARK    2  A    between atoms: C_2  and  C_3
REMARK    3  A    between atoms: C_2  and  C_4
REMARK    4  A    between atoms: C_4  and  C_5
REMARK    5  A    between atoms: C_5  and  C_6
REMARK    6  A    between atoms: C_5  and  C_16
REMARK    7  A    between atoms: C_5  and  C_19
REMARK    8  A    between atoms: C_6  and  C_7
REMARK    9  A    between atoms: C_7  and  C_8
REMARK   10  A    between atoms: C_8  and  N_9
REMARK   11  A    between atoms: N_9  and  C_10
REMARK   12  A    between atoms: N_9  and  C_13
REMARK   13  A    between atoms: C_10  and  C_11
REMARK   14  A    between atoms: C_10  and  C_12
REMARK   15  A    between atoms: C_13  and  C_14
REMARK   16  A    between atoms: C_13  and  C_15
REMARK                            x       y       z     vdW  Elec       q    Type
REMARK                         _______ _______ _______ _____ _____    ______ ____
ROOT
ATOM      1  C   UNL     1       4.169   5.155  17.727  0.00  0.00    +0.000 C 
ENDROOT
BRANCH   1   2
ATOM      2  C   UNL     1       5.121   4.963  16.528  0.00  0.00    +0.000 A 
ATOM      3  C   UNL     1       4.856   4.111  15.449  0.00  0.00    +0.000 A 
ATOM      4  C   UNL     1       5.781   4.009  14.408  0.00  0.00    +0.000 A 
ATOM      5  C   UNL     1       6.964   4.729  14.462  0.00  0.00    +0.000 A 
ATOM      6  C   UNL     1       7.156   5.559  15.546  0.00  0.00    +0.000 A 
ATOM      7  N   UNL     1       6.255   5.711  16.541  0.00  0.00    +0.000 NA
ENDBRANCH   1   2
BRANCH   1   8
ATOM      8  C   UNL     1       4.860   4.776  19.059  0.00  0.00    +0.000 C 
ATOM      9  N   UNL     1       5.958   3.962  19.011  0.00  0.00    +0.000 N 
ATOM     10  O   UNL     1       4.552   5.260  20.150  0.00  0.00    +0.000 OA
ATOM     11  H   UNL     1       5.945   3.231  18.307  0.00  0.00    +0.000 HD
ATOM     12  H   UNL     1       6.275   3.667  19.926  0.00  0.00    +0.000 HD
ENDBRANCH   1   8
BRANCH   1  13
ATOM     13  C   UNL     1       2.875   4.282  17.498  0.00  0.00    +0.000 C 
BRANCH  13  15
ATOM     14  C   UNL     1       0.999   2.881  18.599  0.00  0.00    +0.000 C 
ATOM     15  C   UNL     1       2.502   3.132  18.477  0.00  0.00    +0.000 C 
ATOM     16  C   UNL     1       3.177   1.830  18.014  0.00  0.00    +0.000 C 
ENDBRANCH  13  15
ENDBRANCH   1  13
BRANCH   1  17
ATOM     17  C   UNL     1       3.747   6.672  17.902  0.00  0.00    +0.000 C 
BRANCH  17  18
ATOM     18  C   UNL     1       2.278   6.908  18.297  0.00  0.00    +0.000 C 
BRANCH  18  19
ATOM     19  C   UNL     1       2.035   7.688  19.596  0.00  0.00    +0.000 C 
BRANCH  19  20
ATOM     20  N   UNL     1       1.677   9.129  19.604  0.00  0.00    +0.000 NA
BRANCH  20  21
ATOM     21  C   UNL     1       1.414   9.716  18.245  0.00  0.00    +0.000 C 
ATOM     22  C   UNL     1      -0.095   9.883  17.955  0.00  0.00    +0.000 C 
ATOM     23  C   UNL     1       2.026  11.104  17.992  0.00  0.00    +0.000 C 
ENDBRANCH  20  21
BRANCH  20  24
ATOM     24  C   UNL     1       0.504   9.342  20.531  0.00  0.00    +0.000 C 
ATOM     25  C   UNL     1       0.144   8.135  21.418  0.00  0.00    +0.000 C 
ATOM     26  C   UNL     1       0.625  10.603  21.410  0.00  0.00    +0.000 C 
ENDBRANCH  20  24
ENDBRANCH  19  20
ENDBRANCH  18  19
ENDBRANCH  17  18
ENDBRANCH   1  17
TORSDOF 10
ENDMDL
MODEL 5
REMARK VINA RESULT:      -6.7      3.433      5.370
REMARK  Name = 
REMARK  16 active torsions:
REMARK  status: ('A' for Active; 'I' for Inactive)
REMARK    1  A    between atoms: C_1  and  C_2
REMARK    2  A    between atoms: C_2  and  C_3
REMARK    3  A    between atoms: C_2  and  C_4
REMARK    4  A    between atoms: C_4  and  C_5
REMARK    5  A    between atoms: C_5  and  C_6
REMARK    6  A    between atoms: C_5  and  C_16
REMARK    7  A    between atoms: C_5  and  C_19
REMARK    8  A    between atoms: C_6  and  C_7
REMARK    9  A    between atoms: C_7  and  C_8
REMARK   10  A    between atoms: C_8  and  N_9
REMARK   11  A    between atoms: N_9  and  C_10
REMARK   12  A    between atoms: N_9  and  C_13
REMARK   13  A    between atoms: C_10  and  C_11
REMARK   14  A    between atoms: C_10  and  C_12
REMARK   15  A    between atoms: C_13  and  C_14
REMARK   16  A    between atoms: C_13  and  C_15
REMARK                            x       y       z     vdW  Elec       q    Type
REMARK                         _______ _______ _______ _____ _____    ______ ____
ROOT
ATOM      1  C   UNL     1       4.675   5.186  17.533  0.00  0.00    +0.000 C 
ENDROOT
BRANCH   1   2
ATOM      2  C   UNL     1       3.742   4.135  18.172  0.00  0.00    +0.000 A 
ATOM      3  C   UNL     1       3.591   3.962  19.553  0.00  0.00    +0.000 A 
ATOM      4  C   UNL     1       2.718   2.984  20.033  0.00  0.00    +0.000 A 
ATOM      5  C   UNL     1       2.028   2.176  19.143  0.00  0.00    +0.000 A 
ATOM      6  C   UNL     1       2.213   2.408  17.797  0.00  0.00    +0.000 A 
ATOM      7  N   UNL     1       3.015   3.379  17.309  0.00  0.00    +0.000 NA
ENDBRANCH   1   2
BRANCH   1   8
ATOM      8  C   UNL     1       5.350   4.634  16.255  0.00  0.00    +0.000 C 
ATOM      9  N   UNL     1       5.781   3.336  16.258  0.00  0.00    +0.000 N 
ATOM     10  O   UNL     1       5.414   5.258  15.194  0.00  0.00    +0.000 OA
ATOM     11  H   UNL     1       6.165   2.992  17.133  0.00  0.00    +0.000 HD
ATOM     12  H   UNL     1       6.315   3.092  15.434  0.00  0.00    +0.000 HD
ENDBRANCH   1   8
BRANCH   1  13
ATOM     13  C   UNL     1       5.755   5.624  18.595  0.00  0.00    +0.000 C 
BRANCH  13  15
ATOM     14  C   UNL     1       7.452   7.275  17.552  0.00  0.00    +0.000 C 
ATOM     15  C   UNL     1       7.228   5.895  18.172  0.00  0.00    +0.000 C 
ATOM     16  C   UNL     1       8.144   5.759  19.399  0.00  0.00    +0.000 C 
ENDBRANCH  13  15
ENDBRANCH   1  13
BRANCH   1  17
ATOM     17  C   UNL     1       3.871   6.465  17.053  0.00  0.00    +0.000 C 
BRANCH  17  18
ATOM     18  C   UNL     1       3.605   7.523  18.138  0.00  0.00    +0.000 C 
BRANCH  18  19
ATOM     19  C   UNL     1       2.139   7.910  18.374  0.00  0.00    +0.000 C 
BRANCH  19  20
ATOM     20  N   UNL     1       1.743   8.998  19.304  0.00  0.00    +0.000 NA
BRANCH  20  21
ATOM     21  C   UNL     1       0.849  10.044  18.699  0.00  0.00    +0.000 C 
ATOM     22  C   UNL     1      -0.570  10.036  19.313  0.00  0.00    +0.000 C 
ATOM     23  C   UNL     1       1.337  11.496  18.840  0.00  0.00    +0.000 C 
ENDBRANCH  20  21
BRANCH  20  24
ATOM     24  C   UNL     1       1.122   8.391  20.539  0.00  0.00    +0.000 C 
ATOM     25  C   UNL     1       1.411   6.892  20.747  0.00  0.00    +0.000 C 
ATOM     26  C   UNL     1       1.441   9.156  21.839  0.00  0.00    +0.000 C 
ENDBRANCH  20  24
ENDBRANCH  19  20
ENDBRANCH  18  19
ENDBRANCH  17  18
ENDBRANCH   1  17
TORSDOF 10
ENDMDL
MODEL 6
REMARK VINA RESULT:      -6.6      3.510      5.422
REMARK  Name = 
REMARK  16 active torsions:
REMARK  status: ('A' for Active; 'I' for Inactive)
REMARK    1  A    between atoms: C_1  and  C_2
REMARK    2  A    between atoms: C_2  and  C_3
REMARK    3  A    between atoms: C_2  and  C_4
REMARK    4  A    between atoms: C_4  and  C_5
REMARK    5  A    between atoms: C_5  and  C_6
REMARK    6  A    between atoms: C_5  and  C_16
REMARK    7  A    between atoms: C_5  and  C_19
REMARK    8  A    between atoms: C_6  and  C_7
REMARK    9  A    between atoms: C_7  and  C_8
REMARK   10  A    between atoms: C_8  and  N_9
REMARK   11  A    between atoms: N_9  and  C_10
REMARK   12  A    between atoms: N_9  and  C_13
REMARK   13  A    between atoms: C_10  and  C_11
REMARK   14  A    between atoms: C_10  and  C_12
REMARK   15  A    between atoms: C_13  and  C_14
REMARK   16  A    between atoms: C_13  and  C_15
REMARK                            x       y       z     vdW  Elec       q    Type
REMARK                         _______ _______ _______ _____ _____    ______ ____
ROOT
ATOM      1  C   UNL     1       4.615   5.632  17.418  0.00  0.00    +0.000 C 
ENDROOT
BRANCH   1   2
ATOM      2  C   UNL     1       4.027   4.265  17.827  0.00  0.00    +0.000 A 
ATOM      3  C   UNL     1       2.947   3.653  17.178  0.00  0.00    +0.000 A 
ATOM      4  C   UNL     1       2.490   2.411  17.622  0.00  0.00    +0.000 A 
ATOM      5  C   UNL     1       3.088   1.805  18.716  0.00  0.00    +0.000 A 
ATOM      6  C   UNL     1       4.155   2.454  19.300  0.00  0.00    +0.000 A 
ATOM      7  N   UNL     1       4.645   3.633  18.859  0.00  0.00    +0.000 NA
ENDBRANCH   1   2
BRANCH   1   8
ATOM      8  C   UNL     1       5.232   5.576  16.000  0.00  0.00    +0.000 C 
ATOM      9  N   UNL     1       5.683   4.371  15.536  0.00  0.00    +0.000 N 
ATOM     10  O   UNL     1       5.231   6.529  15.218  0.00  0.00    +0.000 OA
ATOM     11  H   UNL     1       6.117   3.760  16.221  0.00  0.00    +0.000 HD
ATOM     12  H   UNL     1       6.177   4.444  14.656  0.00  0.00    +0.000 HD
ENDBRANCH   1   8
BRANCH   1  13
ATOM     13  C   UNL     1       5.694   6.063  18.484  0.00  0.00    +0.000 C 
BRANCH  13  15
ATOM     14  C   UNL     1       7.641   7.559  17.666  0.00  0.00    +0.000 C 
ATOM     15  C   UNL     1       7.200   6.162  18.102  0.00  0.00    +0.000 C 
ATOM     16  C   UNL     1       8.059   5.733  19.303  0.00  0.00    +0.000 C 
ENDBRANCH  13  15
ENDBRANCH   1  13
BRANCH   1  17
ATOM     17  C   UNL     1       3.493   6.748  17.335  0.00  0.00    +0.000 C 
BRANCH  17  18
ATOM     18  C   UNL     1       2.459   6.731  18.474  0.00  0.00    +0.000 C 
BRANCH  18  19
ATOM     19  C   UNL     1       2.363   8.000  19.332  0.00  0.00    +0.000 C 
BRANCH  19  20
ATOM     20  N   UNL     1       1.065   8.643  19.660  0.00  0.00    +0.000 NA
BRANCH  20  21
ATOM     21  C   UNL     1       0.876   8.961  21.117  0.00  0.00    +0.000 C 
ATOM     22  C   UNL     1       0.798  10.482  21.384  0.00  0.00    +0.000 C 
ATOM     23  C   UNL     1      -0.392   8.377  21.764  0.00  0.00    +0.000 C 
ENDBRANCH  20  21
BRANCH  20  24
ATOM     24  C   UNL     1       0.891   9.872  18.801  0.00  0.00    +0.000 C 
ATOM     25  C   UNL     1       2.103  10.232  17.921  0.00  0.00    +0.000 C 
ATOM     26  C   UNL     1      -0.382   9.850  17.931  0.00  0.00    +0.000 C 
ENDBRANCH  20  24
ENDBRANCH  19  20
ENDBRANCH  18  19
ENDBRANCH  17  18
ENDBRANCH   1  17
TORSDOF 10
ENDMDL
MODEL 7
REMARK VINA RESULT:      -6.6      1.088      1.767
REMARK  Name = 
REMARK  16 active torsions:
REMARK  status: ('A' for Active; 'I' for Inactive)
REMARK    1  A    between atoms: C_1  and  C_2
REMARK    2  A    between atoms: C_2  and  C_3
REMARK    3  A    between atoms: C_2  and  C_4
REMARK    4  A    between atoms: C_4  and  C_5
REMARK    5  A    between atoms: C_5  and  C_6
REMARK    6  A    between atoms: C_5  and  C_16
REMARK    7  A    between atoms: C_5  and  C_19
REMARK    8  A    between atoms: C_6  and  C_7
REMARK    9  A    between atoms: C_7  and  C_8
REMARK   10  A    between atoms: C_8  and  N_9
REMARK   11  A    between atoms: N_9  and  C_10
REMARK   12  A    between atoms: N_9  and  C_13
REMARK   13  A    between atoms: C_10  and  C_11
REMARK   14  A    between atoms: C_10  and  C_12
REMARK   15  A    between atoms: C_13  and  C_14
REMARK   16  A    between atoms: C_13  and  C_15
REMARK                            x       y       z     vdW  Elec       q    Type
REMARK                         _______ _______ _______ _____ _____    ______ ____
ROOT
ATOM      1  C   UNL     1       6.102   5.422  16.075  0.00  0.00    +0.000 C 
ENDROOT
BRANCH   1   2
ATOM      2  C   UNL     1       6.443   4.891  14.667  0.00  0.00    +0.000 A 
ATOM      3  C   UNL     1       5.719   3.885  14.014  0.00  0.00    +0.000 A 
ATOM      4  C   UNL     1       6.106   3.476  12.737  0.00  0.00    +0.000 A 
ATOM      5  C   UNL     1       7.216   4.047  12.135  0.00  0.00    +0.000 A 
ATOM      6  C   UNL     1       7.876   5.041  12.825  0.00  0.00    +0.000 A 
ATOM      7  N   UNL     1       7.492   5.487  14.041  0.00  0.00    +0.000 NA
ENDBRANCH   1   2
BRANCH   1   8
ATOM      8  C   UNL     1       5.094   6.595  16.004  0.00  0.00    +0.000 C 
ATOM      9  N   UNL     1       4.816   7.137  14.780  0.00  0.00    +0.000 N 
ATOM     10  O   UNL     1       4.439   6.990  16.970  0.00  0.00    +0.000 OA
ATOM     11  H   UNL     1       5.590   7.191  14.125  0.00  0.00    +0.000 HD
ATOM     12  H   UNL     1       4.244   7.970  14.834  0.00  0.00    +0.000 HD
ENDBRANCH   1   8
BRANCH   1  13
ATOM     13  C   UNL     1       7.435   5.869  16.790  0.00  0.00    +0.000 C 
BRANCH  13  15
ATOM     14  C   UNL     1       8.022   5.780  19.308  0.00  0.00    +0.000 C 
ATOM     15  C   UNL     1       7.400   6.588  18.169  0.00  0.00    +0.000 C 
ATOM     16  C   UNL     1       8.143   7.930  18.063  0.00  0.00    +0.000 C 
ENDBRANCH  13  15
ENDBRANCH   1  13
BRANCH   1  17
ATOM     17  C   UNL     1       5.385   4.318  16.957  0.00  0.00    +0.000 C 
BRANCH  17  18
ATOM     18  C   UNL     1       3.934   3.994  16.559  0.00  0.00    +0.000 C 
BRANCH  18  19
ATOM     19  C   UNL     1       2.862   4.219  17.634  0.00  0.00    +0.000 C 
BRANCH  19  20
ATOM     20  N   UNL     1       2.729   3.336  18.821  0.00  0.00    +0.000 NA
BRANCH  20  21
ATOM     21  C   UNL     1       3.909   2.439  19.070  0.00  0.00    +0.000 C 
ATOM     22  C   UNL     1       4.258   2.324  20.571  0.00  0.00    +0.000 C 
ATOM     23  C   UNL     1       3.752   0.987  18.584  0.00  0.00    +0.000 C 
ENDBRANCH  20  21
BRANCH  20  24
ATOM     24  C   UNL     1       2.415   4.180  20.032  0.00  0.00    +0.000 C 
ATOM     25  C   UNL     1       2.610   5.696  19.841  0.00  0.00    +0.000 C 
ATOM     26  C   UNL     1       1.018   3.919  20.631  0.00  0.00    +0.000 C 
ENDBRANCH  20  24
ENDBRANCH  19  20
ENDBRANCH  18  19
ENDBRANCH  17  18
ENDBRANCH   1  17
TORSDOF 10
ENDMDL
MODEL 8
REMARK VINA RESULT:      -6.6      1.324      1.851
REMARK  Name = 
REMARK  16 active torsions:
REMARK  status: ('A' for Active; 'I' for Inactive)
REMARK    1  A    between atoms: C_1  and  C_2
REMARK    2  A    between atoms: C_2  and  C_3
REMARK    3  A    between atoms: C_2  and  C_4
REMARK    4  A    between atoms: C_4  and  C_5
REMARK    5  A    between atoms: C_5  and  C_6
REMARK    6  A    between atoms: C_5  and  C_16
REMARK    7  A    between atoms: C_5  and  C_19
REMARK    8  A    between atoms: C_6  and  C_7
REMARK    9  A    between atoms: C_7  and  C_8
REMARK   10  A    between atoms: C_8  and  N_9
REMARK   11  A    between atoms: N_9  and  C_10
REMARK   12  A    between atoms: N_9  and  C_13
REMARK   13  A    between atoms: C_10  and  C_11
REMARK   14  A    between atoms: C_10  and  C_12
REMARK   15  A    between atoms: C_13  and  C_14
REMARK   16  A    between atoms: C_13  and  C_15
REMARK                            x       y       z     vdW  Elec       q    Type
REMARK                         _______ _______ _______ _____ _____    ______ ____
ROOT
ATOM      1  C   UNL     1       5.907   5.304  15.983  0.00  0.00    +0.000 C 
ENDROOT
BRANCH   1   2
ATOM      2  C   UNL     1       6.284   4.807  14.571  0.00  0.00    +0.000 A 
ATOM      3  C   UNL     1       7.433   5.213  13.881  0.00  0.00    +0.000 A 
ATOM      4  C   UNL     1       7.687   4.702  12.607  0.00  0.00    +0.000 A 
ATOM      5  C   UNL     1       6.791   3.820  12.024  0.00  0.00    +0.000 A 
ATOM      6  C   UNL     1       5.687   3.452  12.763  0.00  0.00    +0.000 A 
ATOM      7  N   UNL     1       5.444   3.895  14.015  0.00  0.00    +0.000 NA
ENDBRANCH   1   2
BRANCH   1   8
ATOM      8  C   UNL     1       5.007   6.562  15.913  0.00  0.00    +0.000 C 
ATOM      9  N   UNL     1       4.263   6.888  17.012  0.00  0.00    +0.000 N 
ATOM     10  O   UNL     1       5.012   7.352  14.967  0.00  0.00    +0.000 OA
ATOM     11  H   UNL     1       3.881   6.112  17.544  0.00  0.00    +0.000 HD
ATOM     12  H   UNL     1       3.616   7.648  16.844  0.00  0.00    +0.000 HD
ENDBRANCH   1   8
BRANCH   1  13
ATOM     13  C   UNL     1       7.229   5.604  16.789  0.00  0.00    +0.000 C 
BRANCH  13  15
ATOM     14  C   UNL     1       8.021   6.131  19.196  0.00  0.00    +0.000 C 
ATOM     15  C   UNL     1       7.230   6.609  17.977  0.00  0.00    +0.000 C 
ATOM     16  C   UNL     1       7.821   7.949  17.510  0.00  0.00    +0.000 C 
ENDBRANCH  13  15
ENDBRANCH   1  13
BRANCH   1  17
ATOM     17  C   UNL     1       5.050   4.229  16.771  0.00  0.00    +0.000 C 
BRANCH  17  18
ATOM     18  C   UNL     1       5.515   3.941  18.210  0.00  0.00    +0.000 C 
BRANCH  18  19
ATOM     19  C   UNL     1       4.443   4.018  19.305  0.00  0.00    +0.000 C 
BRANCH  19  20
ATOM     20  N   UNL     1       2.998   3.832  19.018  0.00  0.00    +0.000 NA
BRANCH  20  21
ATOM     21  C   UNL     1       2.518   2.411  19.115  0.00  0.00    +0.000 C 
ATOM     22  C   UNL     1       1.064   2.243  18.619  0.00  0.00    +0.000 C 
ATOM     23  C   UNL     1       3.334   1.379  18.318  0.00  0.00    +0.000 C 
ENDBRANCH  20  21
BRANCH  20  24
ATOM     24  C   UNL     1       2.194   4.746  19.912  0.00  0.00    +0.000 C 
ATOM     25  C   UNL     1       2.175   4.352  21.401  0.00  0.00    +0.000 C 
ATOM     26  C   UNL     1       2.573   6.235  19.784  0.00  0.00    +0.000 C 
ENDBRANCH  20  24
ENDBRANCH  19  20
ENDBRANCH  18  19
ENDBRANCH  17  18
ENDBRANCH   1  17
TORSDOF 10
ENDMDL
MODEL 9
REMARK VINA RESULT:      -6.5      3.602      5.263
REMARK  Name = 
REMARK  16 active torsions:
REMARK  status: ('A' for Active; 'I' for Inactive)
REMARK    1  A    between atoms: C_1  and  C_2
REMARK    2  A    between atoms: C_2  and  C_3
REMARK    3  A    between atoms: C_2  and  C_4
REMARK    4  A    between atoms: C_4  and  C_5
REMARK    5  A    between atoms: C_5  and  C_6
REMARK    6  A    between atoms: C_5  and  C_16
REMARK    7  A    between atoms: C_5  and  C_19
REMARK    8  A    between atoms: C_6  and  C_7
REMARK    9  A    between atoms: C_7  and  C_8
REMARK   10  A    between atoms: C_8  and  N_9
REMARK   11  A    between atoms: N_9  and  C_10
REMARK   12  A    between atoms: N_9  and  C_13
REMARK   13  A    between atoms: C_10  and  C_11
REMARK   14  A    between atoms: C_10  and  C_12
REMARK   15  A    between atoms: C_13  and  C_14
REMARK   16  A    between atoms: C_13  and  C_15
REMARK                            x       y       z     vdW  Elec       q    Type
REMARK                         _______ _______ _______ _____ _____    ______ ____
ROOT
ATOM      1  C   UNL     1       4.636   5.525  17.600  0.00  0.00    +0.000 C 
ENDROOT
BRANCH   1   2
ATOM      2  C   UNL     1       3.953   4.188  17.956  0.00  0.00    +0.000 A 
ATOM      3  C   UNL     1       2.752   3.748  17.384  0.00  0.00    +0.000 A 
ATOM      4  C   UNL     1       2.215   2.519  17.771  0.00  0.00    +0.000 A 
ATOM      5  C   UNL     1       2.856   1.756  18.734  0.00  0.00    +0.000 A 
ATOM      6  C   UNL     1       4.040   2.241  19.246  0.00  0.00    +0.000 A 
ATOM      7  N   UNL     1       4.605   3.404  18.854  0.00  0.00    +0.000 NA
ENDBRANCH   1   2
BRANCH   1   8
ATOM      8  C   UNL     1       5.244   5.483  16.177  0.00  0.00    +0.000 C 
ATOM      9  N   UNL     1       5.731   4.292  15.715  0.00  0.00    +0.000 N 
ATOM     10  O   UNL     1       5.208   6.432  15.393  0.00  0.00    +0.000 OA
ATOM     11  H   UNL     1       6.188   3.697  16.399  0.00  0.00    +0.000 HD
ATOM     12  H   UNL     1       6.216   4.376  14.831  0.00  0.00    +0.000 HD
ENDBRANCH   1   8
BRANCH   1  13
ATOM     13  C   UNL     1       5.746   5.834  18.677  0.00  0.00    +0.000 C 
BRANCH  13  15
ATOM     14  C   UNL     1       7.556   7.443  17.764  0.00  0.00    +0.000 C 
ATOM     15  C   UNL     1       7.232   6.033  18.259  0.00  0.00    +0.000 C 
ATOM     16  C   UNL     1       8.145   5.715  19.455  0.00  0.00    +0.000 C 
ENDBRANCH  13  15
ENDBRANCH   1  13
BRANCH   1  17
ATOM     17  C   UNL     1       3.598   6.721  17.568  0.00  0.00    +0.000 C 
BRANCH  17  18
ATOM     18  C   UNL     1       3.043   7.151  18.937  0.00  0.00    +0.000 C 
BRANCH  18  19
ATOM     19  C   UNL     1       1.735   7.953  18.926  0.00  0.00    +0.000 C 
BRANCH  19  20
ATOM     20  N   UNL     1       1.473   9.063  19.878  0.00  0.00    +0.000 NA
BRANCH  20  21
ATOM     21  C   UNL     1       0.472  10.076  19.399  0.00  0.00    +0.000 C 
ATOM     22  C   UNL     1       1.039  11.513  19.398  0.00  0.00    +0.000 C 
ATOM     23  C   UNL     1      -0.063   9.857  17.974  0.00  0.00    +0.000 C 
ENDBRANCH  20  21
BRANCH  20  24
ATOM     24  C   UNL     1       1.075   8.484  21.215  0.00  0.00    +0.000 C 
ATOM     25  C   UNL     1       1.693   9.182  22.440  0.00  0.00    +0.000 C 
ATOM     26  C   UNL     1      -0.449   8.363  21.413  0.00  0.00    +0.000 C 
ENDBRANCH  20  24
ENDBRANCH  19  20
ENDBRANCH  18  19
ENDBRANCH  17  18
ENDBRANCH   1  17
TORSDOF 10
ENDMDL
