MODEL 1
REMARK VINA RESULT:      -6.3      0.000      0.000
REMARK  Name = 
REMARK  8 active torsions:
REMARK  status: ('A' for Active; 'I' for Inactive)
REMARK    1  A    between atoms: C_1  and  S_2
REMARK    2  A    between atoms: S_2  and  C_3
REMARK    3  A    between atoms: C_6  and  N_7
REMARK    4  A    between atoms: N_10  and  C_11
REMARK    5  A    between atoms: C_11  and  C_12
REMARK    6  A    between atoms: C_12  and  C_13
REMARK    7  A    between atoms: C_13  and  N_14
REMARK    8  A    between atoms: C_15  and  C_16
REMARK                            x       y       z     vdW  Elec       q    Type
REMARK                         _______ _______ _______ _____ _____    ______ ____
ROOT
ATOM      1  N   UNL     1       3.271   5.728  17.629  0.00  0.00    +0.000 N 
ATOM      2  C   UNL     1       4.627   5.677  17.364  0.00  0.00    +0.000 C 
ATOM      3  O   UNL     1       5.468   6.480  17.742  0.00  0.00    +0.000 OA
ATOM      4  N   UNL     1       5.020   4.563  16.653  0.00  0.00    +0.000 N 
ATOM      5  H   UNL     1       2.697   4.969  17.300  0.00  0.00    +0.000 HD
ATOM      6  H   UNL     1       4.343   4.017  16.137  0.00  0.00    +0.000 HD
ENDROOT
BRANCH   1  10
ATOM      7  C   UNL     1       1.424   8.832  19.876  0.00  0.00    +0.000 A 
ATOM      8  C   UNL     1       1.775   7.626  20.478  0.00  0.00    +0.000 A 
ATOM      9  C   UNL     1       2.380   6.611  19.734  0.00  0.00    +0.000 A 
ATOM     10  C   UNL     1       2.642   6.766  18.367  0.00  0.00    +0.000 A 
ATOM     11  C   UNL     1       2.282   7.980  17.768  0.00  0.00    +0.000 A 
ATOM     12  C   UNL     1       1.662   9.000  18.513  0.00  0.00    +0.000 A 
BRANCH   7  14
ATOM     13  C   UNL     1       0.578   9.321  22.425  0.00  0.00    +0.000 C 
ATOM     14  S   UNL     1       0.686  10.151  20.817  0.00  0.00    +0.000 S 
ENDBRANCH   7  14
ENDBRANCH   1  10
BRANCH   4  15
ATOM     15  C   UNL     1       6.437   4.449  16.324  0.00  0.00    +0.000 C 
BRANCH  15  16
ATOM     16  C   UNL     1       6.765   4.792  14.867  0.00  0.00    +0.000 C 
BRANCH  16  17
ATOM     17  C   UNL     1       5.717   4.191  13.931  0.00  0.00    +0.000 C 
BRANCH  17  18
ATOM     18  N   UNL     1       6.249   3.144  13.077  0.00  0.00    +0.000 N 
ATOM     19  C   UNL     1       5.685   2.678  11.925  0.00  0.00    +0.000 C 
ATOM     20  C   UNL     1       6.383   1.582  11.179  0.00  0.00    +0.000 C 
ATOM     21  O   UNL     1       4.614   3.147  11.524  0.00  0.00    +0.000 OA
ATOM     22  H   UNL     1       7.136   2.718  13.331  0.00  0.00    +0.000 HD
ENDBRANCH  17  18
ENDBRANCH  16  17
ENDBRANCH  15  16
ENDBRANCH   4  15
TORSDOF 6
ENDMDL
MODEL 2
REMARK VINA RESULT:      -6.2      2.902      4.001
REMARK  Name = 
REMARK  8 active torsions:
REMARK  status: ('A' for Active; 'I' for Inactive)
REMARK    1  A    between atoms: C_1  and  S_2
REMARK    2  A    between atoms: S_2  and  C_3
REMARK    3  A    between atoms: C_6  and  N_7
REMARK    4  A    between atoms: N_10  and  C_11
REMARK    5  A    between atoms: C_11  and  C_12
REMARK    6  A    between atoms: C_12  and  C_13
REMARK    7  A    between atoms: C_13  and  N_14
REMARK    8  A    between atoms: C_15  and  C_16
REMARK                            x       y       z     vdW  Elec       q    Type
REMARK                         _______ _______ _______ _____ _____    ______ ____
ROOT
ATOM      1  N   UNL     1       2.990   6.316  19.951  0.00  0.00    +0.000 N 
ATOM      2  C   UNL     1       2.506   5.028  19.815  0.00  0.00    +0.000 C 
ATOM      3  O   UNL     1       1.395   4.713  19.413  0.00  0.00    +0.000 OA
ATOM      4  N   UNL     1       3.425   4.046  20.118  0.00  0.00    +0.000 N 
ATOM      5  H   UNL     1       3.946   6.432  20.244  0.00  0.00    +0.000 HD
ATOM      6  H   UNL     1       4.249   4.263  20.662  0.00  0.00    +0.000 HD
ENDROOT
BRANCH   1  10
ATOM      7  C   UNL     1       0.751   9.844  19.157  0.00  0.00    +0.000 A 
ATOM      8  C   UNL     1       0.759   9.274  20.428  0.00  0.00    +0.000 A 
ATOM      9  C   UNL     1       1.496   8.115  20.681  0.00  0.00    +0.000 A 
ATOM     10  C   UNL     1       2.235   7.485  19.672  0.00  0.00    +0.000 A 
ATOM     11  C   UNL     1       2.218   8.063  18.396  0.00  0.00    +0.000 A 
ATOM     12  C   UNL     1       1.467   9.224  18.135  0.00  0.00    +0.000 A 
BRANCH   7  14
ATOM     13  C   UNL     1      -1.728  10.612  18.310  0.00  0.00    +0.000 C 
ATOM     14  S   UNL     1      -0.151  11.343  18.826  0.00  0.00    +0.000 S 
ENDBRANCH   7  14
ENDBRANCH   1  10
BRANCH   4  15
ATOM     15  C   UNL     1       2.979   2.661  20.010  0.00  0.00    +0.000 C 
BRANCH  15  16
ATOM     16  C   UNL     1       3.689   1.865  18.909  0.00  0.00    +0.000 C 
BRANCH  16  17
ATOM     17  C   UNL     1       3.639   2.630  17.587  0.00  0.00    +0.000 C 
BRANCH  17  18
ATOM     18  N   UNL     1       4.950   3.041  17.116  0.00  0.00    +0.000 N 
ATOM     19  C   UNL     1       5.424   4.319  17.063  0.00  0.00    +0.000 C 
ATOM     20  C   UNL     1       6.809   4.547  16.537  0.00  0.00    +0.000 C 
ATOM     21  O   UNL     1       4.713   5.261  17.429  0.00  0.00    +0.000 OA
ATOM     22  H   UNL     1       5.600   2.321  16.810  0.00  0.00    +0.000 HD
ENDBRANCH  17  18
ENDBRANCH  16  17
ENDBRANCH  15  16
ENDBRANCH   4  15
TORSDOF 6
ENDMDL
MODEL 3
REMARK VINA RESULT:      -6.1      3.983      7.191
REMARK  Name = 
REMARK  8 active torsions:
REMARK  status: ('A' for Active; 'I' for Inactive)
REMARK    1  A    between atoms: C_1  and  S_2
REMARK    2  A    between atoms: S_2  and  C_3
REMARK    3  A    between atoms: C_6  and  N_7
REMARK    4  A    between atoms: N_10  and  C_11
REMARK    5  A    between atoms: C_11  and  C_12
REMARK    6  A    between atoms: C_12  and  C_13
REMARK    7  A    between atoms: C_13  and  N_14
REMARK    8  A    between atoms: C_15  and  C_16
REMARK                            x       y       z     vdW  Elec       q    Type
REMARK                         _______ _______ _______ _____ _____    ______ ____
ROOT
ATOM      1  N   UNL     1       4.739   5.565  18.244  0.00  0.00    +0.000 N 
ATOM      2  C   UNL     1       3.413   5.584  18.631  0.00  0.00    +0.000 C 
ATOM      3  O   UNL     1       2.454   5.272  17.939  0.00  0.00    +0.000 OA
ATOM      4  N   UNL     1       3.216   5.939  19.949  0.00  0.00    +0.000 N 
ATOM      5  H   UNL     1       5.435   5.797  18.934  0.00  0.00    +0.000 HD
ATOM      6  H   UNL     1       3.940   6.417  20.467  0.00  0.00    +0.000 HD
ENDROOT
BRANCH   1  10
ATOM      7  C   UNL     1       6.044   4.447  14.353  0.00  0.00    +0.000 A 
ATOM      8  C   UNL     1       6.012   3.518  15.390  0.00  0.00    +0.000 A 
ATOM      9  C   UNL     1       5.584   3.893  16.665  0.00  0.00    +0.000 A 
ATOM     10  C   UNL     1       5.186   5.206  16.945  0.00  0.00    +0.000 A 
ATOM     11  C   UNL     1       5.225   6.135  15.897  0.00  0.00    +0.000 A 
ATOM     12  C   UNL     1       5.668   5.763  14.615  0.00  0.00    +0.000 A 
BRANCH   7  14
ATOM     13  C   UNL     1       4.984   3.285  12.122  0.00  0.00    +0.000 C 
ATOM     14  S   UNL     1       6.551   3.979  12.712  0.00  0.00    +0.000 S 
ENDBRANCH   7  14
ENDBRANCH   1  10
BRANCH   4  15
ATOM     15  C   UNL     1       1.837   5.994  20.424  0.00  0.00    +0.000 C 
BRANCH  15  16
ATOM     16  C   UNL     1       1.224   4.619  20.708  0.00  0.00    +0.000 C 
BRANCH  16  17
ATOM     17  C   UNL     1       2.318   3.614  21.066  0.00  0.00    +0.000 C 
BRANCH  17  18
ATOM     18  N   UNL     1       2.537   2.617  20.033  0.00  0.00    +0.000 N 
ATOM     19  C   UNL     1       3.743   2.235  19.524  0.00  0.00    +0.000 C 
ATOM     20  C   UNL     1       3.767   1.187  18.452  0.00  0.00    +0.000 C 
ATOM     21  O   UNL     1       4.785   2.757  19.934  0.00  0.00    +0.000 OA
ATOM     22  H   UNL     1       1.729   2.130  19.655  0.00  0.00    +0.000 HD
ENDBRANCH  17  18
ENDBRANCH  16  17
ENDBRANCH  15  16
ENDBRANCH   4  15
TORSDOF 6
ENDMDL
MODEL 4
REMARK VINA RESULT:      -6.1      3.282      4.592
REMARK  Name = 
REMARK  8 active torsions:
REMARK  status: ('A' for Active; 'I' for Inactive)
REMARK    1  A    between atoms: C_1  and  S_2
REMARK    2  A    between atoms: S_2  and  C_3
REMARK    3  A    between atoms: C_6  and  N_7
REMARK    4  A    between atoms: N_10  and  C_11
REMARK    5  A    between atoms: C_11  and  C_12
REMARK    6  A    between atoms: C_12  and  C_13
REMARK    7  A    between atoms: C_13  and  N_14
REMARK    8  A    between atoms: C_15  and  C_16
REMARK                            x       y       z     vdW  Elec       q    Type
REMARK                         _______ _______ _______ _____ _____    ______ ____
ROOT
ATOM      1  N   UNL     1       2.610   6.095  20.418  0.00  0.00    +0.000 N 
ATOM      2  C   UNL     1       1.986   4.882  20.197  0.00  0.00    +0.000 C 
ATOM      3  O   UNL     1       0.927   4.711  19.609  0.00  0.00    +0.000 OA
ATOM      4  N   UNL     1       2.697   3.791  20.651  0.00  0.00    +0.000 N 
ATOM      5  H   UNL     1       3.509   6.087  20.871  0.00  0.00    +0.000 HD
ATOM      6  H   UNL     1       3.437   3.906  21.329  0.00  0.00    +0.000 HD
ENDROOT
BRANCH   1  10
ATOM      7  C   UNL     1       1.046   9.877  19.258  0.00  0.00    +0.000 A 
ATOM      8  C   UNL     1       0.844   9.384  20.545  0.00  0.00    +0.000 A 
ATOM      9  C   UNL     1       1.359   8.141  20.918  0.00  0.00    +0.000 A 
ATOM     10  C   UNL     1       2.080   7.349  20.016  0.00  0.00    +0.000 A 
ATOM     11  C   UNL     1       2.276   7.851  18.722  0.00  0.00    +0.000 A 
ATOM     12  C   UNL     1       1.748   9.097  18.340  0.00  0.00    +0.000 A 
BRANCH   7  14
ATOM     13  C   UNL     1       2.012  12.325  18.533  0.00  0.00    +0.000 C 
ATOM     14  S   UNL     1       0.429  11.475  18.776  0.00  0.00    +0.000 S 
ENDBRANCH   7  14
ENDBRANCH   1  10
BRANCH   4  15
ATOM     15  C   UNL     1       2.091   2.477  20.464  0.00  0.00    +0.000 C 
BRANCH  15  16
ATOM     16  C   UNL     1       2.192   1.946  19.030  0.00  0.00    +0.000 C 
BRANCH  16  17
ATOM     17  C   UNL     1       3.655   1.742  18.641  0.00  0.00    +0.000 C 
BRANCH  17  18
ATOM     18  N   UNL     1       4.123   2.699  17.654  0.00  0.00    +0.000 N 
ATOM     19  C   UNL     1       4.945   3.762  17.886  0.00  0.00    +0.000 C 
ATOM     20  C   UNL     1       5.316   4.646  16.733  0.00  0.00    +0.000 C 
ATOM     21  O   UNL     1       5.359   3.990  19.028  0.00  0.00    +0.000 OA
ATOM     22  H   UNL     1       3.839   2.570  16.686  0.00  0.00    +0.000 HD
ENDBRANCH  17  18
ENDBRANCH  16  17
ENDBRANCH  15  16
ENDBRANCH   4  15
TORSDOF 6
ENDMDL
MODEL 5
REMARK VINA RESULT:      -6.1      3.970      5.063
REMARK  Name = 
REMARK  8 active torsions:
REMARK  status: ('A' for Active; 'I' for Inactive)
REMARK    1  A    between atoms: C_1  and  S_2
REMARK    2  A    between atoms: S_2  and  C_3
REMARK    3  A    between atoms: C_6  and  N_7
REMARK    4  A    between atoms: N_10  and  C_11
REMARK    5  A    between atoms: C_11  and  C_12
REMARK    6  A    between atoms: C_12  and  C_13
REMARK    7  A    between atoms: C_13  and  N_14
REMARK    8  A    between atoms: C_15  and  C_16
REMARK                            x       y       z     vdW  Elec       q    Type
REMARK                         _______ _______ _______ _____ _____    ______ ____
ROOT
ATOM      1  N   UNL     1       2.465   6.952  20.455  0.00  0.00    +0.000 N 
ATOM      2  C   UNL     1       2.116   5.623  20.307  0.00  0.00    +0.000 C 
ATOM      3  O   UNL     1       1.097   5.198  19.781  0.00  0.00    +0.000 OA
ATOM      4  N   UNL     1       3.070   4.736  20.760  0.00  0.00    +0.000 N 
ATOM      5  H   UNL     1       3.362   7.162  20.861  0.00  0.00    +0.000 HD
ATOM      6  H   UNL     1       3.795   5.040  21.394  0.00  0.00    +0.000 HD
ENDROOT
BRANCH   1  10
ATOM      7  C   UNL     1       0.020  10.185  19.166  0.00  0.00    +0.000 A 
ATOM      8  C   UNL     1       0.954   9.609  18.308  0.00  0.00    +0.000 A 
ATOM      9  C   UNL     1       1.754   8.549  18.738  0.00  0.00    +0.000 A 
ATOM     10  C   UNL     1       1.654   8.041  20.039  0.00  0.00    +0.000 A 
ATOM     11  C   UNL     1       0.714   8.628  20.897  0.00  0.00    +0.000 A 
ATOM     12  C   UNL     1      -0.084   9.704  20.470  0.00  0.00    +0.000 A 
BRANCH   7  14
ATOM     13  C   UNL     1      -1.970  10.624  17.349  0.00  0.00    +0.000 C 
ATOM     14  S   UNL     1      -1.034  11.513  18.622  0.00  0.00    +0.000 S 
ENDBRANCH   7  14
ENDBRANCH   1  10
BRANCH   4  15
ATOM     15  C   UNL     1       2.763   3.314  20.648  0.00  0.00    +0.000 C 
BRANCH  15  16
ATOM     16  C   UNL     1       3.912   2.475  20.079  0.00  0.00    +0.000 C 
BRANCH  16  17
ATOM     17  C   UNL     1       4.443   3.106  18.793  0.00  0.00    +0.000 C 
BRANCH  17  18
ATOM     18  N   UNL     1       5.720   3.774  18.970  0.00  0.00    +0.000 N 
ATOM     19  C   UNL     1       5.947   5.116  18.887  0.00  0.00    +0.000 C 
ATOM     20  C   UNL     1       7.343   5.621  19.095  0.00  0.00    +0.000 C 
ATOM     21  O   UNL     1       5.017   5.889  18.632  0.00  0.00    +0.000 OA
ATOM     22  H   UNL     1       6.533   3.207  19.198  0.00  0.00    +0.000 HD
ENDBRANCH  17  18
ENDBRANCH  16  17
ENDBRANCH  15  16
ENDBRANCH   4  15
TORSDOF 6
ENDMDL
MODEL 6
REMARK VINA RESULT:      -6.0      3.464      4.896
REMARK  Name = 
REMARK  8 active torsions:
REMARK  status: ('A' for Active; 'I' for Inactive)
REMARK    1  A    between atoms: C_1  and  S_2
REMARK    2  A    between atoms: S_2  and  C_3
REMARK    3  A    between atoms: C_6  and  N_7
REMARK    4  A    between atoms: N_10  and  C_11
REMARK    5  A    between atoms: C_11  and  C_12
REMARK    6  A    between atoms: C_12  and  C_13
REMARK    7  A    between atoms: C_13  and  N_14
REMARK    8  A    between atoms: C_15  and  C_16
REMARK                            x       y       z     vdW  Elec       q    Type
REMARK                         _______ _______ _______ _____ _____    ______ ____
ROOT
ATOM      1  N   UNL     1       3.189   6.909  18.323  0.00  0.00    +0.000 N 
ATOM      2  C   UNL     1       2.837   5.637  17.911  0.00  0.00    +0.000 C 
ATOM      3  O   UNL     1       1.713   5.155  17.935  0.00  0.00    +0.000 OA
ATOM      4  N   UNL     1       3.879   4.909  17.378  0.00  0.00    +0.000 N 
ATOM      5  H   UNL     1       4.145   7.197  18.198  0.00  0.00    +0.000 HD
ATOM      6  H   UNL     1       4.837   5.178  17.554  0.00  0.00    +0.000 HD
ENDROOT
BRANCH   1  10
ATOM      7  C   UNL     1       0.500   9.728  20.030  0.00  0.00    +0.000 A 
ATOM      8  C   UNL     1       1.005   8.673  20.787  0.00  0.00    +0.000 A 
ATOM      9  C   UNL     1       1.886   7.751  20.219  0.00  0.00    +0.000 A 
ATOM     10  C   UNL     1       2.280   7.847  18.879  0.00  0.00    +0.000 A 
ATOM     11  C   UNL     1       1.765   8.910  18.124  0.00  0.00    +0.000 A 
ATOM     12  C   UNL     1       0.868   9.833  18.690  0.00  0.00    +0.000 A 
BRANCH   7  14
ATOM     13  C   UNL     1      -0.457  10.439  22.486  0.00  0.00    +0.000 C 
ATOM     14  S   UNL     1      -0.594  10.935  20.748  0.00  0.00    +0.000 S 
ENDBRANCH   7  14
ENDBRANCH   1  10
BRANCH   4  15
ATOM     15  C   UNL     1       3.584   3.550  16.935  0.00  0.00    +0.000 C 
BRANCH  15  16
ATOM     16  C   UNL     1       4.356   2.468  17.697  0.00  0.00    +0.000 C 
BRANCH  16  17
ATOM     17  C   UNL     1       3.388   1.562  18.457  0.00  0.00    +0.000 C 
BRANCH  17  18
ATOM     18  N   UNL     1       2.316   2.293  19.110  0.00  0.00    +0.000 N 
ATOM     19  C   UNL     1       2.303   2.720  20.406  0.00  0.00    +0.000 C 
ATOM     20  C   UNL     1       1.097   3.458  20.904  0.00  0.00    +0.000 C 
ATOM     21  O   UNL     1       3.264   2.486  21.147  0.00  0.00    +0.000 OA
ATOM     22  H   UNL     1       1.496   2.537  18.562  0.00  0.00    +0.000 HD
ENDBRANCH  17  18
ENDBRANCH  16  17
ENDBRANCH  15  16
ENDBRANCH   4  15
TORSDOF 6
ENDMDL
MODEL 7
REMARK VINA RESULT:      -5.9      2.993      3.520
REMARK  Name = 
REMARK  8 active torsions:
REMARK  status: ('A' for Active; 'I' for Inactive)
REMARK    1  A    between atoms: C_1  and  S_2
REMARK    2  A    between atoms: S_2  and  C_3
REMARK    3  A    between atoms: C_6  and  N_7
REMARK    4  A    between atoms: N_10  and  C_11
REMARK    5  A    between atoms: C_11  and  C_12
REMARK    6  A    between atoms: C_12  and  C_13
REMARK    7  A    between atoms: C_13  and  N_14
REMARK    8  A    between atoms: C_15  and  C_16
REMARK                            x       y       z     vdW  Elec       q    Type
REMARK                         _______ _______ _______ _____ _____    ______ ____
ROOT
ATOM      1  N   UNL     1       5.989   4.141  16.872  0.00  0.00    +0.000 N 
ATOM      2  C   UNL     1       6.223   4.973  15.794  0.00  0.00    +0.000 C 
ATOM      3  O   UNL     1       5.524   5.914  15.442  0.00  0.00    +0.000 OA
ATOM      4  N   UNL     1       7.398   4.709  15.123  0.00  0.00    +0.000 N 
ATOM      5  H   UNL     1       6.676   3.435  17.081  0.00  0.00    +0.000 HD
ATOM      6  H   UNL     1       7.867   3.821  15.235  0.00  0.00    +0.000 HD
ENDROOT
BRANCH   1  10
ATOM      7  C   UNL     1       2.598   4.379  19.429  0.00  0.00    +0.000 A 
ATOM      8  C   UNL     1       2.571   3.596  18.277  0.00  0.00    +0.000 A 
ATOM      9  C   UNL     1       3.687   3.524  17.442  0.00  0.00    +0.000 A 
ATOM     10  C   UNL     1       4.858   4.239  17.725  0.00  0.00    +0.000 A 
ATOM     11  C   UNL     1       4.876   5.027  18.883  0.00  0.00    +0.000 A 
ATOM     12  C   UNL     1       3.748   5.111  19.720  0.00  0.00    +0.000 A 
BRANCH   7  14
ATOM     13  C   UNL     1       1.443   2.886  21.401  0.00  0.00    +0.000 C 
ATOM     14  S   UNL     1       1.197   4.454  20.525  0.00  0.00    +0.000 S 
ENDBRANCH   7  14
ENDBRANCH   1  10
BRANCH   4  15
ATOM     15  C   UNL     1       7.704   5.541  13.964  0.00  0.00    +0.000 C 
BRANCH  15  16
ATOM     16  C   UNL     1       7.579   4.808  12.624  0.00  0.00    +0.000 C 
BRANCH  16  17
ATOM     17  C   UNL     1       6.307   3.961  12.599  0.00  0.00    +0.000 C 
BRANCH  17  18
ATOM     18  N   UNL     1       6.542   2.591  12.180  0.00  0.00    +0.000 N 
ATOM     19  C   UNL     1       5.705   1.824  11.424  0.00  0.00    +0.000 C 
ATOM     20  C   UNL     1       6.119   0.421  11.097  0.00  0.00    +0.000 C 
ATOM     21  O   UNL     1       4.625   2.281  11.034  0.00  0.00    +0.000 OA
ATOM     22  H   UNL     1       7.416   2.148  12.449  0.00  0.00    +0.000 HD
ENDBRANCH  17  18
ENDBRANCH  16  17
ENDBRANCH  15  16
ENDBRANCH   4  15
TORSDOF 6
ENDMDL
MODEL 8
REMARK VINA RESULT:      -5.9      4.130      6.785
REMARK  Name = 
REMARK  8 active torsions:
REMARK  status: ('A' for Active; 'I' for Inactive)
REMARK    1  A    between atoms: C_1  and  S_2
REMARK    2  A    between atoms: S_2  and  C_3
REMARK    3  A    between atoms: C_6  and  N_7
REMARK    4  A    between atoms: N_10  and  C_11
REMARK    5  A    between atoms: C_11  and  C_12
REMARK    6  A    between atoms: C_12  and  C_13
REMARK    7  A    between atoms: C_13  and  N_14
REMARK    8  A    between atoms: C_15  and  C_16
REMARK                            x       y       z     vdW  Elec       q    Type
REMARK                         _______ _______ _______ _____ _____    ______ ____
ROOT
ATOM      1  N   UNL     1       6.047   4.184  17.806  0.00  0.00    +0.000 N 
ATOM      2  C   UNL     1       4.695   3.902  17.775  0.00  0.00    +0.000 C 
ATOM      3  O   UNL     1       3.788   4.720  17.711  0.00  0.00    +0.000 OA
ATOM      4  N   UNL     1       4.400   2.555  17.758  0.00  0.00    +0.000 N 
ATOM      5  H   UNL     1       6.691   3.409  17.805  0.00  0.00    +0.000 HD
ATOM      6  H   UNL     1       5.091   1.874  18.040  0.00  0.00    +0.000 HD
ENDROOT
BRANCH   1  10
ATOM      7  C   UNL     1       7.721   8.094  17.796  0.00  0.00    +0.000 A 
ATOM      8  C   UNL     1       8.172   7.126  18.691  0.00  0.00    +0.000 A 
ATOM      9  C   UNL     1       7.617   5.845  18.689  0.00  0.00    +0.000 A 
ATOM     10  C   UNL     1       6.589   5.496  17.804  0.00  0.00    +0.000 A 
ATOM     11  C   UNL     1       6.139   6.477  16.910  0.00  0.00    +0.000 A 
ATOM     12  C   UNL     1       6.688   7.772  16.918  0.00  0.00    +0.000 A 
BRANCH   7  14
ATOM     13  C   UNL     1       9.115   9.768  19.442  0.00  0.00    +0.000 C 
ATOM     14  S   UNL     1       8.443   9.721  17.759  0.00  0.00    +0.000 S 
ENDBRANCH   7  14
ENDBRANCH   1  10
BRANCH   4  15
ATOM     15  C   UNL     1       2.989   2.183  17.740  0.00  0.00    +0.000 C 
BRANCH  15  16
ATOM     16  C   UNL     1       2.418   1.848  19.122  0.00  0.00    +0.000 C 
BRANCH  16  17
ATOM     17  C   UNL     1       1.115   2.612  19.356  0.00  0.00    +0.000 C 
BRANCH  17  18
ATOM     18  N   UNL     1       1.309   4.046  19.483  0.00  0.00    +0.000 N 
ATOM     19  C   UNL     1       1.790   4.701  20.578  0.00  0.00    +0.000 C 
ATOM     20  C   UNL     1       1.914   6.194  20.522  0.00  0.00    +0.000 C 
ATOM     21  O   UNL     1       2.102   4.069  21.594  0.00  0.00    +0.000 OA
ATOM     22  H   UNL     1       1.090   4.634  18.684  0.00  0.00    +0.000 HD
ENDBRANCH  17  18
ENDBRANCH  16  17
ENDBRANCH  15  16
ENDBRANCH   4  15
TORSDOF 6
ENDMDL
MODEL 9
REMARK VINA RESULT:      -5.9      5.628      8.722
REMARK  Name = 
REMARK  8 active torsions:
REMARK  status: ('A' for Active; 'I' for Inactive)
REMARK    1  A    between atoms: C_1  and  S_2
REMARK    2  A    between atoms: S_2  and  C_3
REMARK    3  A    between atoms: C_6  and  N_7
REMARK    4  A    between atoms: N_10  and  C_11
REMARK    5  A    between atoms: C_11  and  C_12
REMARK    6  A    between atoms: C_12  and  C_13
REMARK    7  A    between atoms: C_13  and  N_14
REMARK    8  A    between atoms: C_15  and  C_16
REMARK                            x       y       z     vdW  Elec       q    Type
REMARK                         _______ _______ _______ _____ _____    ______ ____
ROOT
ATOM      1  N   UNL     1       1.845   7.985  21.171  0.00  0.00    +0.000 N 
ATOM      2  C   UNL     1       0.630   8.449  21.639  0.00  0.00    +0.000 C 
ATOM      3  O   UNL     1      -0.470   7.976  21.389  0.00  0.00    +0.000 OA
ATOM      4  N   UNL     1       0.732   9.512  22.511  0.00  0.00    +0.000 N 
ATOM      5  H   UNL     1       2.682   8.438  21.500  0.00  0.00    +0.000 HD
ATOM      6  H   UNL     1       1.578  10.063  22.555  0.00  0.00    +0.000 HD
ENDROOT
BRANCH   1  10
ATOM      7  C   UNL     1       2.332   4.709  18.502  0.00  0.00    +0.000 A 
ATOM      8  C   UNL     1       2.639   6.008  18.103  0.00  0.00    +0.000 A 
ATOM      9  C   UNL     1       2.475   7.078  18.984  0.00  0.00    +0.000 A 
ATOM     10  C   UNL     1       1.990   6.886  20.283  0.00  0.00    +0.000 A 
ATOM     11  C   UNL     1       1.681   5.577  20.676  0.00  0.00    +0.000 A 
ATOM     12  C   UNL     1       1.833   4.498  19.786  0.00  0.00    +0.000 A 
BRANCH   7  14
ATOM     13  C   UNL     1       3.355   2.178  18.566  0.00  0.00    +0.000 C 
ATOM     14  S   UNL     1       2.570   3.328  17.404  0.00  0.00    +0.000 S 
ENDBRANCH   7  14
ENDBRANCH   1  10
BRANCH   4  15
ATOM     15  C   UNL     1      -0.513  10.065  23.035  0.00  0.00    +0.000 C 
BRANCH  15  16
ATOM     16  C   UNL     1      -0.839  11.467  22.509  0.00  0.00    +0.000 C 
BRANCH  16  17
ATOM     17  C   UNL     1      -0.172  11.693  21.154  0.00  0.00    +0.000 C 
BRANCH  17  18
ATOM     18  N   UNL     1      -1.000  11.283  20.034  0.00  0.00    +0.000 N 
ATOM     19  C   UNL     1      -0.590  10.572  18.944  0.00  0.00    +0.000 C 
ATOM     20  C   UNL     1      -1.596  10.247  17.882  0.00  0.00    +0.000 C 
ATOM     21  O   UNL     1       0.591  10.222  18.839  0.00  0.00    +0.000 OA
ATOM     22  H   UNL     1      -1.989  11.521  20.053  0.00  0.00    +0.000 HD
ENDBRANCH  17  18
ENDBRANCH  16  17
ENDBRANCH  15  16
ENDBRANCH   4  15
TORSDOF 6
ENDMDL
