MODEL 1
REMARK VINA RESULT:      -9.4      0.000      0.000
REMARK  Name = 
REMARK  7 active torsions:
REMARK  status: ('A' for Active; 'I' for Inactive)
REMARK    1  A    between atoms: C_1  and  C_2
REMARK    2  A    between atoms: C_6  and  N_7
REMARK    3  A    between atoms: C_8  and  C_9
REMARK    4  A    between atoms: N_11  and  C_12
REMARK    5  A    between atoms: C_12  and  C_13
REMARK    6  A    between atoms: C_13  and  C_14
REMARK    7  A    between atoms: C_17  and  C_18
REMARK                            x       y       z     vdW  Elec       q    Type
REMARK                         _______ _______ _______ _____ _____    ______ ____
ROOT
ATOM      1  C   UNL     1       8.119   8.672  18.409  0.00  0.00    +0.000 C 
ENDROOT
BRANCH   1   4
ATOM      2  C   UNL     1       9.264  10.764  19.038  0.00  0.00    +0.000 C 
ATOM      3  O   UNL     1       9.506  10.297  20.152  0.00  0.00    +0.000 OA
ATOM      4  N   UNL     1       8.570  10.018  18.096  0.00  0.00    +0.000 N 
ATOM      5  H   UNL     1       8.351  10.449  17.207  0.00  0.00    +0.000 HD
BRANCH   2  12
ATOM      6  C   UNL     1      10.219  18.064  17.429  0.00  0.00    +0.000 C 
ATOM      7  C   UNL     1      10.488  16.587  17.501  0.00  0.00    +0.000 A 
ATOM      8  C   UNL     1      11.599  16.045  16.867  0.00  0.00    +0.000 A 
ATOM      9  C   UNL     1      11.819  14.669  16.935  0.00  0.00    +0.000 A 
ATOM     10  C   UNL     1      10.895  13.869  17.641  0.00  0.00    +0.000 A 
ATOM     11  C   UNL     1      10.796  12.459  17.888  0.00  0.00    +0.000 A 
ATOM     12  C   UNL     1       9.689  12.105  18.641  0.00  0.00    +0.000 A 
ATOM     13  S   UNL     1       8.780  13.495  19.072  0.00  0.00    +0.000 S 
ATOM     14  C   UNL     1       9.833  14.537  18.236  0.00  0.00    +0.000 A 
ATOM     15  N   UNL     1       9.587  15.861  18.200  0.00  0.00    +0.000 NA
BRANCH  11  16
ATOM     16  N   UNL     1      11.705  11.567  17.419  0.00  0.00    +0.000 N 
ATOM     17  H   UNL     1      12.001  10.747  17.937  0.00  0.00    +0.000 HD
ATOM     18  H   UNL     1      12.351  11.842  16.672  0.00  0.00    +0.000 HD
ENDBRANCH  11  16
ENDBRANCH   2  12
ENDBRANCH   1   4
BRANCH   1  19
ATOM     19  C   UNL     1       7.990   7.752  17.193  0.00  0.00    +0.000 C 
BRANCH  19  20
ATOM     20  C   UNL     1       6.886   6.730  17.361  0.00  0.00    +0.000 A 
ATOM     21  C   UNL     1       5.615   6.864  16.773  0.00  0.00    +0.000 A 
ATOM     22  C   UNL     1       4.625   5.867  16.942  0.00  0.00    +0.000 A 
ATOM     23  C   UNL     1       4.864   4.725  17.716  0.00  0.00    +0.000 A 
ATOM     24  C   UNL     1       6.139   4.622  18.310  0.00  0.00    +0.000 A 
ATOM     25  C   UNL     1       7.112   5.601  18.140  0.00  0.00    +0.000 A 
ATOM     26  F   UNL     1       8.305   5.431  18.731  0.00  0.00    +0.000 F 
BRANCH  23  27
ATOM     27  C   UNL     1       3.923   3.527  17.887  0.00  0.00    +0.000 C 
ATOM     28  C   UNL     1       2.425   3.660  17.518  0.00  0.00    +0.000 C 
ATOM     29  C   UNL     1       1.467   3.818  18.713  0.00  0.00    +0.000 C 
ATOM     30  C   UNL     1       1.730   5.044  19.575  0.00  0.00    +0.000 C 
ATOM     31  C   UNL     1       2.785   4.582  20.580  0.00  0.00    +0.000 C 
ATOM     32  C   UNL     1       2.986   3.101  20.271  0.00  0.00    +0.000 C 
ATOM     33  C   UNL     1       4.090   2.804  19.251  0.00  0.00    +0.000 C 
ATOM     34  N   UNL     1       1.706   2.714  19.659  0.00  0.00    +0.000 NA
ATOM     35  H   UNL     1       0.985   2.740  20.381  0.00  0.00    +0.000 HD
ENDBRANCH  23  27
ENDBRANCH  19  20
ENDBRANCH   1  19
TORSDOF 6
ENDMDL
MODEL 2
REMARK VINA RESULT:      -9.3      1.034      1.311
REMARK  Name = 
REMARK  7 active torsions:
REMARK  status: ('A' for Active; 'I' for Inactive)
REMARK    1  A    between atoms: C_1  and  C_2
REMARK    2  A    between atoms: C_6  and  N_7
REMARK    3  A    between atoms: C_8  and  C_9
REMARK    4  A    between atoms: N_11  and  C_12
REMARK    5  A    between atoms: C_12  and  C_13
REMARK    6  A    between atoms: C_13  and  C_14
REMARK    7  A    between atoms: C_17  and  C_18
REMARK                            x       y       z     vdW  Elec       q    Type
REMARK                         _______ _______ _______ _____ _____    ______ ____
ROOT
ATOM      1  C   UNL     1       8.137   8.505  18.020  0.00  0.00    +0.000 C 
ENDROOT
BRANCH   1   4
ATOM      2  C   UNL     1       9.224  10.566  18.828  0.00  0.00    +0.000 C 
ATOM      3  O   UNL     1       9.289  10.088  19.962  0.00  0.00    +0.000 OA
ATOM      4  N   UNL     1       8.661   9.841  17.788  0.00  0.00    +0.000 N 
ATOM      5  H   UNL     1       8.585  10.282  16.879  0.00  0.00    +0.000 HD
BRANCH   2  12
ATOM      6  C   UNL     1      10.555  17.835  17.350  0.00  0.00    +0.000 C 
ATOM      7  C   UNL     1      10.791  16.358  17.497  0.00  0.00    +0.000 A 
ATOM      8  C   UNL     1      12.005  15.800  17.115  0.00  0.00    +0.000 A 
ATOM      9  C   UNL     1      12.194  14.423  17.246  0.00  0.00    +0.000 A 
ATOM     10  C   UNL     1      11.137  13.640  17.756  0.00  0.00    +0.000 A 
ATOM     11  C   UNL     1      10.977  12.234  17.997  0.00  0.00    +0.000 A 
ATOM     12  C   UNL     1       9.734  11.899  18.509  0.00  0.00    +0.000 A 
ATOM     13  S   UNL     1       8.768  13.300  18.722  0.00  0.00    +0.000 S 
ATOM     14  C   UNL     1       9.980  14.323  18.108  0.00  0.00    +0.000 A 
ATOM     15  N   UNL     1       9.759  15.648  18.003  0.00  0.00    +0.000 NA
BRANCH  11  16
ATOM     16  N   UNL     1      11.955  11.330  17.740  0.00  0.00    +0.000 N 
ATOM     17  H   UNL     1      12.291  10.662  18.424  0.00  0.00    +0.000 HD
ATOM     18  H   UNL     1      12.601  11.486  16.959  0.00  0.00    +0.000 HD
ENDBRANCH  11  16
ENDBRANCH   2  12
ENDBRANCH   1   4
BRANCH   1  19
ATOM     19  C   UNL     1       6.994   8.105  17.084  0.00  0.00    +0.000 C 
BRANCH  19  20
ATOM     20  C   UNL     1       6.380   6.776  17.465  0.00  0.00    +0.000 A 
ATOM     21  C   UNL     1       6.791   6.030  18.585  0.00  0.00    +0.000 A 
ATOM     22  C   UNL     1       6.167   4.801  18.912  0.00  0.00    +0.000 A 
ATOM     23  C   UNL     1       5.134   4.276  18.125  0.00  0.00    +0.000 A 
ATOM     24  C   UNL     1       4.752   5.034  16.998  0.00  0.00    +0.000 A 
ATOM     25  C   UNL     1       5.365   6.241  16.681  0.00  0.00    +0.000 A 
ATOM     26  F   UNL     1       4.942   6.910  15.597  0.00  0.00    +0.000 F 
BRANCH  23  27
ATOM     27  C   UNL     1       4.307   3.022  18.429  0.00  0.00    +0.000 C 
ATOM     28  C   UNL     1       2.922   2.827  17.765  0.00  0.00    +0.000 C 
ATOM     29  C   UNL     1       1.712   3.115  18.672  0.00  0.00    +0.000 C 
ATOM     30  C   UNL     1       1.650   4.538  19.209  0.00  0.00    +0.000 C 
ATOM     31  C   UNL     1       2.499   4.501  20.479  0.00  0.00    +0.000 C 
ATOM     32  C   UNL     1       2.914   3.039  20.621  0.00  0.00    +0.000 C 
ATOM     33  C   UNL     1       4.241   2.682  19.943  0.00  0.00    +0.000 C 
ATOM     34  N   UNL     1       1.848   2.322  19.906  0.00  0.00    +0.000 NA
ATOM     35  H   UNL     1       0.986   2.407  20.446  0.00  0.00    +0.000 HD
ENDBRANCH  23  27
ENDBRANCH  19  20
ENDBRANCH   1  19
TORSDOF 6
ENDMDL
MODEL 3
REMARK VINA RESULT:      -9.2      6.733     10.161
REMARK  Name = 
REMARK  7 active torsions:
REMARK  status: ('A' for Active; 'I' for Inactive)
REMARK    1  A    between atoms: C_1  and  C_2
REMARK    2  A    between atoms: C_6  and  N_7
REMARK    3  A    between atoms: C_8  and  C_9
REMARK    4  A    between atoms: N_11  and  C_12
REMARK    5  A    between atoms: C_12  and  C_13
REMARK    6  A    between atoms: C_13  and  C_14
REMARK    7  A    between atoms: C_17  and  C_18
REMARK                            x       y       z     vdW  Elec       q    Type
REMARK                         _______ _______ _______ _____ _____    ______ ____
ROOT
ATOM      1  C   UNL     1       1.138   9.420  20.920  0.00  0.00    +0.000 C 
ENDROOT
BRANCH   1   4
ATOM      2  C   UNL     1      -0.288  10.707  19.373  0.00  0.00    +0.000 C 
ATOM      3  O   UNL     1       0.698  10.966  18.681  0.00  0.00    +0.000 OA
ATOM      4  N   UNL     1      -0.161   9.935  20.519  0.00  0.00    +0.000 N 
ATOM      5  H   UNL     1      -0.984   9.778  21.087  0.00  0.00    +0.000 HD
BRANCH   2  12
ATOM      6  C   UNL     1      -7.310  13.410  18.970  0.00  0.00    +0.000 C 
ATOM      7  C   UNL     1      -6.020  12.765  18.550  0.00  0.00    +0.000 A 
ATOM      8  C   UNL     1      -5.887  12.225  17.277  0.00  0.00    +0.000 A 
ATOM      9  C   UNL     1      -4.684  11.616  16.916  0.00  0.00    +0.000 A 
ATOM     10  C   UNL     1      -3.641  11.562  17.864  0.00  0.00    +0.000 A 
ATOM     11  C   UNL     1      -2.318  11.007  17.847  0.00  0.00    +0.000 A 
ATOM     12  C   UNL     1      -1.629  11.179  19.035  0.00  0.00    +0.000 A 
ATOM     13  S   UNL     1      -2.585  12.042  20.170  0.00  0.00    +0.000 S 
ATOM     14  C   UNL     1      -3.901  12.146  19.097  0.00  0.00    +0.000 A 
ATOM     15  N   UNL     1      -5.043  12.748  19.484  0.00  0.00    +0.000 NA
BRANCH  11  16
ATOM     16  N   UNL     1      -1.803  10.373  16.763  0.00  0.00    +0.000 N 
ATOM     17  H   UNL     1      -1.366   9.459  16.805  0.00  0.00    +0.000 HD
ATOM     18  H   UNL     1      -1.558  10.912  15.926  0.00  0.00    +0.000 HD
ENDBRANCH  11  16
ENDBRANCH   2  12
ENDBRANCH   1   4
BRANCH   1  19
ATOM     19  C   UNL     1       1.204   7.894  21.030  0.00  0.00    +0.000 C 
BRANCH  19  20
ATOM     20  C   UNL     1       2.021   7.274  19.918  0.00  0.00    +0.000 A 
ATOM     21  C   UNL     1       2.371   7.963  18.742  0.00  0.00    +0.000 A 
ATOM     22  C   UNL     1       3.158   7.344  17.741  0.00  0.00    +0.000 A 
ATOM     23  C   UNL     1       3.599   6.022  17.874  0.00  0.00    +0.000 A 
ATOM     24  C   UNL     1       3.221   5.346  19.053  0.00  0.00    +0.000 A 
ATOM     25  C   UNL     1       2.450   5.958  20.036  0.00  0.00    +0.000 A 
ATOM     26  F   UNL     1       2.135   5.253  21.134  0.00  0.00    +0.000 F 
BRANCH  23  27
ATOM     27  C   UNL     1       4.543   5.278  16.923  0.00  0.00    +0.000 C 
ATOM     28  C   UNL     1       5.422   4.119  17.452  0.00  0.00    +0.000 C 
ATOM     29  C   UNL     1       6.904   4.472  17.682  0.00  0.00    +0.000 C 
ATOM     30  C   UNL     1       7.138   5.585  18.693  0.00  0.00    +0.000 C 
ATOM     31  C   UNL     1       7.038   6.870  17.872  0.00  0.00    +0.000 C 
ATOM     32  C   UNL     1       6.838   6.393  16.436  0.00  0.00    +0.000 C 
ATOM     33  C   UNL     1       5.373   6.226  16.015  0.00  0.00    +0.000 C 
ATOM     34  N   UNL     1       7.448   5.055  16.444  0.00  0.00    +0.000 NA
ATOM     35  H   UNL     1       8.457   5.164  16.549  0.00  0.00    +0.000 HD
ENDBRANCH  23  27
ENDBRANCH  19  20
ENDBRANCH   1  19
TORSDOF 6
ENDMDL
MODEL 4
REMARK VINA RESULT:      -8.9      0.783      1.569
REMARK  Name = 
REMARK  7 active torsions:
REMARK  status: ('A' for Active; 'I' for Inactive)
REMARK    1  A    between atoms: C_1  and  C_2
REMARK    2  A    between atoms: C_6  and  N_7
REMARK    3  A    between atoms: C_8  and  C_9
REMARK    4  A    between atoms: N_11  and  C_12
REMARK    5  A    between atoms: C_12  and  C_13
REMARK    6  A    between atoms: C_13  and  C_14
REMARK    7  A    between atoms: C_17  and  C_18
REMARK                            x       y       z     vdW  Elec       q    Type
REMARK                         _______ _______ _______ _____ _____    ______ ____
ROOT
ATOM      1  C   UNL     1       8.386   8.446  18.247  0.00  0.00    +0.000 C 
ENDROOT
BRANCH   1   4
ATOM      2  C   UNL     1       9.297  10.627  18.951  0.00  0.00    +0.000 C 
ATOM      3  O   UNL     1       9.499  10.178  20.081  0.00  0.00    +0.000 OA
ATOM      4  N   UNL     1       8.740   9.828  17.964  0.00  0.00    +0.000 N 
ATOM      5  H   UNL     1       8.548  10.242  17.060  0.00  0.00    +0.000 HD
BRANCH   2  12
ATOM      6  C   UNL     1       9.744  17.998  17.448  0.00  0.00    +0.000 C 
ATOM      7  C   UNL     1      10.124  16.546  17.515  0.00  0.00    +0.000 A 
ATOM      8  C   UNL     1      11.295  16.098  16.917  0.00  0.00    +0.000 A 
ATOM      9  C   UNL     1      11.617  14.741  16.980  0.00  0.00    +0.000 A 
ATOM     10  C   UNL     1      10.733  13.865  17.644  0.00  0.00    +0.000 A 
ATOM     11  C   UNL     1      10.734  12.448  17.874  0.00  0.00    +0.000 A 
ATOM     12  C   UNL     1       9.631  12.002  18.582  0.00  0.00    +0.000 A 
ATOM     13  S   UNL     1       8.604  13.313  18.994  0.00  0.00    +0.000 S 
ATOM     14  C   UNL     1       9.603  14.442  18.206  0.00  0.00    +0.000 A 
ATOM     15  N   UNL     1       9.257  15.744  18.174  0.00  0.00    +0.000 NA
BRANCH  11  16
ATOM     16  N   UNL     1      11.725  11.634  17.430  0.00  0.00    +0.000 N 
ATOM     17  H   UNL     1      12.487  11.952  16.842  0.00  0.00    +0.000 HD
ATOM     18  H   UNL     1      11.581  10.620  17.413  0.00  0.00    +0.000 HD
ENDBRANCH  11  16
ENDBRANCH   2  12
ENDBRANCH   1   4
BRANCH   1  19
ATOM     19  C   UNL     1       7.458   7.809  17.210  0.00  0.00    +0.000 C 
BRANCH  19  20
ATOM     20  C   UNL     1       6.382   6.958  17.849  0.00  0.00    +0.000 A 
ATOM     21  C   UNL     1       5.009   7.135  17.599  0.00  0.00    +0.000 A 
ATOM     22  C   UNL     1       4.044   6.295  18.205  0.00  0.00    +0.000 A 
ATOM     23  C   UNL     1       4.416   5.275  19.089  0.00  0.00    +0.000 A 
ATOM     24  C   UNL     1       5.797   5.129  19.337  0.00  0.00    +0.000 A 
ATOM     25  C   UNL     1       6.743   5.953  18.738  0.00  0.00    +0.000 A 
ATOM     26  F   UNL     1       8.040   5.749  19.018  0.00  0.00    +0.000 F 
BRANCH  23  27
ATOM     27  C   UNL     1       3.485   4.233  19.720  0.00  0.00    +0.000 C 
ATOM     28  C   UNL     1       3.944   2.761  19.850  0.00  0.00    +0.000 C 
ATOM     29  C   UNL     1       3.342   1.792  18.816  0.00  0.00    +0.000 C 
ATOM     30  C   UNL     1       3.661   2.136  17.368  0.00  0.00    +0.000 C 
ATOM     31  C   UNL     1       2.569   3.126  16.964  0.00  0.00    +0.000 C 
ATOM     32  C   UNL     1       1.657   3.210  18.185  0.00  0.00    +0.000 C 
ATOM     33  C   UNL     1       2.028   4.309  19.186  0.00  0.00    +0.000 C 
ATOM     34  N   UNL     1       1.875   1.917  18.850  0.00  0.00    +0.000 NA
ATOM     35  H   UNL     1       1.470   1.184  18.266  0.00  0.00    +0.000 HD
ENDBRANCH  23  27
ENDBRANCH  19  20
ENDBRANCH   1  19
TORSDOF 6
ENDMDL
MODEL 5
REMARK VINA RESULT:      -8.8      7.718     10.614
REMARK  Name = 
REMARK  7 active torsions:
REMARK  status: ('A' for Active; 'I' for Inactive)
REMARK    1  A    between atoms: C_1  and  C_2
REMARK    2  A    between atoms: C_6  and  N_7
REMARK    3  A    between atoms: C_8  and  C_9
REMARK    4  A    between atoms: N_11  and  C_12
REMARK    5  A    between atoms: C_12  and  C_13
REMARK    6  A    between atoms: C_13  and  C_14
REMARK    7  A    between atoms: C_17  and  C_18
REMARK                            x       y       z     vdW  Elec       q    Type
REMARK                         _______ _______ _______ _____ _____    ______ ____
ROOT
ATOM      1  C   UNL     1      -0.271  10.498  18.145  0.00  0.00    +0.000 C 
ENDROOT
BRANCH   1   4
ATOM      2  C   UNL     1      -1.544  12.080  19.544  0.00  0.00    +0.000 C 
ATOM      3  O   UNL     1      -1.021  13.025  18.952  0.00  0.00    +0.000 OA
ATOM      4  N   UNL     1      -1.227  10.773  19.205  0.00  0.00    +0.000 N 
ATOM      5  H   UNL     1      -1.644  10.022  19.741  0.00  0.00    +0.000 HD
BRANCH   2  12
ATOM      6  C   UNL     1      -7.375  13.569  24.079  0.00  0.00    +0.000 C 
ATOM      7  C   UNL     1      -5.998  13.163  23.639  0.00  0.00    +0.000 A 
ATOM      8  C   UNL     1      -5.021  12.862  24.580  0.00  0.00    +0.000 A 
ATOM      9  C   UNL     1      -3.744  12.502  24.147  0.00  0.00    +0.000 A 
ATOM     10  C   UNL     1      -3.485  12.465  22.760  0.00  0.00    +0.000 A 
ATOM     11  C   UNL     1      -2.316  12.171  21.981  0.00  0.00    +0.000 A 
ATOM     12  C   UNL     1      -2.521  12.270  20.616  0.00  0.00    +0.000 A 
ATOM     13  S   UNL     1      -4.148  12.697  20.276  0.00  0.00    +0.000 S 
ATOM     14  C   UNL     1      -4.550  12.779  21.927  0.00  0.00    +0.000 A 
ATOM     15  N   UNL     1      -5.797  13.125  22.303  0.00  0.00    +0.000 NA
BRANCH  11  16
ATOM     16  N   UNL     1      -1.127  11.832  22.542  0.00  0.00    +0.000 N 
ATOM     17  H   UNL     1      -0.308  12.428  22.517  0.00  0.00    +0.000 HD
ATOM     18  H   UNL     1      -0.919  10.848  22.740  0.00  0.00    +0.000 HD
ENDBRANCH  11  16
ENDBRANCH   2  12
ENDBRANCH   1   4
BRANCH   1  19
ATOM     19  C   UNL     1       1.188  10.466  18.605  0.00  0.00    +0.000 C 
BRANCH  19  20
ATOM     20  C   UNL     1       1.669   9.060  18.890  0.00  0.00    +0.000 A 
ATOM     21  C   UNL     1       2.336   8.266  17.939  0.00  0.00    +0.000 A 
ATOM     22  C   UNL     1       2.786   6.964  18.264  0.00  0.00    +0.000 A 
ATOM     23  C   UNL     1       2.568   6.412  19.532  0.00  0.00    +0.000 A 
ATOM     24  C   UNL     1       1.882   7.220  20.462  0.00  0.00    +0.000 A 
ATOM     25  C   UNL     1       1.443   8.500  20.141  0.00  0.00    +0.000 A 
ATOM     26  F   UNL     1       0.802   9.213  21.082  0.00  0.00    +0.000 F 
BRANCH  23  27
ATOM     27  C   UNL     1       3.099   5.067  20.042  0.00  0.00    +0.000 C 
ATOM     28  C   UNL     1       4.136   4.276  19.209  0.00  0.00    +0.000 C 
ATOM     29  C   UNL     1       3.572   3.075  18.427  0.00  0.00    +0.000 C 
ATOM     30  C   UNL     1       2.497   3.433  17.410  0.00  0.00    +0.000 C 
ATOM     31  C   UNL     1       1.197   3.425  18.213  0.00  0.00    +0.000 C 
ATOM     32  C   UNL     1       1.613   2.980  19.613  0.00  0.00    +0.000 C 
ATOM     33  C   UNL     1       1.980   4.124  20.564  0.00  0.00    +0.000 C 
ATOM     34  N   UNL     1       2.839   2.206  19.363  0.00  0.00    +0.000 NA
ATOM     35  H   UNL     1       2.581   1.346  18.877  0.00  0.00    +0.000 HD
ENDBRANCH  23  27
ENDBRANCH  19  20
ENDBRANCH   1  19
TORSDOF 6
ENDMDL
MODEL 6
REMARK VINA RESULT:      -8.8      1.441      1.764
REMARK  Name = 
REMARK  7 active torsions:
REMARK  status: ('A' for Active; 'I' for Inactive)
REMARK    1  A    between atoms: C_1  and  C_2
REMARK    2  A    between atoms: C_6  and  N_7
REMARK    3  A    between atoms: C_8  and  C_9
REMARK    4  A    between atoms: N_11  and  C_12
REMARK    5  A    between atoms: C_12  and  C_13
REMARK    6  A    between atoms: C_13  and  C_14
REMARK    7  A    between atoms: C_17  and  C_18
REMARK                            x       y       z     vdW  Elec       q    Type
REMARK                         _______ _______ _______ _____ _____    ______ ____
ROOT
ATOM      1  C   UNL     1       8.109   8.372  18.138  0.00  0.00    +0.000 C 
ENDROOT
BRANCH   1   4
ATOM      2  C   UNL     1       9.095  10.360  19.214  0.00  0.00    +0.000 C 
ATOM      3  O   UNL     1       9.285   9.709  20.243  0.00  0.00    +0.000 OA
ATOM      4  N   UNL     1       8.509   9.769  18.105  0.00  0.00    +0.000 N 
ATOM      5  H   UNL     1       8.329  10.345  17.292  0.00  0.00    +0.000 HD
BRANCH   2  12
ATOM      6  C   UNL     1      10.652  17.480  17.300  0.00  0.00    +0.000 C 
ATOM      7  C   UNL     1      10.577  16.223  18.119  0.00  0.00    +0.000 A 
ATOM      8  C   UNL     1      11.180  16.164  19.370  0.00  0.00    +0.000 A 
ATOM      9  C   UNL     1      11.111  14.979  20.105  0.00  0.00    +0.000 A 
ATOM     10  C   UNL     1      10.435  13.874  19.547  0.00  0.00    +0.000 A 
ATOM     11  C   UNL     1      10.195  12.533  19.997  0.00  0.00    +0.000 A 
ATOM     12  C   UNL     1       9.476  11.766  19.095  0.00  0.00    +0.000 A 
ATOM     13  S   UNL     1       9.066  12.688  17.708  0.00  0.00    +0.000 S 
ATOM     14  C   UNL     1       9.868  14.069  18.294  0.00  0.00    +0.000 A 
ATOM     15  N   UNL     1       9.907  15.194  17.554  0.00  0.00    +0.000 NA
BRANCH  11  16
ATOM     16  N   UNL     1      10.640  12.070  21.193  0.00  0.00    +0.000 N 
ATOM     17  H   UNL     1      11.232  12.609  21.815  0.00  0.00    +0.000 HD
ATOM     18  H   UNL     1      10.655  11.061  21.375  0.00  0.00    +0.000 HD
ENDBRANCH  11  16
ENDBRANCH   2  12
ENDBRANCH   1   4
BRANCH   1  19
ATOM     19  C   UNL     1       7.110   7.976  17.048  0.00  0.00    +0.000 C 
BRANCH  19  20
ATOM     20  C   UNL     1       6.397   6.681  17.367  0.00  0.00    +0.000 A 
ATOM     21  C   UNL     1       6.724   5.872  18.470  0.00  0.00    +0.000 A 
ATOM     22  C   UNL     1       6.009   4.680  18.738  0.00  0.00    +0.000 A 
ATOM     23  C   UNL     1       4.966   4.252  17.907  0.00  0.00    +0.000 A 
ATOM     24  C   UNL     1       4.669   5.070  16.797  0.00  0.00    +0.000 A 
ATOM     25  C   UNL     1       5.371   6.242  16.538  0.00  0.00    +0.000 A 
ATOM     26  F   UNL     1       5.026   6.973  15.466  0.00  0.00    +0.000 F 
BRANCH  23  27
ATOM     27  C   UNL     1       4.047   3.049  18.146  0.00  0.00    +0.000 C 
ATOM     28  C   UNL     1       2.595   3.064  17.610  0.00  0.00    +0.000 C 
ATOM     29  C   UNL     1       1.509   3.342  18.665  0.00  0.00    +0.000 C 
ATOM     30  C   UNL     1       1.641   4.685  19.368  0.00  0.00    +0.000 C 
ATOM     31  C   UNL     1       2.594   4.412  20.531  0.00  0.00    +0.000 C 
ATOM     32  C   UNL     1       2.870   2.913  20.457  0.00  0.00    +0.000 C 
ATOM     33  C   UNL     1       4.086   2.528  19.609  0.00  0.00    +0.000 C 
ATOM     34  N   UNL     1       1.676   2.390  19.776  0.00  0.00    +0.000 NA
ATOM     35  H   UNL     1       0.880   2.483  20.409  0.00  0.00    +0.000 HD
ENDBRANCH  23  27
ENDBRANCH  19  20
ENDBRANCH   1  19
TORSDOF 6
ENDMDL
MODEL 7
REMARK VINA RESULT:      -8.7      7.427     10.950
REMARK  Name = 
REMARK  7 active torsions:
REMARK  status: ('A' for Active; 'I' for Inactive)
REMARK    1  A    between atoms: C_1  and  C_2
REMARK    2  A    between atoms: C_6  and  N_7
REMARK    3  A    between atoms: C_8  and  C_9
REMARK    4  A    between atoms: N_11  and  C_12
REMARK    5  A    between atoms: C_12  and  C_13
REMARK    6  A    between atoms: C_13  and  C_14
REMARK    7  A    between atoms: C_17  and  C_18
REMARK                            x       y       z     vdW  Elec       q    Type
REMARK                         _______ _______ _______ _____ _____    ______ ____
ROOT
ATOM      1  C   UNL     1       0.358   9.877  18.267  0.00  0.00    +0.000 C 
ENDROOT
BRANCH   1   4
ATOM      2  C   UNL     1      -1.405  11.573  18.576  0.00  0.00    +0.000 C 
ATOM      3  O   UNL     1      -0.640  12.445  18.161  0.00  0.00    +0.000 OA
ATOM      4  N   UNL     1      -0.988  10.253  18.664  0.00  0.00    +0.000 N 
ATOM      5  H   UNL     1      -1.629   9.571  19.051  0.00  0.00    +0.000 HD
BRANCH   2  12
ATOM      6  C   UNL     1      -7.916  13.382  21.910  0.00  0.00    +0.000 C 
ATOM      7  C   UNL     1      -6.955  12.885  20.869  0.00  0.00    +0.000 A 
ATOM      8  C   UNL     1      -7.426  12.322  19.689  0.00  0.00    +0.000 A 
ATOM      9  C   UNL     1      -6.513  11.853  18.744  0.00  0.00    +0.000 A 
ATOM     10  C   UNL     1      -5.134  11.959  19.024  0.00  0.00    +0.000 A 
ATOM     11  C   UNL     1      -3.949  11.570  18.313  0.00  0.00    +0.000 A 
ATOM     12  C   UNL     1      -2.777  11.866  18.988  0.00  0.00    +0.000 A 
ATOM     13  S   UNL     1      -3.116  12.644  20.479  0.00  0.00    +0.000 S 
ATOM     14  C   UNL     1      -4.796  12.549  20.234  0.00  0.00    +0.000 A 
ATOM     15  N   UNL     1      -5.644  13.019  21.171  0.00  0.00    +0.000 NA
BRANCH  11  16
ATOM     16  N   UNL     1      -3.988  10.967  17.098  0.00  0.00    +0.000 N 
ATOM     17  H   UNL     1      -4.280  11.439  16.250  0.00  0.00    +0.000 HD
ATOM     18  H   UNL     1      -4.022   9.944  17.038  0.00  0.00    +0.000 HD
ENDBRANCH  11  16
ENDBRANCH   2  12
ENDBRANCH   1   4
BRANCH   1  19
ATOM     19  C   UNL     1       1.217   9.316  19.403  0.00  0.00    +0.000 C 
BRANCH  19  20
ATOM     20  C   UNL     1       2.114   8.189  18.941  0.00  0.00    +0.000 A 
ATOM     21  C   UNL     1       2.830   8.222  17.730  0.00  0.00    +0.000 A 
ATOM     22  C   UNL     1       3.676   7.150  17.355  0.00  0.00    +0.000 A 
ATOM     23  C   UNL     1       3.816   6.013  18.161  0.00  0.00    +0.000 A 
ATOM     24  C   UNL     1       3.074   5.997  19.360  0.00  0.00    +0.000 A 
ATOM     25  C   UNL     1       2.247   7.052  19.729  0.00  0.00    +0.000 A 
ATOM     26  F   UNL     1       1.577   6.967  20.889  0.00  0.00    +0.000 F 
BRANCH  23  27
ATOM     27  C   UNL     1       4.777   4.843  17.925  0.00  0.00    +0.000 C 
ATOM     28  C   UNL     1       5.907   4.551  18.941  0.00  0.00    +0.000 C 
ATOM     29  C   UNL     1       7.312   5.009  18.510  0.00  0.00    +0.000 C 
ATOM     30  C   UNL     1       7.439   6.504  18.259  0.00  0.00    +0.000 C 
ATOM     31  C   UNL     1       7.017   6.681  16.801  0.00  0.00    +0.000 C 
ATOM     32  C   UNL     1       6.760   5.262  16.301  0.00  0.00    +0.000 C 
ATOM     33  C   UNL     1       5.317   4.776  16.470  0.00  0.00    +0.000 C 
ATOM     34  N   UNL     1       7.606   4.443  17.182  0.00  0.00    +0.000 NA
ATOM     35  H   UNL     1       8.583   4.632  16.954  0.00  0.00    +0.000 HD
ENDBRANCH  23  27
ENDBRANCH  19  20
ENDBRANCH   1  19
TORSDOF 6
ENDMDL
MODEL 8
REMARK VINA RESULT:      -8.6      5.893      7.280
REMARK  Name = 
REMARK  7 active torsions:
REMARK  status: ('A' for Active; 'I' for Inactive)
REMARK    1  A    between atoms: C_1  and  C_2
REMARK    2  A    between atoms: C_6  and  N_7
REMARK    3  A    between atoms: C_8  and  C_9
REMARK    4  A    between atoms: N_11  and  C_12
REMARK    5  A    between atoms: C_12  and  C_13
REMARK    6  A    between atoms: C_13  and  C_14
REMARK    7  A    between atoms: C_17  and  C_18
REMARK                            x       y       z     vdW  Elec       q    Type
REMARK                         _______ _______ _______ _____ _____    ______ ____
ROOT
ATOM      1  C   UNL     1       0.201   9.038  20.365  0.00  0.00    +0.000 C 
ENDROOT
BRANCH   1   4
ATOM      2  C   UNL     1       0.232  11.172  19.129  0.00  0.00    +0.000 C 
ATOM      3  O   UNL     1      -0.441  10.662  18.231  0.00  0.00    +0.000 OA
ATOM      4  N   UNL     1       0.602  10.430  20.241  0.00  0.00    +0.000 N 
ATOM      5  H   UNL     1       1.190  10.869  20.939  0.00  0.00    +0.000 HD
BRANCH   2  12
ATOM      6  C   UNL     1       1.277  18.625  19.502  0.00  0.00    +0.000 C 
ATOM      7  C   UNL     1       1.514  17.183  19.157  0.00  0.00    +0.000 A 
ATOM      8  C   UNL     1       2.577  16.823  18.337  0.00  0.00    +0.000 A 
ATOM      9  C   UNL     1       2.767  15.478  18.017  0.00  0.00    +0.000 A 
ATOM     10  C   UNL     1       1.862  14.525  18.533  0.00  0.00    +0.000 A 
ATOM     11  C   UNL     1       1.742  13.101  18.394  0.00  0.00    +0.000 A 
ATOM     12  C   UNL     1       0.668  12.567  19.086  0.00  0.00    +0.000 A 
ATOM     13  S   UNL     1      -0.183  13.796  19.928  0.00  0.00    +0.000 S 
ATOM     14  C   UNL     1       0.850  15.016  19.346  0.00  0.00    +0.000 A 
ATOM     15  N   UNL     1       0.634  16.303  19.683  0.00  0.00    +0.000 NA
BRANCH  11  16
ATOM     16  N   UNL     1       2.603  12.362  17.651  0.00  0.00    +0.000 N 
ATOM     17  H   UNL     1       2.860  12.594  16.698  0.00  0.00    +0.000 HD
ATOM     18  H   UNL     1       2.786  11.385  17.904  0.00  0.00    +0.000 HD
ENDBRANCH  11  16
ENDBRANCH   2  12
ENDBRANCH   1   4
BRANCH   1  19
ATOM     19  C   UNL     1       1.286   8.119  20.931  0.00  0.00    +0.000 C 
BRANCH  19  20
ATOM     20  C   UNL     1       2.082   7.433  19.842  0.00  0.00    +0.000 A 
ATOM     21  C   UNL     1       2.467   8.073  18.650  0.00  0.00    +0.000 A 
ATOM     22  C   UNL     1       3.233   7.393  17.672  0.00  0.00    +0.000 A 
ATOM     23  C   UNL     1       3.615   6.057  17.845  0.00  0.00    +0.000 A 
ATOM     24  C   UNL     1       3.202   5.432  19.039  0.00  0.00    +0.000 A 
ATOM     25  C   UNL     1       2.453   6.103  20.000  0.00  0.00    +0.000 A 
ATOM     26  F   UNL     1       2.101   5.444  21.115  0.00  0.00    +0.000 F 
BRANCH  23  27
ATOM     27  C   UNL     1       4.531   5.246  16.920  0.00  0.00    +0.000 C 
ATOM     28  C   UNL     1       5.411   4.113  17.501  0.00  0.00    +0.000 C 
ATOM     29  C   UNL     1       6.900   4.463  17.677  0.00  0.00    +0.000 C 
ATOM     30  C   UNL     1       7.166   5.633  18.613  0.00  0.00    +0.000 C 
ATOM     31  C   UNL     1       7.060   6.867  17.717  0.00  0.00    +0.000 C 
ATOM     32  C   UNL     1       6.824   6.305  16.317  0.00  0.00    +0.000 C 
ATOM     33  C   UNL     1       5.350   6.129  15.939  0.00  0.00    +0.000 C 
ATOM     34  N   UNL     1       7.422   4.964  16.394  0.00  0.00    +0.000 NA
ATOM     35  H   UNL     1       8.435   5.068  16.471  0.00  0.00    +0.000 HD
ENDBRANCH  23  27
ENDBRANCH  19  20
ENDBRANCH   1  19
TORSDOF 6
ENDMDL
MODEL 9
REMARK VINA RESULT:      -8.6      7.928     11.090
REMARK  Name = 
REMARK  7 active torsions:
REMARK  status: ('A' for Active; 'I' for Inactive)
REMARK    1  A    between atoms: C_1  and  C_2
REMARK    2  A    between atoms: C_6  and  N_7
REMARK    3  A    between atoms: C_8  and  C_9
REMARK    4  A    between atoms: N_11  and  C_12
REMARK    5  A    between atoms: C_12  and  C_13
REMARK    6  A    between atoms: C_13  and  C_14
REMARK    7  A    between atoms: C_17  and  C_18
REMARK                            x       y       z     vdW  Elec       q    Type
REMARK                         _______ _______ _______ _____ _____    ______ ____
ROOT
ATOM      1  C   UNL     1      -0.202  10.720  18.834  0.00  0.00    +0.000 C 
ENDROOT
BRANCH   1   4
ATOM      2  C   UNL     1      -1.843  12.359  19.671  0.00  0.00    +0.000 C 
ATOM      3  O   UNL     1      -1.137  13.279  19.255  0.00  0.00    +0.000 OA
ATOM      4  N   UNL     1      -1.452  11.039  19.503  0.00  0.00    +0.000 N 
ATOM      5  H   UNL     1      -2.036  10.311  19.895  0.00  0.00    +0.000 HD
BRANCH   2  12
ATOM      6  C   UNL     1      -7.676  13.498  24.304  0.00  0.00    +0.000 C 
ATOM      7  C   UNL     1      -6.907  13.259  23.036  0.00  0.00    +0.000 A 
ATOM      8  C   UNL     1      -7.577  13.063  21.835  0.00  0.00    +0.000 A 
ATOM      9  C   UNL     1      -6.841  12.827  20.673  0.00  0.00    +0.000 A 
ATOM     10  C   UNL     1      -5.433  12.786  20.760  0.00  0.00    +0.000 A 
ATOM     11  C   UNL     1      -4.391  12.550  19.802  0.00  0.00    +0.000 A 
ATOM     12  C   UNL     1      -3.118  12.594  20.347  0.00  0.00    +0.000 A 
ATOM     13  S   UNL     1      -3.188  12.950  22.024  0.00  0.00    +0.000 S 
ATOM     14  C   UNL     1      -4.888  13.007  22.018  0.00  0.00    +0.000 A 
ATOM     15  N   UNL     1      -5.561  13.243  23.162  0.00  0.00    +0.000 NA
BRANCH  11  16
ATOM     16  N   UNL     1      -4.642  12.304  18.491  0.00  0.00    +0.000 N 
ATOM     17  H   UNL     1      -5.543  12.000  18.143  0.00  0.00    +0.000 HD
ATOM     18  H   UNL     1      -3.864  12.119  17.850  0.00  0.00    +0.000 HD
ENDBRANCH  11  16
ENDBRANCH   2  12
ENDBRANCH   1   4
BRANCH   1  19
ATOM     19  C   UNL     1       0.947  10.364  19.782  0.00  0.00    +0.000 C 
BRANCH  19  20
ATOM     20  C   UNL     1       1.487   8.974  19.530  0.00  0.00    +0.000 A 
ATOM     21  C   UNL     1       1.515   7.968  20.513  0.00  0.00    +0.000 A 
ATOM     22  C   UNL     1       2.010   6.674  20.219  0.00  0.00    +0.000 A 
ATOM     23  C   UNL     1       2.507   6.354  18.950  0.00  0.00    +0.000 A 
ATOM     24  C   UNL     1       2.485   7.384  17.986  0.00  0.00    +0.000 A 
ATOM     25  C   UNL     1       1.996   8.653  18.277  0.00  0.00    +0.000 A 
ATOM     26  F   UNL     1       2.001   9.581  17.306  0.00  0.00    +0.000 F 
BRANCH  23  27
ATOM     27  C   UNL     1       2.965   4.971  18.474  0.00  0.00    +0.000 C 
ATOM     28  C   UNL     1       1.955   4.008  17.805  0.00  0.00    +0.000 C 
ATOM     29  C   UNL     1       1.442   2.867  18.703  0.00  0.00    +0.000 C 
ATOM     30  C   UNL     1       0.715   3.329  19.957  0.00  0.00    +0.000 C 
ATOM     31  C   UNL     1       1.826   3.538  20.985  0.00  0.00    +0.000 C 
ATOM     32  C   UNL     1       3.100   3.098  20.268  0.00  0.00    +0.000 C 
ATOM     33  C   UNL     1       3.831   4.218  19.520  0.00  0.00    +0.000 C 
ATOM     34  N   UNL     1       2.601   2.149  19.261  0.00  0.00    +0.000 NA
ATOM     35  H   UNL     1       2.268   1.314  19.745  0.00  0.00    +0.000 HD
ENDBRANCH  23  27
ENDBRANCH  19  20
ENDBRANCH   1  19
TORSDOF 6
ENDMDL
