MODEL 1
REMARK VINA RESULT:      -7.0      0.000      0.000
REMARK  Name = 
REMARK  7 active torsions:
REMARK  status: ('A' for Active; 'I' for Inactive)
REMARK    1  A    between atoms: C_1  and  C_2
REMARK    2  A    between atoms: C_2  and  O_3
REMARK    3  A    between atoms: O_3  and  C_4
REMARK    4  A    between atoms: C_4  and  C_6
REMARK    5  A    between atoms: C_7  and  C_8
REMARK    6  A    between atoms: C_11  and  O_12
REMARK    7  A    between atoms: O_12  and  C_13
REMARK                            x       y       z     vdW  Elec       q    Type
REMARK                         _______ _______ _______ _____ _____    ______ ____
ROOT
ATOM      1  C   UNL     1       3.762   5.014  18.921  0.00  0.00    +0.000 A 
ATOM      2  C   UNL     1       4.091   5.783  17.785  0.00  0.00    +0.000 A 
ATOM      3  N   UNL     1       3.535   7.069  17.697  0.00  0.00    +0.000 N 
ATOM      4  O   UNL     1       3.815   7.861  16.729  0.00  0.00    +0.000 OA
ATOM      5  C   UNL     1       2.639   7.540  18.694  0.00  0.00    +0.000 A 
ATOM      6  C   UNL     1       1.992   8.793  18.580  0.00  0.00    +0.000 A 
ATOM      7  C   UNL     1       1.109   9.253  19.559  0.00  0.00    +0.000 A 
ATOM      8  C   UNL     1       0.860   8.480  20.685  0.00  0.00    +0.000 A 
ATOM      9  C   UNL     1       1.480   7.240  20.818  0.00  0.00    +0.000 A 
ATOM     10  C   UNL     1       2.360   6.749  19.825  0.00  0.00    +0.000 A 
ATOM     11  N   UNL     1       2.927   5.474  19.937  0.00  0.00    +0.000 N 
ATOM     12  O   UNL     1       2.610   4.749  20.942  0.00  0.00    +0.000 OA
ENDROOT
BRANCH   2  13
ATOM     13  C   UNL     1       4.961   5.292  16.669  0.00  0.00    +0.000 A 
ATOM     14  C   UNL     1       6.320   5.647  16.569  0.00  0.00    +0.000 A 
ATOM     15  C   UNL     1       7.118   5.248  15.488  0.00  0.00    +0.000 A 
ATOM     16  C   UNL     1       6.579   4.495  14.450  0.00  0.00    +0.000 A 
ATOM     17  C   UNL     1       5.241   4.123  14.519  0.00  0.00    +0.000 A 
ATOM     18  C   UNL     1       4.457   4.489  15.626  0.00  0.00    +0.000 A 
BRANCH  16  19
ATOM     19  O   UNL     1       7.438   4.219  13.424  0.00  0.00    +0.000 OA
ATOM     20  C   UNL     1       6.843   3.778  12.210  0.00  0.00    +0.000 C 
ENDBRANCH  16  19
ENDBRANCH   2  13
BRANCH   1  21
ATOM     21  C   UNL     1       4.121   3.597  19.047  0.00  0.00    +0.000 C 
ATOM     22  O   UNL     1       5.061   3.223  19.725  0.00  0.00    +0.000 OA
BRANCH  21  23
ATOM     23  O   UNL     1       3.283   2.820  18.319  0.00  0.00    +0.000 OA
BRANCH  23  25
ATOM     24  C   UNL     1       0.945   2.379  18.870  0.00  0.00    +0.000 C 
ATOM     25  C   UNL     1       2.402   2.001  19.101  0.00  0.00    +0.000 C 
ENDBRANCH  23  25
ENDBRANCH  21  23
ENDBRANCH   1  21
TORSDOF 5
ENDMDL
MODEL 2
REMARK VINA RESULT:      -6.7      0.443      1.053
REMARK  Name = 
REMARK  7 active torsions:
REMARK  status: ('A' for Active; 'I' for Inactive)
REMARK    1  A    between atoms: C_1  and  C_2
REMARK    2  A    between atoms: C_2  and  O_3
REMARK    3  A    between atoms: O_3  and  C_4
REMARK    4  A    between atoms: C_4  and  C_6
REMARK    5  A    between atoms: C_7  and  C_8
REMARK    6  A    between atoms: C_11  and  O_12
REMARK    7  A    between atoms: O_12  and  C_13
REMARK                            x       y       z     vdW  Elec       q    Type
REMARK                         _______ _______ _______ _____ _____    ______ ____
ROOT
ATOM      1  C   UNL     1       3.677   5.112  19.021  0.00  0.00    +0.000 A 
ATOM      2  C   UNL     1       3.990   5.964  17.941  0.00  0.00    +0.000 A 
ATOM      3  N   UNL     1       3.386   7.232  17.928  0.00  0.00    +0.000 N 
ATOM      4  O   UNL     1       3.647   8.094  17.017  0.00  0.00    +0.000 OA
ATOM      5  C   UNL     1       2.462   7.605  18.942  0.00  0.00    +0.000 A 
ATOM      6  C   UNL     1       1.770   8.838  18.899  0.00  0.00    +0.000 A 
ATOM      7  C   UNL     1       0.860   9.201  19.894  0.00  0.00    +0.000 A 
ATOM      8  C   UNL     1       0.628   8.348  20.965  0.00  0.00    +0.000 A 
ATOM      9  C   UNL     1       1.293   7.126  21.026  0.00  0.00    +0.000 A 
ATOM     10  C   UNL     1       2.201   6.733  20.015  0.00  0.00    +0.000 A 
ATOM     11  N   UNL     1       2.815   5.474  20.053  0.00  0.00    +0.000 N 
ATOM     12  O   UNL     1       2.514   4.675  21.005  0.00  0.00    +0.000 OA
ENDROOT
BRANCH   2  13
ATOM     13  C   UNL     1       4.889   5.579  16.807  0.00  0.00    +0.000 A 
ATOM     14  C   UNL     1       4.440   4.782  15.735  0.00  0.00    +0.000 A 
ATOM     15  C   UNL     1       5.297   4.361  14.709  0.00  0.00    +0.000 A 
ATOM     16  C   UNL     1       6.645   4.703  14.727  0.00  0.00    +0.000 A 
ATOM     17  C   UNL     1       7.120   5.492  15.768  0.00  0.00    +0.000 A 
ATOM     18  C   UNL     1       6.248   5.948  16.772  0.00  0.00    +0.000 A 
BRANCH  16  19
ATOM     19  O   UNL     1       7.391   4.184  13.707  0.00  0.00    +0.000 OA
ATOM     20  C   UNL     1       7.812   5.102  12.707  0.00  0.00    +0.000 C 
ENDBRANCH  16  19
ENDBRANCH   2  13
BRANCH   1  21
ATOM     21  C   UNL     1       4.088   3.704  19.061  0.00  0.00    +0.000 C 
ATOM     22  O   UNL     1       5.045   3.324  19.710  0.00  0.00    +0.000 OA
BRANCH  21  23
ATOM     23  O   UNL     1       3.273   2.941  18.292  0.00  0.00    +0.000 OA
BRANCH  23  25
ATOM     24  C   UNL     1       0.979   2.302  18.837  0.00  0.00    +0.000 C 
ATOM     25  C   UNL     1       2.462   2.012  19.026  0.00  0.00    +0.000 C 
ENDBRANCH  23  25
ENDBRANCH  21  23
ENDBRANCH   1  21
TORSDOF 5
ENDMDL
MODEL 3
REMARK VINA RESULT:      -6.3      1.842      6.271
REMARK  Name = 
REMARK  7 active torsions:
REMARK  status: ('A' for Active; 'I' for Inactive)
REMARK    1  A    between atoms: C_1  and  C_2
REMARK    2  A    between atoms: C_2  and  O_3
REMARK    3  A    between atoms: O_3  and  C_4
REMARK    4  A    between atoms: C_4  and  C_6
REMARK    5  A    between atoms: C_7  and  C_8
REMARK    6  A    between atoms: C_11  and  O_12
REMARK    7  A    between atoms: O_12  and  C_13
REMARK                            x       y       z     vdW  Elec       q    Type
REMARK                         _______ _______ _______ _____ _____    ______ ____
ROOT
ATOM      1  C   UNL     1       2.929   4.826  18.083  0.00  0.00    +0.000 A 
ATOM      2  C   UNL     1       3.197   6.210  18.039  0.00  0.00    +0.000 A 
ATOM      3  N   UNL     1       4.251   6.633  17.211  0.00  0.00    +0.000 N 
ATOM      4  O   UNL     1       4.538   7.873  17.066  0.00  0.00    +0.000 OA
ATOM      5  C   UNL     1       5.036   5.687  16.497  0.00  0.00    +0.000 A 
ATOM      6  C   UNL     1       6.160   6.080  15.733  0.00  0.00    +0.000 A 
ATOM      7  C   UNL     1       6.932   5.149  15.035  0.00  0.00    +0.000 A 
ATOM      8  C   UNL     1       6.592   3.803  15.069  0.00  0.00    +0.000 A 
ATOM      9  C   UNL     1       5.493   3.391  15.819  0.00  0.00    +0.000 A 
ATOM     10  C   UNL     1       4.714   4.318  16.550  0.00  0.00    +0.000 A 
ATOM     11  N   UNL     1       3.650   3.885  17.353  0.00  0.00    +0.000 N 
ATOM     12  O   UNL     1       3.417   2.630  17.434  0.00  0.00    +0.000 OA
ENDROOT
BRANCH   2  13
ATOM     13  C   UNL     1       2.453   7.231  18.842  0.00  0.00    +0.000 A 
ATOM     14  C   UNL     1       2.218   7.069  20.222  0.00  0.00    +0.000 A 
ATOM     15  C   UNL     1       1.461   7.989  20.961  0.00  0.00    +0.000 A 
ATOM     16  C   UNL     1       0.890   9.096  20.344  0.00  0.00    +0.000 A 
ATOM     17  C   UNL     1       1.107   9.289  18.984  0.00  0.00    +0.000 A 
ATOM     18  C   UNL     1       1.902   8.387  18.255  0.00  0.00    +0.000 A 
BRANCH  16  19
ATOM     19  O   UNL     1       0.125   9.886  21.154  0.00  0.00    +0.000 OA
ATOM     20  C   UNL     1      -0.299   9.303  22.379  0.00  0.00    +0.000 C 
ENDBRANCH  16  19
ENDBRANCH   2  13
BRANCH   1  21
ATOM     21  C   UNL     1       1.987   4.235  19.040  0.00  0.00    +0.000 C 
ATOM     22  O   UNL     1       0.834   3.979  18.743  0.00  0.00    +0.000 OA
BRANCH  21  23
ATOM     23  O   UNL     1       2.579   4.038  20.243  0.00  0.00    +0.000 OA
BRANCH  23  25
ATOM     24  C   UNL     1       1.451   2.554  21.822  0.00  0.00    +0.000 C 
ATOM     25  C   UNL     1       2.503   2.690  20.729  0.00  0.00    +0.000 C 
ENDBRANCH  23  25
ENDBRANCH  21  23
ENDBRANCH   1  21
TORSDOF 5
ENDMDL
MODEL 4
REMARK VINA RESULT:      -6.3      1.962      6.238
REMARK  Name = 
REMARK  7 active torsions:
REMARK  status: ('A' for Active; 'I' for Inactive)
REMARK    1  A    between atoms: C_1  and  C_2
REMARK    2  A    between atoms: C_2  and  O_3
REMARK    3  A    between atoms: O_3  and  C_4
REMARK    4  A    between atoms: C_4  and  C_6
REMARK    5  A    between atoms: C_7  and  C_8
REMARK    6  A    between atoms: C_11  and  O_12
REMARK    7  A    between atoms: O_12  and  C_13
REMARK                            x       y       z     vdW  Elec       q    Type
REMARK                         _______ _______ _______ _____ _____    ______ ____
ROOT
ATOM      1  C   UNL     1       2.845   4.948  17.768  0.00  0.00    +0.000 A 
ATOM      2  C   UNL     1       3.191   6.308  17.911  0.00  0.00    +0.000 A 
ATOM      3  N   UNL     1       4.414   6.721  17.357  0.00  0.00    +0.000 N 
ATOM      4  O   UNL     1       4.791   7.945  17.392  0.00  0.00    +0.000 OA
ATOM      5  C   UNL     1       5.277   5.784  16.729  0.00  0.00    +0.000 A 
ATOM      6  C   UNL     1       6.555   6.156  16.248  0.00  0.00    +0.000 A 
ATOM      7  C   UNL     1       7.404   5.233  15.634  0.00  0.00    +0.000 A 
ATOM      8  C   UNL     1       6.993   3.917  15.470  0.00  0.00    +0.000 A 
ATOM      9  C   UNL     1       5.742   3.525  15.940  0.00  0.00    +0.000 A 
ATOM     10  C   UNL     1       4.879   4.441  16.585  0.00  0.00    +0.000 A 
ATOM     11  N   UNL     1       3.651   4.021  17.111  0.00  0.00    +0.000 N 
ATOM     12  O   UNL     1       3.338   2.784  17.023  0.00  0.00    +0.000 OA
ENDROOT
BRANCH   2  13
ATOM     13  C   UNL     1       2.352   7.310  18.642  0.00  0.00    +0.000 A 
ATOM     14  C   UNL     1       1.739   8.394  17.983  0.00  0.00    +0.000 A 
ATOM     15  C   UNL     1       1.013   9.373  18.676  0.00  0.00    +0.000 A 
ATOM     16  C   UNL     1       0.890   9.318  20.059  0.00  0.00    +0.000 A 
ATOM     17  C   UNL     1       1.478   8.258  20.741  0.00  0.00    +0.000 A 
ATOM     18  C   UNL     1       2.169   7.256  20.038  0.00  0.00    +0.000 A 
BRANCH  16  19
ATOM     19  O   UNL     1       0.212  10.359  20.627  0.00  0.00    +0.000 OA
ATOM     20  C   UNL     1       0.160  11.561  19.869  0.00  0.00    +0.000 C 
ENDBRANCH  16  19
ENDBRANCH   2  13
BRANCH   1  21
ATOM     21  C   UNL     1       1.695   4.349  18.454  0.00  0.00    +0.000 C 
ATOM     22  O   UNL     1       0.663   4.070  17.871  0.00  0.00    +0.000 OA
BRANCH  21  23
ATOM     23  O   UNL     1       1.956   4.174  19.773  0.00  0.00    +0.000 OA
BRANCH  23  25
ATOM     24  C   UNL     1       1.621   2.630  21.636  0.00  0.00    +0.000 C 
ATOM     25  C   UNL     1       0.988   3.376  20.469  0.00  0.00    +0.000 C 
ENDBRANCH  23  25
ENDBRANCH  21  23
ENDBRANCH   1  21
TORSDOF 5
ENDMDL
MODEL 5
REMARK VINA RESULT:      -6.3      1.576      2.286
REMARK  Name = 
REMARK  7 active torsions:
REMARK  status: ('A' for Active; 'I' for Inactive)
REMARK    1  A    between atoms: C_1  and  C_2
REMARK    2  A    between atoms: C_2  and  O_3
REMARK    3  A    between atoms: O_3  and  C_4
REMARK    4  A    between atoms: C_4  and  C_6
REMARK    5  A    between atoms: C_7  and  C_8
REMARK    6  A    between atoms: C_11  and  O_12
REMARK    7  A    between atoms: O_12  and  C_13
REMARK                            x       y       z     vdW  Elec       q    Type
REMARK                         _______ _______ _______ _____ _____    ______ ____
ROOT
ATOM      1  C   UNL     1       2.169   6.598  19.884  0.00  0.00    +0.000 A 
ATOM      2  C   UNL     1       2.810   6.925  18.671  0.00  0.00    +0.000 A 
ATOM      3  N   UNL     1       2.571   8.204  18.143  0.00  0.00    +0.000 N 
ATOM      4  O   UNL     1       3.147   8.612  17.073  0.00  0.00    +0.000 OA
ATOM      5  C   UNL     1       1.676   9.099  18.790  0.00  0.00    +0.000 A 
ATOM      6  C   UNL     1       1.345  10.354  18.228  0.00  0.00    +0.000 A 
ATOM      7  C   UNL     1       0.463  11.231  18.864  0.00  0.00    +0.000 A 
ATOM      8  C   UNL     1      -0.100  10.883  20.084  0.00  0.00    +0.000 A 
ATOM      9  C   UNL     1       0.205   9.649  20.654  0.00  0.00    +0.000 A 
ATOM     10  C   UNL     1       1.079   8.740  20.013  0.00  0.00    +0.000 A 
ATOM     11  N   UNL     1       1.328   7.476  20.563  0.00  0.00    +0.000 N 
ATOM     12  O   UNL     1       0.726   7.149  21.643  0.00  0.00    +0.000 OA
ENDROOT
BRANCH   2  13
ATOM     13  C   UNL     1       3.691   5.982  17.911  0.00  0.00    +0.000 A 
ATOM     14  C   UNL     1       5.016   6.311  17.566  0.00  0.00    +0.000 A 
ATOM     15  C   UNL     1       5.819   5.459  16.794  0.00  0.00    +0.000 A 
ATOM     16  C   UNL     1       5.318   4.253  16.317  0.00  0.00    +0.000 A 
ATOM     17  C   UNL     1       4.015   3.895  16.643  0.00  0.00    +0.000 A 
ATOM     18  C   UNL     1       3.228   4.732  17.453  0.00  0.00    +0.000 A 
BRANCH  16  19
ATOM     19  O   UNL     1       6.173   3.539  15.526  0.00  0.00    +0.000 OA
ATOM     20  C   UNL     1       6.326   4.001  14.191  0.00  0.00    +0.000 C 
ENDBRANCH  16  19
ENDBRANCH   2  13
BRANCH   1  21
ATOM     21  C   UNL     1       2.184   5.242  20.444  0.00  0.00    +0.000 C 
ATOM     22  O   UNL     1       3.129   4.812  21.080  0.00  0.00    +0.000 OA
BRANCH  21  23
ATOM     23  O   UNL     1       1.037   4.584  20.147  0.00  0.00    +0.000 OA
BRANCH  23  25
ATOM     24  C   UNL     1       0.711   2.481  18.948  0.00  0.00    +0.000 C 
ATOM     25  C   UNL     1       1.129   3.155  20.248  0.00  0.00    +0.000 C 
ENDBRANCH  23  25
ENDBRANCH  21  23
ENDBRANCH   1  21
TORSDOF 5
ENDMDL
MODEL 6
REMARK VINA RESULT:      -6.2      3.275      7.847
REMARK  Name = 
REMARK  7 active torsions:
REMARK  status: ('A' for Active; 'I' for Inactive)
REMARK    1  A    between atoms: C_1  and  C_2
REMARK    2  A    between atoms: C_2  and  O_3
REMARK    3  A    between atoms: O_3  and  C_4
REMARK    4  A    between atoms: C_4  and  C_6
REMARK    5  A    between atoms: C_7  and  C_8
REMARK    6  A    between atoms: C_11  and  O_12
REMARK    7  A    between atoms: O_12  and  C_13
REMARK                            x       y       z     vdW  Elec       q    Type
REMARK                         _______ _______ _______ _____ _____    ______ ____
ROOT
ATOM      1  C   UNL     1       1.062   8.140  20.256  0.00  0.00    +0.000 A 
ATOM      2  C   UNL     1       1.227   9.156  19.291  0.00  0.00    +0.000 A 
ATOM      3  N   UNL     1       2.146   8.915  18.256  0.00  0.00    +0.000 N 
ATOM      4  O   UNL     1       2.328   9.756  17.306  0.00  0.00    +0.000 OA
ATOM      5  C   UNL     1       2.906   7.715  18.227  0.00  0.00    +0.000 A 
ATOM      6  C   UNL     1       3.905   7.491  17.251  0.00  0.00    +0.000 A 
ATOM      7  C   UNL     1       4.654   6.313  17.226  0.00  0.00    +0.000 A 
ATOM      8  C   UNL     1       4.414   5.321  18.167  0.00  0.00    +0.000 A 
ATOM      9  C   UNL     1       3.441   5.520  19.142  0.00  0.00    +0.000 A 
ATOM     10  C   UNL     1       2.689   6.717  19.196  0.00  0.00    +0.000 A 
ATOM     11  N   UNL     1       1.758   6.934  20.220  0.00  0.00    +0.000 N 
ATOM     12  O   UNL     1       1.623   6.039  21.124  0.00  0.00    +0.000 OA
ENDROOT
BRANCH   2  13
ATOM     13  C   UNL     1       0.512  10.471  19.333  0.00  0.00    +0.000 A 
ATOM     14  C   UNL     1       1.109  11.629  19.868  0.00  0.00    +0.000 A 
ATOM     15  C   UNL     1       0.417  12.843  19.973  0.00  0.00    +0.000 A 
ATOM     16  C   UNL     1      -0.909  12.941  19.567  0.00  0.00    +0.000 A 
ATOM     17  C   UNL     1      -1.528  11.817  19.029  0.00  0.00    +0.000 A 
ATOM     18  C   UNL     1      -0.817  10.613  18.886  0.00  0.00    +0.000 A 
BRANCH  16  19
ATOM     19  O   UNL     1      -1.495  14.157  19.775  0.00  0.00    +0.000 OA
ATOM     20  C   UNL     1      -0.613  15.250  19.994  0.00  0.00    +0.000 C 
ENDBRANCH  16  19
ENDBRANCH   2  13
BRANCH   1  21
ATOM     21  C   UNL     1       0.280   8.334  21.482  0.00  0.00    +0.000 C 
ATOM     22  O   UNL     1      -0.833   7.863  21.624  0.00  0.00    +0.000 OA
BRANCH  21  23
ATOM     23  O   UNL     1       0.964   9.089  22.376  0.00  0.00    +0.000 OA
BRANCH  23  25
ATOM     24  C   UNL     1      -0.726  10.756  22.955  0.00  0.00    +0.000 C 
ATOM     25  C   UNL     1       0.162   9.618  23.442  0.00  0.00    +0.000 C 
ENDBRANCH  23  25
ENDBRANCH  21  23
ENDBRANCH   1  21
TORSDOF 5
ENDMDL
MODEL 7
REMARK VINA RESULT:      -6.2      7.431     11.500
REMARK  Name = 
REMARK  7 active torsions:
REMARK  status: ('A' for Active; 'I' for Inactive)
REMARK    1  A    between atoms: C_1  and  C_2
REMARK    2  A    between atoms: C_2  and  O_3
REMARK    3  A    between atoms: O_3  and  C_4
REMARK    4  A    between atoms: C_4  and  C_6
REMARK    5  A    between atoms: C_7  and  C_8
REMARK    6  A    between atoms: C_11  and  O_12
REMARK    7  A    between atoms: O_12  and  C_13
REMARK                            x       y       z     vdW  Elec       q    Type
REMARK                         _______ _______ _______ _____ _____    ______ ____
ROOT
ATOM      1  C   UNL     1      -1.149  11.656  20.670  0.00  0.00    +0.000 A 
ATOM      2  C   UNL     1      -2.337  12.401  20.826  0.00  0.00    +0.000 A 
ATOM      3  N   UNL     1      -3.290  12.312  19.798  0.00  0.00    +0.000 N 
ATOM      4  O   UNL     1      -4.420  12.912  19.872  0.00  0.00    +0.000 OA
ATOM      5  C   UNL     1      -3.030  11.540  18.634  0.00  0.00    +0.000 A 
ATOM      6  C   UNL     1      -3.932  11.511  17.544  0.00  0.00    +0.000 A 
ATOM      7  C   UNL     1      -3.673  10.754  16.400  0.00  0.00    +0.000 A 
ATOM      8  C   UNL     1      -2.514   9.995  16.319  0.00  0.00    +0.000 A 
ATOM      9  C   UNL     1      -1.607  10.012  17.376  0.00  0.00    +0.000 A 
ATOM     10  C   UNL     1      -1.842  10.791  18.533  0.00  0.00    +0.000 A 
ATOM     11  N   UNL     1      -0.894  10.851  19.562  0.00  0.00    +0.000 N 
ATOM     12  O   UNL     1       0.205  10.212  19.420  0.00  0.00    +0.000 OA
ENDROOT
BRANCH   2  13
ATOM     13  C   UNL     1      -2.613  13.296  21.994  0.00  0.00    +0.000 A 
ATOM     14  C   UNL     1      -3.276  12.834  23.148  0.00  0.00    +0.000 A 
ATOM     15  C   UNL     1      -3.600  13.686  24.213  0.00  0.00    +0.000 A 
ATOM     16  C   UNL     1      -3.292  15.041  24.155  0.00  0.00    +0.000 A 
ATOM     17  C   UNL     1      -2.633  15.529  23.033  0.00  0.00    +0.000 A 
ATOM     18  C   UNL     1      -2.272  14.663  21.986  0.00  0.00    +0.000 A 
BRANCH  16  19
ATOM     19  O   UNL     1      -3.711  15.780  25.225  0.00  0.00    +0.000 OA
ATOM     20  C   UNL     1      -4.470  16.944  24.925  0.00  0.00    +0.000 C 
ENDBRANCH  16  19
ENDBRANCH   2  13
BRANCH   1  21
ATOM     21  C   UNL     1      -0.001  11.803  21.571  0.00  0.00    +0.000 C 
ATOM     22  O   UNL     1       1.024  12.364  21.231  0.00  0.00    +0.000 OA
BRANCH  21  23
ATOM     23  O   UNL     1      -0.255  11.235  22.775  0.00  0.00    +0.000 OA
BRANCH  23  25
ATOM     24  C   UNL     1       1.009   9.161  22.515  0.00  0.00    +0.000 C 
ATOM     25  C   UNL     1      -0.352   9.804  22.748  0.00  0.00    +0.000 C 
ENDBRANCH  23  25
ENDBRANCH  21  23
ENDBRANCH   1  21
TORSDOF 5
ENDMDL
MODEL 8
REMARK VINA RESULT:      -6.1      7.501     11.450
REMARK  Name = 
REMARK  7 active torsions:
REMARK  status: ('A' for Active; 'I' for Inactive)
REMARK    1  A    between atoms: C_1  and  C_2
REMARK    2  A    between atoms: C_2  and  O_3
REMARK    3  A    between atoms: O_3  and  C_4
REMARK    4  A    between atoms: C_4  and  C_6
REMARK    5  A    between atoms: C_7  and  C_8
REMARK    6  A    between atoms: C_11  and  O_12
REMARK    7  A    between atoms: O_12  and  C_13
REMARK                            x       y       z     vdW  Elec       q    Type
REMARK                         _______ _______ _______ _____ _____    ______ ____
ROOT
ATOM      1  C   UNL     1      -1.226  11.678  20.711  0.00  0.00    +0.000 A 
ATOM      2  C   UNL     1      -2.430  12.402  20.843  0.00  0.00    +0.000 A 
ATOM      3  N   UNL     1      -3.357  12.302  19.792  0.00  0.00    +0.000 N 
ATOM      4  O   UNL     1      -4.499  12.881  19.843  0.00  0.00    +0.000 OA
ATOM      5  C   UNL     1      -3.056  11.540  18.631  0.00  0.00    +0.000 A 
ATOM      6  C   UNL     1      -3.932  11.501  17.521  0.00  0.00    +0.000 A 
ATOM      7  C   UNL     1      -3.633  10.755  16.379  0.00  0.00    +0.000 A 
ATOM      8  C   UNL     1      -2.459  10.017  16.321  0.00  0.00    +0.000 A 
ATOM      9  C   UNL     1      -1.577  10.044  17.400  0.00  0.00    +0.000 A 
ATOM     10  C   UNL     1      -1.854  10.812  18.554  0.00  0.00    +0.000 A 
ATOM     11  N   UNL     1      -0.931  10.884  19.606  0.00  0.00    +0.000 N 
ATOM     12  O   UNL     1       0.181  10.264  19.487  0.00  0.00    +0.000 OA
ENDROOT
BRANCH   2  13
ATOM     13  C   UNL     1      -2.750  13.286  22.008  0.00  0.00    +0.000 A 
ATOM     14  C   UNL     1      -2.349  14.636  22.054  0.00  0.00    +0.000 A 
ATOM     15  C   UNL     1      -2.585  15.445  23.174  0.00  0.00    +0.000 A 
ATOM     16  C   UNL     1      -3.212  14.929  24.302  0.00  0.00    +0.000 A 
ATOM     17  C   UNL     1      -3.625  13.602  24.289  0.00  0.00    +0.000 A 
ATOM     18  C   UNL     1      -3.425  12.805  23.148  0.00  0.00    +0.000 A 
BRANCH  16  19
ATOM     19  O   UNL     1      -3.331  15.796  25.351  0.00  0.00    +0.000 OA
ATOM     20  C   UNL     1      -2.467  16.925  25.334  0.00  0.00    +0.000 C 
ENDBRANCH  16  19
ENDBRANCH   2  13
BRANCH   1  21
ATOM     21  C   UNL     1      -0.102  11.840  21.640  0.00  0.00    +0.000 C 
ATOM     22  O   UNL     1       0.930  12.400  21.319  0.00  0.00    +0.000 OA
BRANCH  21  23
ATOM     23  O   UNL     1      -0.387  11.288  22.845  0.00  0.00    +0.000 OA
BRANCH  23  25
ATOM     24  C   UNL     1       0.897   9.220  22.638  0.00  0.00    +0.000 C 
ATOM     25  C   UNL     1      -0.473   9.856  22.836  0.00  0.00    +0.000 C 
ENDBRANCH  23  25
ENDBRANCH  21  23
ENDBRANCH   1  21
TORSDOF 5
ENDMDL
MODEL 9
REMARK VINA RESULT:      -6.1      1.836      6.311
REMARK  Name = 
REMARK  7 active torsions:
REMARK  status: ('A' for Active; 'I' for Inactive)
REMARK    1  A    between atoms: C_1  and  C_2
REMARK    2  A    between atoms: C_2  and  O_3
REMARK    3  A    between atoms: O_3  and  C_4
REMARK    4  A    between atoms: C_4  and  C_6
REMARK    5  A    between atoms: C_7  and  C_8
REMARK    6  A    between atoms: C_11  and  O_12
REMARK    7  A    between atoms: O_12  and  C_13
REMARK                            x       y       z     vdW  Elec       q    Type
REMARK                         _______ _______ _______ _____ _____    ______ ____
ROOT
ATOM      1  C   UNL     1       2.889   5.202  18.931  0.00  0.00    +0.000 A 
ATOM      2  C   UNL     1       2.884   6.563  18.562  0.00  0.00    +0.000 A 
ATOM      3  N   UNL     1       3.689   6.936  17.474  0.00  0.00    +0.000 N 
ATOM      4  O   UNL     1       3.712   8.139  17.033  0.00  0.00    +0.000 OA
ATOM      5  C   UNL     1       4.508   5.979  16.817  0.00  0.00    +0.000 A 
ATOM      6  C   UNL     1       5.398   6.348  15.781  0.00  0.00    +0.000 A 
ATOM      7  C   UNL     1       6.205   5.406  15.139  0.00  0.00    +0.000 A 
ATOM      8  C   UNL     1       6.133   4.069  15.504  0.00  0.00    +0.000 A 
ATOM      9  C   UNL     1       5.269   3.681  16.525  0.00  0.00    +0.000 A 
ATOM     10  C   UNL     1       4.462   4.626  17.201  0.00  0.00    +0.000 A 
ATOM     11  N   UNL     1       3.644   4.235  18.270  0.00  0.00    +0.000 N 
ATOM     12  O   UNL     1       3.665   3.012  18.641  0.00  0.00    +0.000 OA
ENDROOT
BRANCH   2  13
ATOM     13  C   UNL     1       2.105   7.620  19.282  0.00  0.00    +0.000 A 
ATOM     14  C   UNL     1       1.886   7.570  20.673  0.00  0.00    +0.000 A 
ATOM     15  C   UNL     1       1.097   8.519  21.338  0.00  0.00    +0.000 A 
ATOM     16  C   UNL     1       0.478   9.545  20.633  0.00  0.00    +0.000 A 
ATOM     17  C   UNL     1       0.677   9.627  19.259  0.00  0.00    +0.000 A 
ATOM     18  C   UNL     1       1.503   8.698  18.603  0.00  0.00    +0.000 A 
BRANCH  16  19
ATOM     19  O   UNL     1      -0.314  10.371  21.380  0.00  0.00    +0.000 OA
ATOM     20  C   UNL     1      -0.355  10.106  22.776  0.00  0.00    +0.000 C 
ENDBRANCH  16  19
ENDBRANCH   2  13
BRANCH   1  21
ATOM     21  C   UNL     1       2.244   4.712  20.155  0.00  0.00    +0.000 C 
ATOM     22  O   UNL     1       2.840   4.626  21.213  0.00  0.00    +0.000 OA
BRANCH  21  23
ATOM     23  O   UNL     1       0.950   4.385  19.921  0.00  0.00    +0.000 OA
BRANCH  23  25
ATOM     24  C   UNL     1       0.576   2.254  18.787  0.00  0.00    +0.000 C 
ATOM     25  C   UNL     1       0.644   2.997  20.115  0.00  0.00    +0.000 C 
ENDBRANCH  23  25
ENDBRANCH  21  23
ENDBRANCH   1  21
TORSDOF 5
ENDMDL
