MODEL 1
REMARK VINA RESULT:      -6.5      0.000      0.000
REMARK  Name = 
REMARK  16 active torsions:
REMARK  status: ('A' for Active; 'I' for Inactive)
REMARK    1  A    between atoms: C_1  and  O_2
REMARK    2  A    between atoms: O_2  and  C_3
REMARK    3  A    between atoms: C_3  and  C_5
REMARK    4  A    between atoms: C_5  and  C_6
REMARK    5  A    between atoms: C_5  and  N_7
REMARK    6  A    between atoms: C_8  and  C_10
REMARK    7  A    between atoms: C_11  and  C_12
REMARK    8  A    between atoms: C_12  and  C_13
REMARK    9  A    between atoms: C_12  and  C_14
REMARK   10  A    between atoms: C_12  and  C_15
REMARK   11  A    between atoms: C_15  and  C_16
REMARK   12  A    between atoms: C_17  and  C_18
REMARK   13  A    between atoms: C_17  and  C_19
REMARK   14  A    between atoms: C_19  and  C_20
REMARK   15  A    between atoms: C_20  and  C_21
REMARK   16  A    between atoms: C_22  and  C_23
REMARK                            x       y       z     vdW  Elec       q    Type
REMARK                         _______ _______ _______ _____ _____    ______ ____
ROOT
ATOM      1  C   UNL     1       2.599   5.809  19.401  0.00  0.00    +0.000 C 
ATOM      2  C   UNL     1       4.062   5.546  19.830  0.00  0.00    +0.000 C 
ATOM      3  C   UNL     1       1.652   5.191  20.446  0.00  0.00    +0.000 C 
ENDROOT
BRANCH   1   5
ATOM      4  C   UNL     1       1.940   7.967  18.206  0.00  0.00    +0.000 C 
ATOM      5  C   UNL     1       2.324   7.308  19.310  0.00  0.00    +0.000 C 
BRANCH   4   7
ATOM      6  N   UNL     1       0.778   9.789  19.194  0.00  0.00    +0.000 N 
ATOM      7  C   UNL     1       1.716   9.430  18.263  0.00  0.00    +0.000 C 
ATOM      8  O   UNL     1       2.311  10.225  17.552  0.00  0.00    +0.000 OA
ATOM      9  H   UNL     1       0.308   9.096  19.768  0.00  0.00    +0.000 HD
BRANCH   6  10
ATOM     10  C   UNL     1       0.418  11.187  19.400  0.00  0.00    +0.000 C 
ATOM     11  C   UNL     1      -1.092  11.371  19.362  0.00  0.00    +0.000 C 
BRANCH  10  12
ATOM     12  C   UNL     1       0.964  11.637  20.751  0.00  0.00    +0.000 C 
ATOM     13  O   UNL     1       0.879  10.981  21.784  0.00  0.00    +0.000 OA
BRANCH  12  15
ATOM     14  C   UNL     1       0.860  13.898  21.371  0.00  0.00    +0.000 C 
ATOM     15  O   UNL     1       1.534  12.870  20.644  0.00  0.00    +0.000 OA
ENDBRANCH  12  15
ENDBRANCH  10  12
ENDBRANCH   6  10
ENDBRANCH   4   7
ENDBRANCH   1   5
BRANCH   1  16
ATOM     16  C   UNL     1       2.304   5.111  18.031  0.00  0.00    +0.000 C 
BRANCH  16  17
ATOM     17  C   UNL     1       3.519   4.954  17.156  0.00  0.00    +0.000 C 
ATOM     18  C   UNL     1       4.256   3.847  16.939  0.00  0.00    +0.000 C 
ATOM     19  C   UNL     1       3.942   2.525  17.586  0.00  0.00    +0.000 C 
BRANCH  18  20
ATOM     20  C   UNL     1       5.469   3.848  16.004  0.00  0.00    +0.000 C 
BRANCH  20  21
ATOM     21  C   UNL     1       6.766   4.345  16.669  0.00  0.00    +0.000 C 
BRANCH  21  22
ATOM     22  C   UNL     1       7.023   5.821  16.668  0.00  0.00    +0.000 C 
ATOM     23  C   UNL     1       7.479   6.469  17.757  0.00  0.00    +0.000 C 
ATOM     24  C   UNL     1       7.788   5.833  19.086  0.00  0.00    +0.000 C 
ATOM     25 BR   UNL     1       7.786   8.317  17.717  0.00  0.00    +0.000 Br
ENDBRANCH  21  22
ENDBRANCH  20  21
ENDBRANCH  18  20
ENDBRANCH  16  17
ENDBRANCH   1  16
TORSDOF 10
ENDMDL
MODEL 2
REMARK VINA RESULT:      -6.4      2.421      3.357
REMARK  Name = 
REMARK  16 active torsions:
REMARK  status: ('A' for Active; 'I' for Inactive)
REMARK    1  A    between atoms: C_1  and  O_2
REMARK    2  A    between atoms: O_2  and  C_3
REMARK    3  A    between atoms: C_3  and  C_5
REMARK    4  A    between atoms: C_5  and  C_6
REMARK    5  A    between atoms: C_5  and  N_7
REMARK    6  A    between atoms: C_8  and  C_10
REMARK    7  A    between atoms: C_11  and  C_12
REMARK    8  A    between atoms: C_12  and  C_13
REMARK    9  A    between atoms: C_12  and  C_14
REMARK   10  A    between atoms: C_12  and  C_15
REMARK   11  A    between atoms: C_15  and  C_16
REMARK   12  A    between atoms: C_17  and  C_18
REMARK   13  A    between atoms: C_17  and  C_19
REMARK   14  A    between atoms: C_19  and  C_20
REMARK   15  A    between atoms: C_20  and  C_21
REMARK   16  A    between atoms: C_22  and  C_23
REMARK                            x       y       z     vdW  Elec       q    Type
REMARK                         _______ _______ _______ _____ _____    ______ ____
ROOT
ATOM      1  C   UNL     1       3.051   5.786  19.022  0.00  0.00    +0.000 C 
ATOM      2  C   UNL     1       2.684   5.027  20.319  0.00  0.00    +0.000 C 
ATOM      3  C   UNL     1       2.564   4.970  17.810  0.00  0.00    +0.000 C 
ENDROOT
BRANCH   1   5
ATOM      4  C   UNL     1       2.553   8.090  18.040  0.00  0.00    +0.000 C 
ATOM      5  C   UNL     1       2.385   7.159  18.992  0.00  0.00    +0.000 C 
BRANCH   4   7
ATOM      6  N   UNL     1       0.889   9.394  19.126  0.00  0.00    +0.000 N 
ATOM      7  C   UNL     1       1.847   9.387  18.146  0.00  0.00    +0.000 C 
ATOM      8  O   UNL     1       2.099  10.345  17.433  0.00  0.00    +0.000 OA
ATOM      9  H   UNL     1       0.713   8.576  19.701  0.00  0.00    +0.000 HD
BRANCH   6  10
ATOM     10  C   UNL     1       0.085  10.582  19.385  0.00  0.00    +0.000 C 
ATOM     11  C   UNL     1      -1.247  10.507  18.652  0.00  0.00    +0.000 C 
BRANCH  10  12
ATOM     12  C   UNL     1      -0.153  10.692  20.888  0.00  0.00    +0.000 C 
ATOM     13  O   UNL     1      -1.082  11.310  21.396  0.00  0.00    +0.000 OA
BRANCH  12  15
ATOM     14  C   UNL     1       0.400   9.481  22.820  0.00  0.00    +0.000 C 
ATOM     15  O   UNL     1       0.822  10.029  21.570  0.00  0.00    +0.000 OA
ENDBRANCH  12  15
ENDBRANCH  10  12
ENDBRANCH   6  10
ENDBRANCH   4   7
ENDBRANCH   1   5
BRANCH   1  16
ATOM     16  C   UNL     1       4.605   5.924  18.898  0.00  0.00    +0.000 C 
BRANCH  16  17
ATOM     17  C   UNL     1       5.191   5.164  17.739  0.00  0.00    +0.000 C 
ATOM     18  C   UNL     1       6.491   4.955  17.447  0.00  0.00    +0.000 C 
ATOM     19  C   UNL     1       7.609   5.490  18.300  0.00  0.00    +0.000 C 
BRANCH  18  20
ATOM     20  C   UNL     1       6.929   4.145  16.224  0.00  0.00    +0.000 C 
BRANCH  20  21
ATOM     21  C   UNL     1       6.634   4.837  14.880  0.00  0.00    +0.000 C 
BRANCH  21  22
ATOM     22  C   UNL     1       5.656   4.174  13.960  0.00  0.00    +0.000 C 
ATOM     23  C   UNL     1       5.975   3.841  12.695  0.00  0.00    +0.000 C 
ATOM     24  C   UNL     1       7.310   4.075  12.040  0.00  0.00    +0.000 C 
ATOM     25 BR   UNL     1       4.721   3.013  11.574  0.00  0.00    +0.000 Br
ENDBRANCH  21  22
ENDBRANCH  20  21
ENDBRANCH  18  20
ENDBRANCH  16  17
ENDBRANCH   1  16
TORSDOF 10
ENDMDL
MODEL 3
REMARK VINA RESULT:      -6.3      2.940      4.037
REMARK  Name = 
REMARK  16 active torsions:
REMARK  status: ('A' for Active; 'I' for Inactive)
REMARK    1  A    between atoms: C_1  and  O_2
REMARK    2  A    between atoms: O_2  and  C_3
REMARK    3  A    between atoms: C_3  and  C_5
REMARK    4  A    between atoms: C_5  and  C_6
REMARK    5  A    between atoms: C_5  and  N_7
REMARK    6  A    between atoms: C_8  and  C_10
REMARK    7  A    between atoms: C_11  and  C_12
REMARK    8  A    between atoms: C_12  and  C_13
REMARK    9  A    between atoms: C_12  and  C_14
REMARK   10  A    between atoms: C_12  and  C_15
REMARK   11  A    between atoms: C_15  and  C_16
REMARK   12  A    between atoms: C_17  and  C_18
REMARK   13  A    between atoms: C_17  and  C_19
REMARK   14  A    between atoms: C_19  and  C_20
REMARK   15  A    between atoms: C_20  and  C_21
REMARK   16  A    between atoms: C_22  and  C_23
REMARK                            x       y       z     vdW  Elec       q    Type
REMARK                         _______ _______ _______ _____ _____    ______ ____
ROOT
ATOM      1  C   UNL     1       3.581   4.887  19.074  0.00  0.00    +0.000 C 
ATOM      2  C   UNL     1       5.056   5.310  19.272  0.00  0.00    +0.000 C 
ATOM      3  C   UNL     1       3.373   3.492  19.689  0.00  0.00    +0.000 C 
ENDROOT
BRANCH   1   5
ATOM      4  C   UNL     1       2.568   7.191  19.506  0.00  0.00    +0.000 C 
ATOM      5  C   UNL     1       2.640   5.875  19.759  0.00  0.00    +0.000 C 
BRANCH   4   7
ATOM      6  N   UNL     1       1.150   9.099  19.528  0.00  0.00    +0.000 N 
ATOM      7  C   UNL     1       1.608   8.033  20.257  0.00  0.00    +0.000 C 
ATOM      8  O   UNL     1       1.265   7.793  21.404  0.00  0.00    +0.000 OA
ATOM      9  H   UNL     1       1.458   9.260  18.575  0.00  0.00    +0.000 HD
BRANCH   6  10
ATOM     10  C   UNL     1       0.197  10.044  20.095  0.00  0.00    +0.000 C 
ATOM     11  C   UNL     1       0.910  11.270  20.648  0.00  0.00    +0.000 C 
BRANCH  10  12
ATOM     12  C   UNL     1      -0.785  10.460  19.004  0.00  0.00    +0.000 C 
ATOM     13  O   UNL     1      -0.882   9.907  17.915  0.00  0.00    +0.000 OA
BRANCH  12  15
ATOM     14  C   UNL     1      -2.706  11.763  18.658  0.00  0.00    +0.000 C 
ATOM     15  O   UNL     1      -1.513  11.538  19.410  0.00  0.00    +0.000 OA
ENDBRANCH  12  15
ENDBRANCH  10  12
ENDBRANCH   6  10
ENDBRANCH   4   7
ENDBRANCH   1   5
BRANCH   1  16
ATOM     16  C   UNL     1       3.250   4.779  17.547  0.00  0.00    +0.000 C 
BRANCH  16  17
ATOM     17  C   UNL     1       4.302   4.058  16.749  0.00  0.00    +0.000 C 
ATOM     18  C   UNL     1       5.217   4.580  15.908  0.00  0.00    +0.000 C 
ATOM     19  C   UNL     1       5.318   6.057  15.635  0.00  0.00    +0.000 C 
BRANCH  18  20
ATOM     20  C   UNL     1       6.235   3.706  15.170  0.00  0.00    +0.000 C 
BRANCH  20  21
ATOM     21  C   UNL     1       6.407   4.069  13.683  0.00  0.00    +0.000 C 
BRANCH  21  22
ATOM     22  C   UNL     1       5.183   4.043  12.819  0.00  0.00    +0.000 C 
ATOM     23  C   UNL     1       5.014   3.130  11.844  0.00  0.00    +0.000 C 
ATOM     24  C   UNL     1       5.990   2.040  11.490  0.00  0.00    +0.000 C 
ATOM     25 BR   UNL     1       3.469   3.132  10.783  0.00  0.00    +0.000 Br
ENDBRANCH  21  22
ENDBRANCH  20  21
ENDBRANCH  18  20
ENDBRANCH  16  17
ENDBRANCH   1  16
TORSDOF 10
ENDMDL
MODEL 4
REMARK VINA RESULT:      -6.3      4.753      7.481
REMARK  Name = 
REMARK  16 active torsions:
REMARK  status: ('A' for Active; 'I' for Inactive)
REMARK    1  A    between atoms: C_1  and  O_2
REMARK    2  A    between atoms: O_2  and  C_3
REMARK    3  A    between atoms: C_3  and  C_5
REMARK    4  A    between atoms: C_5  and  C_6
REMARK    5  A    between atoms: C_5  and  N_7
REMARK    6  A    between atoms: C_8  and  C_10
REMARK    7  A    between atoms: C_11  and  C_12
REMARK    8  A    between atoms: C_12  and  C_13
REMARK    9  A    between atoms: C_12  and  C_14
REMARK   10  A    between atoms: C_12  and  C_15
REMARK   11  A    between atoms: C_15  and  C_16
REMARK   12  A    between atoms: C_17  and  C_18
REMARK   13  A    between atoms: C_17  and  C_19
REMARK   14  A    between atoms: C_19  and  C_20
REMARK   15  A    between atoms: C_20  and  C_21
REMARK   16  A    between atoms: C_22  and  C_23
REMARK                            x       y       z     vdW  Elec       q    Type
REMARK                         _______ _______ _______ _____ _____    ______ ____
ROOT
ATOM      1  C   UNL     1       6.537   6.127  17.368  0.00  0.00    +0.000 C 
ATOM      2  C   UNL     1       7.501   5.383  16.414  0.00  0.00    +0.000 C 
ATOM      3  C   UNL     1       6.562   5.436  18.744  0.00  0.00    +0.000 C 
ENDROOT
BRANCH   1   5
ATOM      4  C   UNL     1       8.106   8.003  18.098  0.00  0.00    +0.000 C 
ATOM      5  C   UNL     1       6.961   7.583  17.538  0.00  0.00    +0.000 C 
BRANCH   4   7
ATOM      6  N   UNL     1       9.243   9.759  19.227  0.00  0.00    +0.000 N 
ATOM      7  C   UNL     1       8.383   9.455  18.204  0.00  0.00    +0.000 C 
ATOM      8  O   UNL     1       7.895  10.285  17.454  0.00  0.00    +0.000 OA
ATOM      9  H   UNL     1       9.630   9.038  19.826  0.00  0.00    +0.000 HD
BRANCH   6  10
ATOM     10  C   UNL     1       9.638  11.137  19.493  0.00  0.00    +0.000 C 
ATOM     11  C   UNL     1       9.665  11.416  20.988  0.00  0.00    +0.000 C 
BRANCH  10  12
ATOM     12  C   UNL     1      11.022  11.372  18.894  0.00  0.00    +0.000 C 
ATOM     13  O   UNL     1      12.062  11.386  19.543  0.00  0.00    +0.000 OA
BRANCH  12  15
ATOM     14  C   UNL     1      11.256  12.905  17.134  0.00  0.00    +0.000 C 
ATOM     15  O   UNL     1      10.926  11.580  17.551  0.00  0.00    +0.000 OA
ENDBRANCH  12  15
ENDBRANCH  10  12
ENDBRANCH   6  10
ENDBRANCH   4   7
ENDBRANCH   1   5
BRANCH   1  16
ATOM     16  C   UNL     1       5.069   6.040  16.829  0.00  0.00    +0.000 C 
BRANCH  16  17
ATOM     17  C   UNL     1       4.122   7.003  17.492  0.00  0.00    +0.000 C 
ATOM     18  C   UNL     1       2.971   6.732  18.138  0.00  0.00    +0.000 C 
ATOM     19  C   UNL     1       2.440   5.333  18.296  0.00  0.00    +0.000 C 
BRANCH  18  20
ATOM     20  C   UNL     1       2.116   7.833  18.772  0.00  0.00    +0.000 C 
BRANCH  20  21
ATOM     21  C   UNL     1       1.631   8.899  17.772  0.00  0.00    +0.000 C 
BRANCH  21  22
ATOM     22  C   UNL     1       1.746  10.336  18.181  0.00  0.00    +0.000 C 
ATOM     23  C   UNL     1       0.741  10.989  18.794  0.00  0.00    +0.000 C 
ATOM     24  C   UNL     1      -0.597  10.397  19.148  0.00  0.00    +0.000 C 
ATOM     25 BR   UNL     1       0.924  12.787  19.289  0.00  0.00    +0.000 Br
ENDBRANCH  21  22
ENDBRANCH  20  21
ENDBRANCH  18  20
ENDBRANCH  16  17
ENDBRANCH   1  16
TORSDOF 10
ENDMDL
MODEL 5
REMARK VINA RESULT:      -6.2      5.931      8.829
REMARK  Name = 
REMARK  16 active torsions:
REMARK  status: ('A' for Active; 'I' for Inactive)
REMARK    1  A    between atoms: C_1  and  O_2
REMARK    2  A    between atoms: O_2  and  C_3
REMARK    3  A    between atoms: C_3  and  C_5
REMARK    4  A    between atoms: C_5  and  C_6
REMARK    5  A    between atoms: C_5  and  N_7
REMARK    6  A    between atoms: C_8  and  C_10
REMARK    7  A    between atoms: C_11  and  C_12
REMARK    8  A    between atoms: C_12  and  C_13
REMARK    9  A    between atoms: C_12  and  C_14
REMARK   10  A    between atoms: C_12  and  C_15
REMARK   11  A    between atoms: C_15  and  C_16
REMARK   12  A    between atoms: C_17  and  C_18
REMARK   13  A    between atoms: C_17  and  C_19
REMARK   14  A    between atoms: C_19  and  C_20
REMARK   15  A    between atoms: C_20  and  C_21
REMARK   16  A    between atoms: C_22  and  C_23
REMARK                            x       y       z     vdW  Elec       q    Type
REMARK                         _______ _______ _______ _____ _____    ______ ____
ROOT
ATOM      1  C   UNL     1       7.027   6.227  17.520  0.00  0.00    +0.000 C 
ATOM      2  C   UNL     1       7.619   5.016  18.280  0.00  0.00    +0.000 C 
ATOM      3  C   UNL     1       7.829   7.489  17.888  0.00  0.00    +0.000 C 
ENDROOT
BRANCH   1   5
ATOM      4  C   UNL     1       7.163   4.821  15.393  0.00  0.00    +0.000 C 
ATOM      5  C   UNL     1       7.109   6.011  16.011  0.00  0.00    +0.000 C 
BRANCH   4   7
ATOM      6  N   UNL     1       6.656   3.646  13.390  0.00  0.00    +0.000 N 
ATOM      7  C   UNL     1       7.250   4.763  13.916  0.00  0.00    +0.000 C 
ATOM      8  O   UNL     1       7.794   5.626  13.244  0.00  0.00    +0.000 OA
ATOM      9  H   UNL     1       6.211   2.953  13.984  0.00  0.00    +0.000 HD
BRANCH   6  10
ATOM     10  C   UNL     1       6.638   3.409  11.952  0.00  0.00    +0.000 C 
ATOM     11  C   UNL     1       7.788   2.504  11.536  0.00  0.00    +0.000 C 
BRANCH  10  12
ATOM     12  C   UNL     1       5.306   2.763  11.581  0.00  0.00    +0.000 C 
ATOM     13  O   UNL     1       5.144   1.558  11.422  0.00  0.00    +0.000 OA
BRANCH  12  15
ATOM     14  C   UNL     1       3.201   3.293  10.691  0.00  0.00    +0.000 C 
ATOM     15  O   UNL     1       4.343   3.716  11.435  0.00  0.00    +0.000 OA
ENDBRANCH  12  15
ENDBRANCH  10  12
ENDBRANCH   6  10
ENDBRANCH   4   7
ENDBRANCH   1   5
BRANCH   1  16
ATOM     16  C   UNL     1       5.544   6.470  17.962  0.00  0.00    +0.000 C 
BRANCH  16  17
ATOM     17  C   UNL     1       4.570   5.477  17.387  0.00  0.00    +0.000 C 
ATOM     18  C   UNL     1       4.256   4.251  17.848  0.00  0.00    +0.000 C 
ATOM     19  C   UNL     1       4.878   3.667  19.088  0.00  0.00    +0.000 C 
BRANCH  18  20
ATOM     20  C   UNL     1       3.228   3.358  17.148  0.00  0.00    +0.000 C 
BRANCH  20  21
ATOM     21  C   UNL     1       1.817   3.434  17.760  0.00  0.00    +0.000 C 
BRANCH  21  22
ATOM     22  C   UNL     1       1.608   2.796  19.099  0.00  0.00    +0.000 C 
ATOM     23  C   UNL     1       1.570   3.514  20.237  0.00  0.00    +0.000 C 
ATOM     24  C   UNL     1       1.726   5.009  20.332  0.00  0.00    +0.000 C 
ATOM     25 BR   UNL     1       1.309   2.678  21.894  0.00  0.00    +0.000 Br
ENDBRANCH  21  22
ENDBRANCH  20  21
ENDBRANCH  18  20
ENDBRANCH  16  17
ENDBRANCH   1  16
TORSDOF 10
ENDMDL
MODEL 6
REMARK VINA RESULT:      -6.1      4.558      8.720
REMARK  Name = 
REMARK  16 active torsions:
REMARK  status: ('A' for Active; 'I' for Inactive)
REMARK    1  A    between atoms: C_1  and  O_2
REMARK    2  A    between atoms: O_2  and  C_3
REMARK    3  A    between atoms: C_3  and  C_5
REMARK    4  A    between atoms: C_5  and  C_6
REMARK    5  A    between atoms: C_5  and  N_7
REMARK    6  A    between atoms: C_8  and  C_10
REMARK    7  A    between atoms: C_11  and  C_12
REMARK    8  A    between atoms: C_12  and  C_13
REMARK    9  A    between atoms: C_12  and  C_14
REMARK   10  A    between atoms: C_12  and  C_15
REMARK   11  A    between atoms: C_15  and  C_16
REMARK   12  A    between atoms: C_17  and  C_18
REMARK   13  A    between atoms: C_17  and  C_19
REMARK   14  A    between atoms: C_19  and  C_20
REMARK   15  A    between atoms: C_20  and  C_21
REMARK   16  A    between atoms: C_22  and  C_23
REMARK                            x       y       z     vdW  Elec       q    Type
REMARK                         _______ _______ _______ _____ _____    ______ ____
ROOT
ATOM      1  C   UNL     1       3.378   3.450  17.937  0.00  0.00    +0.000 C 
ATOM      2  C   UNL     1       2.908   1.983  17.793  0.00  0.00    +0.000 C 
ATOM      3  C   UNL     1       4.461   3.524  19.029  0.00  0.00    +0.000 C 
ENDROOT
BRANCH   1   5
ATOM      4  C   UNL     1       5.172   4.526  16.474  0.00  0.00    +0.000 C 
ATOM      5  C   UNL     1       3.965   3.961  16.623  0.00  0.00    +0.000 C 
BRANCH   4   7
ATOM      6  N   UNL     1       5.610   3.981  14.202  0.00  0.00    +0.000 N 
ATOM      7  C   UNL     1       5.610   4.985  15.135  0.00  0.00    +0.000 C 
ATOM      8  O   UNL     1       5.932   6.138  14.896  0.00  0.00    +0.000 OA
ATOM      9  H   UNL     1       5.331   3.035  14.442  0.00  0.00    +0.000 HD
BRANCH   6  10
ATOM     10  C   UNL     1       6.010   4.235  12.824  0.00  0.00    +0.000 C 
ATOM     11  C   UNL     1       7.522   4.370  12.712  0.00  0.00    +0.000 C 
BRANCH  10  12
ATOM     12  C   UNL     1       5.524   3.079  11.954  0.00  0.00    +0.000 C 
ATOM     13  O   UNL     1       4.364   2.932  11.586  0.00  0.00    +0.000 OA
BRANCH  12  15
ATOM     14  C   UNL     1       6.161   0.992  11.091  0.00  0.00    +0.000 C 
ATOM     15  O   UNL     1       6.556   2.236  11.669  0.00  0.00    +0.000 OA
ENDBRANCH  12  15
ENDBRANCH  10  12
ENDBRANCH   6  10
ENDBRANCH   4   7
ENDBRANCH   1   5
BRANCH   1  16
ATOM     16  C   UNL     1       2.187   4.356  18.397  0.00  0.00    +0.000 C 
BRANCH  16  17
ATOM     17  C   UNL     1       2.294   5.782  17.928  0.00  0.00    +0.000 C 
ATOM     18  C   UNL     1       2.380   6.903  18.673  0.00  0.00    +0.000 C 
ATOM     19  C   UNL     1       2.382   6.877  20.178  0.00  0.00    +0.000 C 
BRANCH  18  20
ATOM     20  C   UNL     1       2.493   8.292  18.040  0.00  0.00    +0.000 C 
BRANCH  20  21
ATOM     21  C   UNL     1       1.181   9.098  18.067  0.00  0.00    +0.000 C 
BRANCH  21  22
ATOM     22  C   UNL     1       1.201  10.431  18.751  0.00  0.00    +0.000 C 
ATOM     23  C   UNL     1       0.716  10.605  19.995  0.00  0.00    +0.000 C 
ATOM     24  C   UNL     1       0.105   9.529  20.852  0.00  0.00    +0.000 C 
ATOM     25 BR   UNL     1       0.758  12.289  20.816  0.00  0.00    +0.000 Br
ENDBRANCH  21  22
ENDBRANCH  20  21
ENDBRANCH  18  20
ENDBRANCH  16  17
ENDBRANCH   1  16
TORSDOF 10
ENDMDL
MODEL 7
REMARK VINA RESULT:      -6.1      4.273      6.480
REMARK  Name = 
REMARK  16 active torsions:
REMARK  status: ('A' for Active; 'I' for Inactive)
REMARK    1  A    between atoms: C_1  and  O_2
REMARK    2  A    between atoms: O_2  and  C_3
REMARK    3  A    between atoms: C_3  and  C_5
REMARK    4  A    between atoms: C_5  and  C_6
REMARK    5  A    between atoms: C_5  and  N_7
REMARK    6  A    between atoms: C_8  and  C_10
REMARK    7  A    between atoms: C_11  and  C_12
REMARK    8  A    between atoms: C_12  and  C_13
REMARK    9  A    between atoms: C_12  and  C_14
REMARK   10  A    between atoms: C_12  and  C_15
REMARK   11  A    between atoms: C_15  and  C_16
REMARK   12  A    between atoms: C_17  and  C_18
REMARK   13  A    between atoms: C_17  and  C_19
REMARK   14  A    between atoms: C_19  and  C_20
REMARK   15  A    between atoms: C_20  and  C_21
REMARK   16  A    between atoms: C_22  and  C_23
REMARK                            x       y       z     vdW  Elec       q    Type
REMARK                         _______ _______ _______ _____ _____    ______ ____
ROOT
ATOM      1  C   UNL     1       5.562   5.382  15.774  0.00  0.00    +0.000 C 
ATOM      2  C   UNL     1       5.378   4.496  14.519  0.00  0.00    +0.000 C 
ATOM      3  C   UNL     1       5.368   6.858  15.377  0.00  0.00    +0.000 C 
ENDROOT
BRANCH   1   5
ATOM      4  C   UNL     1       3.865   5.893  17.612  0.00  0.00    +0.000 C 
ATOM      5  C   UNL     1       4.537   5.020  16.846  0.00  0.00    +0.000 C 
BRANCH   4   7
ATOM      6  N   UNL     1       2.567   4.081  18.437  0.00  0.00    +0.000 N 
ATOM      7  C   UNL     1       2.902   5.396  18.623  0.00  0.00    +0.000 C 
ATOM      8  O   UNL     1       2.462   6.092  19.524  0.00  0.00    +0.000 OA
ATOM      9  H   UNL     1       2.959   3.536  17.676  0.00  0.00    +0.000 HD
BRANCH   6  10
ATOM     10  C   UNL     1       1.631   3.410  19.331  0.00  0.00    +0.000 C 
ATOM     11  C   UNL     1       0.401   2.933  18.572  0.00  0.00    +0.000 C 
BRANCH  10  12
ATOM     12  C   UNL     1       2.339   2.221  19.975  0.00  0.00    +0.000 C 
ATOM     13  O   UNL     1       3.010   1.401  19.359  0.00  0.00    +0.000 OA
BRANCH  12  15
ATOM     14  C   UNL     1       2.167   3.476  21.950  0.00  0.00    +0.000 C 
ATOM     15  O   UNL     1       2.098   2.199  21.316  0.00  0.00    +0.000 OA
ENDBRANCH  12  15
ENDBRANCH  10  12
ENDBRANCH   6  10
ENDBRANCH   4   7
ENDBRANCH   1   5
BRANCH   1  16
ATOM     16  C   UNL     1       7.017   5.236  16.331  0.00  0.00    +0.000 C 
BRANCH  16  17
ATOM     17  C   UNL     1       7.542   6.482  16.991  0.00  0.00    +0.000 C 
ATOM     18  C   UNL     1       7.861   6.671  18.287  0.00  0.00    +0.000 C 
ATOM     19  C   UNL     1       7.727   5.586  19.321  0.00  0.00    +0.000 C 
BRANCH  18  20
ATOM     20  C   UNL     1       8.396   8.008  18.806  0.00  0.00    +0.000 C 
BRANCH  20  21
ATOM     21  C   UNL     1       7.979   9.220  17.952  0.00  0.00    +0.000 C 
BRANCH  21  22
ATOM     22  C   UNL     1       9.020  10.258  17.667  0.00  0.00    +0.000 C 
ATOM     23  C   UNL     1       9.620  10.959  18.648  0.00  0.00    +0.000 C 
ATOM     24  C   UNL     1       9.345  10.812  20.121  0.00  0.00    +0.000 C 
ATOM     25 BR   UNL     1      10.918  12.252  18.250  0.00  0.00    +0.000 Br
ENDBRANCH  21  22
ENDBRANCH  20  21
ENDBRANCH  18  20
ENDBRANCH  16  17
ENDBRANCH   1  16
TORSDOF 10
ENDMDL
MODEL 8
REMARK VINA RESULT:      -6.1      2.810      3.703
REMARK  Name = 
REMARK  16 active torsions:
REMARK  status: ('A' for Active; 'I' for Inactive)
REMARK    1  A    between atoms: C_1  and  O_2
REMARK    2  A    between atoms: O_2  and  C_3
REMARK    3  A    between atoms: C_3  and  C_5
REMARK    4  A    between atoms: C_5  and  C_6
REMARK    5  A    between atoms: C_5  and  N_7
REMARK    6  A    between atoms: C_8  and  C_10
REMARK    7  A    between atoms: C_11  and  C_12
REMARK    8  A    between atoms: C_12  and  C_13
REMARK    9  A    between atoms: C_12  and  C_14
REMARK   10  A    between atoms: C_12  and  C_15
REMARK   11  A    between atoms: C_15  and  C_16
REMARK   12  A    between atoms: C_17  and  C_18
REMARK   13  A    between atoms: C_17  and  C_19
REMARK   14  A    between atoms: C_19  and  C_20
REMARK   15  A    between atoms: C_20  and  C_21
REMARK   16  A    between atoms: C_22  and  C_23
REMARK                            x       y       z     vdW  Elec       q    Type
REMARK                         _______ _______ _______ _____ _____    ______ ____
ROOT
ATOM      1  C   UNL     1       3.754   4.659  18.876  0.00  0.00    +0.000 C 
ATOM      2  C   UNL     1       5.059   4.876  19.677  0.00  0.00    +0.000 C 
ATOM      3  C   UNL     1       2.679   4.085  19.817  0.00  0.00    +0.000 C 
ENDROOT
BRANCH   1   5
ATOM      4  C   UNL     1       2.706   6.984  18.998  0.00  0.00    +0.000 C 
ATOM      5  C   UNL     1       3.250   5.978  18.296  0.00  0.00    +0.000 C 
BRANCH   4   7
ATOM      6  N   UNL     1       1.463   9.008  19.083  0.00  0.00    +0.000 N 
ATOM      7  C   UNL     1       2.251   8.208  18.298  0.00  0.00    +0.000 C 
ATOM      8  O   UNL     1       2.553   8.469  17.144  0.00  0.00    +0.000 OA
ATOM      9  H   UNL     1       1.238   8.756  20.040  0.00  0.00    +0.000 HD
BRANCH   6  10
ATOM     10  C   UNL     1       0.917  10.259  18.572  0.00  0.00    +0.000 C 
ATOM     11  C   UNL     1      -0.522  10.077  18.111  0.00  0.00    +0.000 C 
BRANCH  10  12
ATOM     12  C   UNL     1       0.981  11.308  19.679  0.00  0.00    +0.000 C 
ATOM     13  O   UNL     1       0.564  11.134  20.818  0.00  0.00    +0.000 OA
BRANCH  12  15
ATOM     14  C   UNL     1       2.452  12.268  18.124  0.00  0.00    +0.000 C 
ATOM     15  O   UNL     1       1.545  12.456  19.210  0.00  0.00    +0.000 OA
ENDBRANCH  12  15
ENDBRANCH  10  12
ENDBRANCH   6  10
ENDBRANCH   4   7
ENDBRANCH   1   5
BRANCH   1  16
ATOM     16  C   UNL     1       3.987   3.610  17.737  0.00  0.00    +0.000 C 
BRANCH  16  17
ATOM     17  C   UNL     1       4.533   4.204  16.467  0.00  0.00    +0.000 C 
ATOM     18  C   UNL     1       5.815   4.482  16.158  0.00  0.00    +0.000 C 
ATOM     19  C   UNL     1       6.953   4.217  17.107  0.00  0.00    +0.000 C 
BRANCH  18  20
ATOM     20  C   UNL     1       6.213   5.083  14.807  0.00  0.00    +0.000 C 
BRANCH  20  21
ATOM     21  C   UNL     1       6.227   4.065  13.652  0.00  0.00    +0.000 C 
BRANCH  21  22
ATOM     22  C   UNL     1       5.054   4.061  12.720  0.00  0.00    +0.000 C 
ATOM     23  C   UNL     1       4.897   3.119  11.771  0.00  0.00    +0.000 C 
ATOM     24  C   UNL     1       5.840   1.974  11.512  0.00  0.00    +0.000 C 
ATOM     25 BR   UNL     1       3.416   3.149  10.622  0.00  0.00    +0.000 Br
ENDBRANCH  21  22
ENDBRANCH  20  21
ENDBRANCH  18  20
ENDBRANCH  16  17
ENDBRANCH   1  16
TORSDOF 10
ENDMDL
MODEL 9
REMARK VINA RESULT:      -6.0      4.938      6.945
REMARK  Name = 
REMARK  16 active torsions:
REMARK  status: ('A' for Active; 'I' for Inactive)
REMARK    1  A    between atoms: C_1  and  O_2
REMARK    2  A    between atoms: O_2  and  C_3
REMARK    3  A    between atoms: C_3  and  C_5
REMARK    4  A    between atoms: C_5  and  C_6
REMARK    5  A    between atoms: C_5  and  N_7
REMARK    6  A    between atoms: C_8  and  C_10
REMARK    7  A    between atoms: C_11  and  C_12
REMARK    8  A    between atoms: C_12  and  C_13
REMARK    9  A    between atoms: C_12  and  C_14
REMARK   10  A    between atoms: C_12  and  C_15
REMARK   11  A    between atoms: C_15  and  C_16
REMARK   12  A    between atoms: C_17  and  C_18
REMARK   13  A    between atoms: C_17  and  C_19
REMARK   14  A    between atoms: C_19  and  C_20
REMARK   15  A    between atoms: C_20  and  C_21
REMARK   16  A    between atoms: C_22  and  C_23
REMARK                            x       y       z     vdW  Elec       q    Type
REMARK                         _______ _______ _______ _____ _____    ______ ____
ROOT
ATOM      1  C   UNL     1       6.405   6.040  17.235  0.00  0.00    +0.000 C 
ATOM      2  C   UNL     1       5.714   5.885  15.860  0.00  0.00    +0.000 C 
ATOM      3  C   UNL     1       7.676   5.171  17.257  0.00  0.00    +0.000 C 
ENDROOT
BRANCH   1   5
ATOM      4  C   UNL     1       7.996   7.919  17.910  0.00  0.00    +0.000 C 
ATOM      5  C   UNL     1       6.797   7.494  17.483  0.00  0.00    +0.000 C 
BRANCH   4   7
ATOM      6  N   UNL     1       9.082   9.625  19.161  0.00  0.00    +0.000 N 
ATOM      7  C   UNL     1       8.234   9.367  18.115  0.00  0.00    +0.000 C 
ATOM      8  O   UNL     1       7.725  10.232  17.421  0.00  0.00    +0.000 OA
ATOM      9  H   UNL     1       9.486   8.875  19.712  0.00  0.00    +0.000 HD
BRANCH   6  10
ATOM     10  C   UNL     1       9.438  10.992  19.521  0.00  0.00    +0.000 C 
ATOM     11  C   UNL     1       9.468  11.166  21.032  0.00  0.00    +0.000 C 
BRANCH  10  12
ATOM     12  C   UNL     1      10.810  11.309  18.932  0.00  0.00    +0.000 C 
ATOM     13  O   UNL     1      11.856  11.289  19.571  0.00  0.00    +0.000 OA
BRANCH  12  15
ATOM     14  C   UNL     1      10.169  12.938  17.370  0.00  0.00    +0.000 C 
ATOM     15  O   UNL     1      10.695  11.633  17.614  0.00  0.00    +0.000 OA
ENDBRANCH  12  15
ENDBRANCH  10  12
ENDBRANCH   6  10
ENDBRANCH   4   7
ENDBRANCH   1   5
BRANCH   1  16
ATOM     16  C   UNL     1       5.465   5.522  18.375  0.00  0.00    +0.000 C 
BRANCH  16  17
ATOM     17  C   UNL     1       4.376   4.603  17.890  0.00  0.00    +0.000 C 
ATOM     18  C   UNL     1       4.038   3.385  18.361  0.00  0.00    +0.000 C 
ATOM     19  C   UNL     1       4.754   2.736  19.515  0.00  0.00    +0.000 C 
BRANCH  18  20
ATOM     20  C   UNL     1       2.889   2.572  17.760  0.00  0.00    +0.000 C 
BRANCH  20  21
ATOM     21  C   UNL     1       1.496   2.998  18.261  0.00  0.00    +0.000 C 
BRANCH  21  22
ATOM     22  C   UNL     1       1.368   4.358  18.876  0.00  0.00    +0.000 C 
ATOM     23  C   UNL     1       1.429   4.551  20.207  0.00  0.00    +0.000 C 
ATOM     24  C   UNL     1       1.629   3.472  21.238  0.00  0.00    +0.000 C 
ATOM     25 BR   UNL     1       1.262   6.269  20.937  0.00  0.00    +0.000 Br
ENDBRANCH  21  22
ENDBRANCH  20  21
ENDBRANCH  18  20
ENDBRANCH  16  17
ENDBRANCH   1  16
TORSDOF 10
ENDMDL
