MODEL 1
REMARK VINA RESULT:      -8.7      0.000      0.000
REMARK  Name = 
REMARK  6 active torsions:
REMARK  status: ('A' for Active; 'I' for Inactive)
REMARK    1  A    between atoms: C_2  and  C_12
REMARK    2  A    between atoms: N_3  and  C_4
REMARK    3  A    between atoms: C_4  and  C_5
REMARK    4  A    between atoms: C_5  and  N_6
REMARK    5  A    between atoms: N_20  and  C_21
REMARK    6  A    between atoms: C_21  and  C_22
REMARK                            x       y       z     vdW  Elec       q    Type
REMARK                         _______ _______ _______ _____ _____    ______ ____
ROOT
ATOM      1  C   UNL     1       3.027   5.524  18.936  0.00  0.00    +0.000 A 
ATOM      2  C   UNL     1       2.474   5.300  20.221  0.00  0.00    +0.000 A 
ATOM      3  C   UNL     1       1.718   6.295  20.864  0.00  0.00    +0.000 A 
ATOM      4  C   UNL     1       1.542   7.492  20.193  0.00  0.00    +0.000 A 
ATOM      5  C   UNL     1       2.098   7.709  18.953  0.00  0.00    +0.000 A 
ATOM      6  C   UNL     1       2.846   6.752  18.294  0.00  0.00    +0.000 A 
ATOM      7  C   UNL     1       1.749   9.059  18.532  0.00  0.00    +0.000 C 
ATOM      8  O   UNL     1       2.149   9.523  17.480  0.00  0.00    +0.000 OA
ATOM      9  N   UNL     1       0.965   9.589  19.516  0.00  0.00    +0.000 N 
ATOM     10  C   UNL     1       0.815   8.712  20.565  0.00  0.00    +0.000 C 
ATOM     11  O   UNL     1       0.221   8.862  21.603  0.00  0.00    +0.000 OA
ENDROOT
BRANCH   1  13
ATOM     12  O   UNL     1       4.261   3.528  18.867  0.00  0.00    +0.000 OA
ATOM     13  C   UNL     1       3.854   4.508  18.245  0.00  0.00    +0.000 C 
ATOM     14  N   UNL     1       4.138   4.743  16.925  0.00  0.00    +0.000 N 
ATOM     15  H   UNL     1       3.965   5.656  16.521  0.00  0.00    +0.000 HD
BRANCH  14  16
ATOM     16  C   UNL     1       4.978   3.822  16.175  0.00  0.00    +0.000 C 
BRANCH  16  17
ATOM     17  C   UNL     1       6.456   4.249  16.174  0.00  0.00    +0.000 C 
BRANCH  17  18
ATOM     18  N   UNL     1       6.718   5.314  17.169  0.00  0.00    +0.000 NA
ATOM     19  C   UNL     1       7.679   4.858  18.189  0.00  0.00    +0.000 C 
ATOM     20  C   UNL     1       7.915   5.918  19.260  0.00  0.00    +0.000 C 
ATOM     21  C   UNL     1       8.380   7.229  18.641  0.00  0.00    +0.000 C 
ATOM     22  C   UNL     1       7.424   7.662  17.535  0.00  0.00    +0.000 C 
ATOM     23  C   UNL     1       7.202   6.542  16.516  0.00  0.00    +0.000 C 
ENDBRANCH  17  18
ENDBRANCH  16  17
ENDBRANCH  14  16
ENDBRANCH   1  13
BRANCH   9  24
ATOM     24  C   UNL     1       0.397  10.935  19.549  0.00  0.00    +0.000 C 
BRANCH  24  25
ATOM     25  C   UNL     1      -1.033  11.012  19.056  0.00  0.00    +0.000 A 
ATOM     26  C   UNL     1      -1.446  10.253  17.944  0.00  0.00    +0.000 A 
ATOM     27  C   UNL     1      -2.707  10.451  17.373  0.00  0.00    +0.000 A 
ATOM     28  C   UNL     1      -3.582  11.378  17.932  0.00  0.00    +0.000 A 
ATOM     29 CL   UNL     1      -5.101  11.679  17.184  0.00  0.00    +0.000 Cl
ATOM     30  C   UNL     1      -3.220  12.086  19.077  0.00  0.00    +0.000 A 
ATOM     31  C   UNL     1      -1.949  11.905  19.636  0.00  0.00    +0.000 A 
ENDBRANCH  24  25
ENDBRANCH   9  24
TORSDOF 6
ENDMDL
MODEL 2
REMARK VINA RESULT:      -8.5      1.645      2.813
REMARK  Name = 
REMARK  6 active torsions:
REMARK  status: ('A' for Active; 'I' for Inactive)
REMARK    1  A    between atoms: C_2  and  C_12
REMARK    2  A    between atoms: N_3  and  C_4
REMARK    3  A    between atoms: C_4  and  C_5
REMARK    4  A    between atoms: C_5  and  N_6
REMARK    5  A    between atoms: N_20  and  C_21
REMARK    6  A    between atoms: C_21  and  C_22
REMARK                            x       y       z     vdW  Elec       q    Type
REMARK                         _______ _______ _______ _____ _____    ______ ____
ROOT
ATOM      1  C   UNL     1       3.247   5.835  18.641  0.00  0.00    +0.000 A 
ATOM      2  C   UNL     1       2.734   5.493  19.917  0.00  0.00    +0.000 A 
ATOM      3  C   UNL     1       1.941   6.399  20.642  0.00  0.00    +0.000 A 
ATOM      4  C   UNL     1       1.687   7.628  20.059  0.00  0.00    +0.000 A 
ATOM      5  C   UNL     1       2.203   7.960  18.827  0.00  0.00    +0.000 A 
ATOM      6  C   UNL     1       2.986   7.092  18.089  0.00  0.00    +0.000 A 
ATOM      7  C   UNL     1       1.773   9.314  18.508  0.00  0.00    +0.000 C 
ATOM      8  O   UNL     1       2.125   9.870  17.484  0.00  0.00    +0.000 OA
ATOM      9  N   UNL     1       0.984   9.732  19.540  0.00  0.00    +0.000 N 
ATOM     10  C   UNL     1       0.904   8.778  20.528  0.00  0.00    +0.000 C 
ATOM     11  O   UNL     1       0.326   8.824  21.585  0.00  0.00    +0.000 OA
ENDROOT
BRANCH   1  13
ATOM     12  O   UNL     1       3.717   3.778  17.612  0.00  0.00    +0.000 OA
ATOM     13  C   UNL     1       4.111   4.915  17.866  0.00  0.00    +0.000 C 
ATOM     14  N   UNL     1       5.338   5.397  17.490  0.00  0.00    +0.000 N 
ATOM     15  H   UNL     1       5.699   6.250  17.903  0.00  0.00    +0.000 HD
BRANCH  14  16
ATOM     16  C   UNL     1       6.272   4.553  16.763  0.00  0.00    +0.000 C 
BRANCH  16  17
ATOM     17  C   UNL     1       7.126   5.354  15.764  0.00  0.00    +0.000 C 
BRANCH  17  18
ATOM     18  N   UNL     1       6.728   5.082  14.364  0.00  0.00    +0.000 NA
ATOM     19  C   UNL     1       7.891   5.163  13.461  0.00  0.00    +0.000 C 
ATOM     20  C   UNL     1       7.492   4.948  12.004  0.00  0.00    +0.000 C 
ATOM     21  C   UNL     1       6.771   3.620  11.823  0.00  0.00    +0.000 C 
ATOM     22  C   UNL     1       5.614   3.505  12.809  0.00  0.00    +0.000 C 
ATOM     23  C   UNL     1       6.074   3.769  14.245  0.00  0.00    +0.000 C 
ENDBRANCH  17  18
ENDBRANCH  16  17
ENDBRANCH  14  16
ENDBRANCH   1  13
BRANCH   9  24
ATOM     24  C   UNL     1       0.346  11.039  19.678  0.00  0.00    +0.000 C 
BRANCH  24  25
ATOM     25  C   UNL     1      -1.020  11.128  19.029  0.00  0.00    +0.000 A 
ATOM     26  C   UNL     1      -1.973  12.055  19.495  0.00  0.00    +0.000 A 
ATOM     27  C   UNL     1      -3.290  12.023  19.026  0.00  0.00    +0.000 A 
ATOM     28  C   UNL     1      -3.656  11.093  18.058  0.00  0.00    +0.000 A 
ATOM     29 CL   UNL     1      -5.293  10.999  17.538  0.00  0.00    +0.000 Cl
ATOM     30  C   UNL     1      -2.710  10.216  17.530  0.00  0.00    +0.000 A 
ATOM     31  C   UNL     1      -1.397  10.232  18.015  0.00  0.00    +0.000 A 
ENDBRANCH  24  25
ENDBRANCH   9  24
TORSDOF 6
ENDMDL
MODEL 3
REMARK VINA RESULT:      -8.4      0.595      1.065
REMARK  Name = 
REMARK  6 active torsions:
REMARK  status: ('A' for Active; 'I' for Inactive)
REMARK    1  A    between atoms: C_2  and  C_12
REMARK    2  A    between atoms: N_3  and  C_4
REMARK    3  A    between atoms: C_4  and  C_5
REMARK    4  A    between atoms: C_5  and  N_6
REMARK    5  A    between atoms: N_20  and  C_21
REMARK    6  A    between atoms: C_21  and  C_22
REMARK                            x       y       z     vdW  Elec       q    Type
REMARK                         _______ _______ _______ _____ _____    ______ ____
ROOT
ATOM      1  C   UNL     1       2.708   5.915  19.307  0.00  0.00    +0.000 A 
ATOM      2  C   UNL     1       2.075   5.862  20.574  0.00  0.00    +0.000 A 
ATOM      3  C   UNL     1       1.331   6.953  21.054  0.00  0.00    +0.000 A 
ATOM      4  C   UNL     1       1.246   8.070  20.243  0.00  0.00    +0.000 A 
ATOM      5  C   UNL     1       1.879   8.122  19.021  0.00  0.00    +0.000 A 
ATOM      6  C   UNL     1       2.618   7.067  18.521  0.00  0.00    +0.000 A 
ATOM      7  C   UNL     1       1.615   9.427  18.432  0.00  0.00    +0.000 C 
ATOM      8  O   UNL     1       2.093   9.750  17.360  0.00  0.00    +0.000 OA
ATOM      9  N   UNL     1       0.803  10.097  19.300  0.00  0.00    +0.000 N 
ATOM     10  C   UNL     1       0.555   9.352  20.430  0.00  0.00    +0.000 C 
ATOM     11  O   UNL     1      -0.087   9.644  21.408  0.00  0.00    +0.000 OA
ENDROOT
BRANCH   1  13
ATOM     12  O   UNL     1       4.045   4.003  19.571  0.00  0.00    +0.000 OA
ATOM     13  C   UNL     1       3.525   4.795  18.786  0.00  0.00    +0.000 C 
ATOM     14  N   UNL     1       3.671   4.724  17.424  0.00  0.00    +0.000 N 
ATOM     15  H   UNL     1       3.408   5.510  16.842  0.00  0.00    +0.000 HD
BRANCH  14  16
ATOM     16  C   UNL     1       4.489   3.683  16.823  0.00  0.00    +0.000 C 
BRANCH  16  17
ATOM     17  C   UNL     1       5.895   4.188  16.452  0.00  0.00    +0.000 C 
BRANCH  17  18
ATOM     18  N   UNL     1       6.331   5.290  17.339  0.00  0.00    +0.000 NA
ATOM     19  C   UNL     1       7.491   4.882  18.154  0.00  0.00    +0.000 C 
ATOM     20  C   UNL     1       7.918   5.982  19.121  0.00  0.00    +0.000 C 
ATOM     21  C   UNL     1       8.218   7.278  18.381  0.00  0.00    +0.000 C 
ATOM     22  C   UNL     1       7.048   7.659  17.482  0.00  0.00    +0.000 C 
ATOM     23  C   UNL     1       6.646   6.501  16.565  0.00  0.00    +0.000 C 
ENDBRANCH  17  18
ENDBRANCH  16  17
ENDBRANCH  14  16
ENDBRANCH   1  13
BRANCH   9  24
ATOM     24  C   UNL     1       0.295  11.458  19.148  0.00  0.00    +0.000 C 
BRANCH  24  25
ATOM     25  C   UNL     1      -1.167  11.530  18.756  0.00  0.00    +0.000 A 
ATOM     26  C   UNL     1      -2.082  12.252  19.545  0.00  0.00    +0.000 A 
ATOM     27  C   UNL     1      -3.456  12.176  19.295  0.00  0.00    +0.000 A 
ATOM     28  C   UNL     1      -3.924  11.412  18.230  0.00  0.00    +0.000 A 
ATOM     29 CL   UNL     1      -5.617  11.254  17.970  0.00  0.00    +0.000 Cl
ATOM     30  C   UNL     1      -3.029  10.749  17.392  0.00  0.00    +0.000 A 
ATOM     31  C   UNL     1      -1.655  10.806  17.655  0.00  0.00    +0.000 A 
ENDBRANCH  24  25
ENDBRANCH   9  24
TORSDOF 6
ENDMDL
MODEL 4
REMARK VINA RESULT:      -8.4      0.531      1.029
REMARK  Name = 
REMARK  6 active torsions:
REMARK  status: ('A' for Active; 'I' for Inactive)
REMARK    1  A    between atoms: C_2  and  C_12
REMARK    2  A    between atoms: N_3  and  C_4
REMARK    3  A    between atoms: C_4  and  C_5
REMARK    4  A    between atoms: C_5  and  N_6
REMARK    5  A    between atoms: N_20  and  C_21
REMARK    6  A    between atoms: C_21  and  C_22
REMARK                            x       y       z     vdW  Elec       q    Type
REMARK                         _______ _______ _______ _____ _____    ______ ____
ROOT
ATOM      1  C   UNL     1       3.145   5.366  18.572  0.00  0.00    +0.000 A 
ATOM      2  C   UNL     1       2.695   5.062  19.881  0.00  0.00    +0.000 A 
ATOM      3  C   UNL     1       2.001   6.017  20.645  0.00  0.00    +0.000 A 
ATOM      4  C   UNL     1       1.783   7.255  20.067  0.00  0.00    +0.000 A 
ATOM      5  C   UNL     1       2.239   7.549  18.802  0.00  0.00    +0.000 A 
ATOM      6  C   UNL     1       2.924   6.633  18.026  0.00  0.00    +0.000 A 
ATOM      7  C   UNL     1       1.869   8.924  18.498  0.00  0.00    +0.000 C 
ATOM      8  O   UNL     1       2.188   9.453  17.449  0.00  0.00    +0.000 OA
ATOM      9  N   UNL     1       1.171   9.393  19.574  0.00  0.00    +0.000 N 
ATOM     10  C   UNL     1       1.098   8.451  20.573  0.00  0.00    +0.000 C 
ATOM     11  O   UNL     1       0.591   8.536  21.664  0.00  0.00    +0.000 OA
ENDROOT
BRANCH   1  13
ATOM     12  O   UNL     1       3.961   3.215  18.103  0.00  0.00    +0.000 OA
ATOM     13  C   UNL     1       3.905   4.394  17.753  0.00  0.00    +0.000 C 
ATOM     14  N   UNL     1       4.534   4.888  16.640  0.00  0.00    +0.000 N 
ATOM     15  H   UNL     1       4.637   5.888  16.515  0.00  0.00    +0.000 HD
BRANCH  14  16
ATOM     16  C   UNL     1       5.338   4.016  15.798  0.00  0.00    +0.000 C 
BRANCH  16  17
ATOM     17  C   UNL     1       6.602   4.718  15.272  0.00  0.00    +0.000 C 
BRANCH  17  18
ATOM     18  N   UNL     1       7.397   5.309  16.372  0.00  0.00    +0.000 NA
ATOM     19  C   UNL     1       6.864   6.628  16.757  0.00  0.00    +0.000 C 
ATOM     20  C   UNL     1       7.706   7.283  17.847  0.00  0.00    +0.000 C 
ATOM     21  C   UNL     1       7.822   6.381  19.068  0.00  0.00    +0.000 C 
ATOM     22  C   UNL     1       8.303   4.994  18.658  0.00  0.00    +0.000 C 
ATOM     23  C   UNL     1       7.440   4.410  17.537  0.00  0.00    +0.000 C 
ENDBRANCH  17  18
ENDBRANCH  16  17
ENDBRANCH  14  16
ENDBRANCH   1  13
BRANCH   9  24
ATOM     24  C   UNL     1       0.619  10.736  19.738  0.00  0.00    +0.000 C 
BRANCH  24  25
ATOM     25  C   UNL     1      -0.786  10.894  19.195  0.00  0.00    +0.000 A 
ATOM     26  C   UNL     1      -1.192  10.188  18.047  0.00  0.00    +0.000 A 
ATOM     27  C   UNL     1      -2.419  10.461  17.436  0.00  0.00    +0.000 A 
ATOM     28  C   UNL     1      -3.271  11.412  17.991  0.00  0.00    +0.000 A 
ATOM     29 CL   UNL     1      -4.745  11.806  17.197  0.00  0.00    +0.000 Cl
ATOM     30  C   UNL     1      -2.920  12.069  19.169  0.00  0.00    +0.000 A 
ATOM     31  C   UNL     1      -1.682  11.812  19.769  0.00  0.00    +0.000 A 
ENDBRANCH  24  25
ENDBRANCH   9  24
TORSDOF 6
ENDMDL
MODEL 5
REMARK VINA RESULT:      -8.1      2.205      3.368
REMARK  Name = 
REMARK  6 active torsions:
REMARK  status: ('A' for Active; 'I' for Inactive)
REMARK    1  A    between atoms: C_2  and  C_12
REMARK    2  A    between atoms: N_3  and  C_4
REMARK    3  A    between atoms: C_4  and  C_5
REMARK    4  A    between atoms: C_5  and  N_6
REMARK    5  A    between atoms: N_20  and  C_21
REMARK    6  A    between atoms: C_21  and  C_22
REMARK                            x       y       z     vdW  Elec       q    Type
REMARK                         _______ _______ _______ _____ _____    ______ ____
ROOT
ATOM      1  C   UNL     1       2.048   7.246  19.525  0.00  0.00    +0.000 A 
ATOM      2  C   UNL     1       2.076   7.933  18.286  0.00  0.00    +0.000 A 
ATOM      3  C   UNL     1       1.672   9.276  18.197  0.00  0.00    +0.000 A 
ATOM      4  C   UNL     1       1.248   9.890  19.362  0.00  0.00    +0.000 A 
ATOM      5  C   UNL     1       1.206   9.211  20.558  0.00  0.00    +0.000 A 
ATOM      6  C   UNL     1       1.596   7.891  20.680  0.00  0.00    +0.000 A 
ATOM      7  C   UNL     1       0.700  10.122  21.576  0.00  0.00    +0.000 C 
ATOM      8  O   UNL     1       0.526   9.761  22.725  0.00  0.00    +0.000 OA
ATOM      9  N   UNL     1       0.493  11.324  20.963  0.00  0.00    +0.000 N 
ATOM     10  C   UNL     1       0.778  11.258  19.619  0.00  0.00    +0.000 C 
ATOM     11  O   UNL     1       0.678  12.114  18.776  0.00  0.00    +0.000 OA
ENDROOT
BRANCH   1  13
ATOM     12  O   UNL     1       2.218   5.218  20.696  0.00  0.00    +0.000 OA
ATOM     13  C   UNL     1       2.437   5.823  19.647  0.00  0.00    +0.000 C 
ATOM     14  N   UNL     1       3.056   5.260  18.561  0.00  0.00    +0.000 N 
ATOM     15  H   UNL     1       3.405   5.848  17.813  0.00  0.00    +0.000 HD
BRANCH  14  16
ATOM     16  C   UNL     1       3.513   3.880  18.602  0.00  0.00    +0.000 C 
BRANCH  16  17
ATOM     17  C   UNL     1       4.800   3.717  19.429  0.00  0.00    +0.000 C 
BRANCH  17  18
ATOM     18  N   UNL     1       5.981   4.248  18.712  0.00  0.00    +0.000 NA
ATOM     19  C   UNL     1       5.706   4.381  17.270  0.00  0.00    +0.000 C 
ATOM     20  C   UNL     1       6.931   4.867  16.502  0.00  0.00    +0.000 C 
ATOM     21  C   UNL     1       7.445   6.184  17.067  0.00  0.00    +0.000 C 
ATOM     22  C   UNL     1       7.659   6.068  18.572  0.00  0.00    +0.000 C 
ATOM     23  C   UNL     1       6.407   5.539  19.277  0.00  0.00    +0.000 C 
ENDBRANCH  17  18
ENDBRANCH  16  17
ENDBRANCH  14  16
ENDBRANCH   1  13
BRANCH   9  24
ATOM     24  C   UNL     1      -0.037  12.539  21.579  0.00  0.00    +0.000 C 
BRANCH  24  25
ATOM     25  C   UNL     1      -1.531  12.502  21.825  0.00  0.00    +0.000 A 
ATOM     26  C   UNL     1      -2.434  12.741  20.771  0.00  0.00    +0.000 A 
ATOM     27  C   UNL     1      -3.802  12.887  21.021  0.00  0.00    +0.000 A 
ATOM     28  C   UNL     1      -4.285  12.755  22.320  0.00  0.00    +0.000 A 
ATOM     29 CL   UNL     1      -5.955  13.013  22.641  0.00  0.00    +0.000 Cl
ATOM     30  C   UNL     1      -3.417  12.445  23.366  0.00  0.00    +0.000 A 
ATOM     31  C   UNL     1      -2.045  12.321  23.120  0.00  0.00    +0.000 A 
ENDBRANCH  24  25
ENDBRANCH   9  24
TORSDOF 6
ENDMDL
MODEL 6
REMARK VINA RESULT:      -8.1      2.216      3.516
REMARK  Name = 
REMARK  6 active torsions:
REMARK  status: ('A' for Active; 'I' for Inactive)
REMARK    1  A    between atoms: C_2  and  C_12
REMARK    2  A    between atoms: N_3  and  C_4
REMARK    3  A    between atoms: C_4  and  C_5
REMARK    4  A    between atoms: C_5  and  N_6
REMARK    5  A    between atoms: N_20  and  C_21
REMARK    6  A    between atoms: C_21  and  C_22
REMARK                            x       y       z     vdW  Elec       q    Type
REMARK                         _______ _______ _______ _____ _____    ______ ____
ROOT
ATOM      1  C   UNL     1       1.976   7.219  19.736  0.00  0.00    +0.000 A 
ATOM      2  C   UNL     1       2.027   7.839  18.463  0.00  0.00    +0.000 A 
ATOM      3  C   UNL     1       1.629   9.176  18.296  0.00  0.00    +0.000 A 
ATOM      4  C   UNL     1       1.189   9.853  19.419  0.00  0.00    +0.000 A 
ATOM      5  C   UNL     1       1.125   9.239  20.649  0.00  0.00    +0.000 A 
ATOM      6  C   UNL     1       1.508   7.926  20.848  0.00  0.00    +0.000 A 
ATOM      7  C   UNL     1       0.607  10.204  21.608  0.00  0.00    +0.000 C 
ATOM      8  O   UNL     1       0.413   9.906  22.773  0.00  0.00    +0.000 OA
ATOM      9  N   UNL     1       0.415  11.373  20.929  0.00  0.00    +0.000 N 
ATOM     10  C   UNL     1       0.721  11.233  19.595  0.00  0.00    +0.000 C 
ATOM     11  O   UNL     1       0.637  12.044  18.706  0.00  0.00    +0.000 OA
ENDROOT
BRANCH   1  13
ATOM     12  O   UNL     1       2.153   5.267  21.029  0.00  0.00    +0.000 OA
ATOM     13  C   UNL     1       2.358   5.803  19.941  0.00  0.00    +0.000 C 
ATOM     14  N   UNL     1       2.955   5.169  18.881  0.00  0.00    +0.000 N 
ATOM     15  H   UNL     1       3.294   5.706  18.092  0.00  0.00    +0.000 HD
BRANCH  14  16
ATOM     16  C   UNL     1       3.402   3.791  19.002  0.00  0.00    +0.000 C 
BRANCH  16  17
ATOM     17  C   UNL     1       4.914   3.645  18.753  0.00  0.00    +0.000 C 
BRANCH  17  18
ATOM     18  N   UNL     1       5.357   4.451  17.593  0.00  0.00    +0.000 NA
ATOM     19  C   UNL     1       6.783   4.806  17.712  0.00  0.00    +0.000 C 
ATOM     20  C   UNL     1       7.244   5.691  16.558  0.00  0.00    +0.000 C 
ATOM     21  C   UNL     1       6.974   5.026  15.216  0.00  0.00    +0.000 C 
ATOM     22  C   UNL     1       5.516   4.591  15.123  0.00  0.00    +0.000 C 
ATOM     23  C   UNL     1       5.107   3.741  16.328  0.00  0.00    +0.000 C 
ENDBRANCH  17  18
ENDBRANCH  16  17
ENDBRANCH  14  16
ENDBRANCH   1  13
BRANCH   9  24
ATOM     24  C   UNL     1      -0.121  12.620  21.471  0.00  0.00    +0.000 C 
BRANCH  24  25
ATOM     25  C   UNL     1      -1.608  12.580  21.754  0.00  0.00    +0.000 A 
ATOM     26  C   UNL     1      -2.537  12.850  20.730  0.00  0.00    +0.000 A 
ATOM     27  C   UNL     1      -3.898  12.992  21.020  0.00  0.00    +0.000 A 
ATOM     28  C   UNL     1      -4.348  12.824  22.326  0.00  0.00    +0.000 A 
ATOM     29 CL   UNL     1      -6.008  13.076  22.698  0.00  0.00    +0.000 Cl
ATOM     30  C   UNL     1      -3.454  12.483  23.341  0.00  0.00    +0.000 A 
ATOM     31  C   UNL     1      -2.089  12.363  23.056  0.00  0.00    +0.000 A 
ENDBRANCH  24  25
ENDBRANCH   9  24
TORSDOF 6
ENDMDL
MODEL 7
REMARK VINA RESULT:      -8.1      2.354      3.425
REMARK  Name = 
REMARK  6 active torsions:
REMARK  status: ('A' for Active; 'I' for Inactive)
REMARK    1  A    between atoms: C_2  and  C_12
REMARK    2  A    between atoms: N_3  and  C_4
REMARK    3  A    between atoms: C_4  and  C_5
REMARK    4  A    between atoms: C_5  and  N_6
REMARK    5  A    between atoms: N_20  and  C_21
REMARK    6  A    between atoms: C_21  and  C_22
REMARK                            x       y       z     vdW  Elec       q    Type
REMARK                         _______ _______ _______ _____ _____    ______ ____
ROOT
ATOM      1  C   UNL     1       2.052   7.584  18.966  0.00  0.00    +0.000 A 
ATOM      2  C   UNL     1       1.975   8.376  17.793  0.00  0.00    +0.000 A 
ATOM      3  C   UNL     1       1.539   9.711  17.853  0.00  0.00    +0.000 A 
ATOM      4  C   UNL     1       1.191  10.211  19.094  0.00  0.00    +0.000 A 
ATOM      5  C   UNL     1       1.251   9.430  20.226  0.00  0.00    +0.000 A 
ATOM      6  C   UNL     1       1.674   8.115  20.203  0.00  0.00    +0.000 A 
ATOM      7  C   UNL     1       0.804  10.236  21.354  0.00  0.00    +0.000 C 
ATOM      8  O   UNL     1       0.723   9.772  22.477  0.00  0.00    +0.000 OA
ATOM      9  N   UNL     1       0.529  11.481  20.866  0.00  0.00    +0.000 N 
ATOM     10  C   UNL     1       0.715  11.538  19.505  0.00  0.00    +0.000 C 
ATOM     11  O   UNL     1       0.536  12.461  18.750  0.00  0.00    +0.000 OA
ENDROOT
BRANCH   1  13
ATOM     12  O   UNL     1       2.024   5.413  18.072  0.00  0.00    +0.000 OA
ATOM     13  C   UNL     1       2.477   6.166  18.933  0.00  0.00    +0.000 C 
ATOM     14  N   UNL     1       3.356   5.766  19.907  0.00  0.00    +0.000 N 
ATOM     15  H   UNL     1       3.529   6.358  20.710  0.00  0.00    +0.000 HD
BRANCH  14  16
ATOM     16  C   UNL     1       3.797   4.383  19.981  0.00  0.00    +0.000 C 
BRANCH  16  17
ATOM     17  C   UNL     1       5.077   4.135  19.163  0.00  0.00    +0.000 C 
BRANCH  17  18
ATOM     18  N   UNL     1       5.745   5.404  18.795  0.00  0.00    +0.000 NA
ATOM     19  C   UNL     1       7.189   5.341  19.081  0.00  0.00    +0.000 C 
ATOM     20  C   UNL     1       7.886   6.662  18.768  0.00  0.00    +0.000 C 
ATOM     21  C   UNL     1       7.650   7.078  17.323  0.00  0.00    +0.000 C 
ATOM     22  C   UNL     1       6.159   7.070  17.006  0.00  0.00    +0.000 C 
ATOM     23  C   UNL     1       5.514   5.733  17.379  0.00  0.00    +0.000 C 
ENDBRANCH  17  18
ENDBRANCH  16  17
ENDBRANCH  14  16
ENDBRANCH   1  13
BRANCH   9  24
ATOM     24  C   UNL     1       0.023  12.623  21.624  0.00  0.00    +0.000 C 
BRANCH  24  25
ATOM     25  C   UNL     1      -1.461  12.556  21.920  0.00  0.00    +0.000 A 
ATOM     26  C   UNL     1      -2.402  12.938  20.944  0.00  0.00    +0.000 A 
ATOM     27  C   UNL     1      -3.759  13.051  21.266  0.00  0.00    +0.000 A 
ATOM     28  C   UNL     1      -4.192  12.743  22.552  0.00  0.00    +0.000 A 
ATOM     29 CL   UNL     1      -5.847  12.957  22.970  0.00  0.00    +0.000 Cl
ATOM     30  C   UNL     1      -3.287  12.292  23.511  0.00  0.00    +0.000 A 
ATOM     31  C   UNL     1      -1.927  12.200  23.197  0.00  0.00    +0.000 A 
ENDBRANCH  24  25
ENDBRANCH   9  24
TORSDOF 6
ENDMDL
MODEL 8
REMARK VINA RESULT:      -8.0      2.243      3.466
REMARK  Name = 
REMARK  6 active torsions:
REMARK  status: ('A' for Active; 'I' for Inactive)
REMARK    1  A    between atoms: C_2  and  C_12
REMARK    2  A    between atoms: N_3  and  C_4
REMARK    3  A    between atoms: C_4  and  C_5
REMARK    4  A    between atoms: C_5  and  N_6
REMARK    5  A    between atoms: N_20  and  C_21
REMARK    6  A    between atoms: C_21  and  C_22
REMARK                            x       y       z     vdW  Elec       q    Type
REMARK                         _______ _______ _______ _____ _____    ______ ____
ROOT
ATOM      1  C   UNL     1       1.633   8.429  19.561  0.00  0.00    +0.000 A 
ATOM      2  C   UNL     1       1.497   8.009  20.908  0.00  0.00    +0.000 A 
ATOM      3  C   UNL     1       0.795   8.792  21.840  0.00  0.00    +0.000 A 
ATOM      4  C   UNL     1       0.249   9.981  21.388  0.00  0.00    +0.000 A 
ATOM      5  C   UNL     1       0.401  10.391  20.082  0.00  0.00    +0.000 A 
ATOM      6  C   UNL     1       1.085   9.645  19.142  0.00  0.00    +0.000 A 
ATOM      7  C   UNL     1      -0.264  11.677  19.934  0.00  0.00    +0.000 C 
ATOM      8  O   UNL     1      -0.249  12.286  18.880  0.00  0.00    +0.000 OA
ATOM      9  N   UNL     1      -0.824  11.975  21.143  0.00  0.00    +0.000 N 
ATOM     10  C   UNL     1      -0.537  11.010  22.080  0.00  0.00    +0.000 C 
ATOM     11  O   UNL     1      -0.839  10.967  23.246  0.00  0.00    +0.000 OA
ENDROOT
BRANCH   1  13
ATOM     12  O   UNL     1       2.888   8.209  17.589  0.00  0.00    +0.000 OA
ATOM     13  C   UNL     1       2.392   7.642  18.562  0.00  0.00    +0.000 C 
ATOM     14  N   UNL     1       2.476   6.291  18.780  0.00  0.00    +0.000 N 
ATOM     15  H   UNL     1       1.878   5.848  19.467  0.00  0.00    +0.000 HD
BRANCH  14  16
ATOM     16  C   UNL     1       3.166   5.432  17.831  0.00  0.00    +0.000 C 
BRANCH  16  17
ATOM     17  C   UNL     1       4.216   4.536  18.512  0.00  0.00    +0.000 C 
BRANCH  17  18
ATOM     18  N   UNL     1       5.594   4.978  18.202  0.00  0.00    +0.000 NA
ATOM     19  C   UNL     1       5.586   6.074  17.216  0.00  0.00    +0.000 C 
ATOM     20  C   UNL     1       7.000   6.503  16.834  0.00  0.00    +0.000 C 
ATOM     21  C   UNL     1       7.804   6.901  18.063  0.00  0.00    +0.000 C 
ATOM     22  C   UNL     1       7.750   5.797  19.113  0.00  0.00    +0.000 C 
ATOM     23  C   UNL     1       6.308   5.388  19.422  0.00  0.00    +0.000 C 
ENDBRANCH  17  18
ENDBRANCH  16  17
ENDBRANCH  14  16
ENDBRANCH   1  13
BRANCH   9  24
ATOM     24  C   UNL     1      -1.573  13.183  21.485  0.00  0.00    +0.000 C 
BRANCH  24  25
ATOM     25  C   UNL     1      -3.074  13.035  21.349  0.00  0.00    +0.000 A 
ATOM     26  C   UNL     1      -3.903  13.089  22.487  0.00  0.00    +0.000 A 
ATOM     27  C   UNL     1      -5.263  12.776  22.395  0.00  0.00    +0.000 A 
ATOM     28  C   UNL     1      -5.815  12.448  21.161  0.00  0.00    +0.000 A 
ATOM     29 CL   UNL     1      -7.469  11.986  21.060  0.00  0.00    +0.000 Cl
ATOM     30  C   UNL     1      -5.027  12.462  20.011  0.00  0.00    +0.000 A 
ATOM     31  C   UNL     1      -3.662  12.752  20.105  0.00  0.00    +0.000 A 
ENDBRANCH  24  25
ENDBRANCH   9  24
TORSDOF 6
ENDMDL
MODEL 9
REMARK VINA RESULT:      -8.0      2.958      4.688
REMARK  Name = 
REMARK  6 active torsions:
REMARK  status: ('A' for Active; 'I' for Inactive)
REMARK    1  A    between atoms: C_2  and  C_12
REMARK    2  A    between atoms: N_3  and  C_4
REMARK    3  A    between atoms: C_4  and  C_5
REMARK    4  A    between atoms: C_5  and  N_6
REMARK    5  A    between atoms: N_20  and  C_21
REMARK    6  A    between atoms: C_21  and  C_22
REMARK                            x       y       z     vdW  Elec       q    Type
REMARK                         _______ _______ _______ _____ _____    ______ ____
ROOT
ATOM      1  C   UNL     1       1.599   8.744  19.444  0.00  0.00    +0.000 A 
ATOM      2  C   UNL     1       1.414   8.123  20.704  0.00  0.00    +0.000 A 
ATOM      3  C   UNL     1       0.701   8.769  21.729  0.00  0.00    +0.000 A 
ATOM      4  C   UNL     1       0.195  10.027  21.454  0.00  0.00    +0.000 A 
ATOM      5  C   UNL     1       0.394  10.632  20.234  0.00  0.00    +0.000 A 
ATOM      6  C   UNL     1       1.090  10.024  19.206  0.00  0.00    +0.000 A 
ATOM      7  C   UNL     1      -0.239  11.942  20.272  0.00  0.00    +0.000 C 
ATOM      8  O   UNL     1      -0.180  12.707  19.327  0.00  0.00    +0.000 OA
ATOM      9  N   UNL     1      -0.828  12.061  21.497  0.00  0.00    +0.000 N 
ATOM     10  C   UNL     1      -0.590  10.955  22.278  0.00  0.00    +0.000 C 
ATOM     11  O   UNL     1      -0.928  10.738  23.415  0.00  0.00    +0.000 OA
ENDROOT
BRANCH   1  13
ATOM     12  O   UNL     1       2.357   8.596  17.226  0.00  0.00    +0.000 OA
ATOM     13  C   UNL     1       2.371   8.104  18.354  0.00  0.00    +0.000 C 
ATOM     14  N   UNL     1       3.053   6.959  18.676  0.00  0.00    +0.000 N 
ATOM     15  H   UNL     1       2.862   6.481  19.548  0.00  0.00    +0.000 HD
BRANCH  14  16
ATOM     16  C   UNL     1       3.805   6.237  17.662  0.00  0.00    +0.000 C 
BRANCH  16  17
ATOM     17  C   UNL     1       3.700   4.711  17.834  0.00  0.00    +0.000 C 
BRANCH  17  18
ATOM     18  N   UNL     1       2.831   4.349  18.976  0.00  0.00    +0.000 NA
ATOM     19  C   UNL     1       1.605   3.676  18.512  0.00  0.00    +0.000 C 
ATOM     20  C   UNL     1       0.666   3.350  19.670  0.00  0.00    +0.000 C 
ATOM     21  C   UNL     1       1.367   2.506  20.725  0.00  0.00    +0.000 C 
ATOM     22  C   UNL     1       2.674   3.167  21.150  0.00  0.00    +0.000 C 
ATOM     23  C   UNL     1       3.551   3.502  19.941  0.00  0.00    +0.000 C 
ENDBRANCH  17  18
ENDBRANCH  16  17
ENDBRANCH  14  16
ENDBRANCH   1  13
BRANCH   9  24
ATOM     24  C   UNL     1      -1.561  13.219  22.005  0.00  0.00    +0.000 C 
BRANCH  24  25
ATOM     25  C   UNL     1      -3.063  13.124  21.828  0.00  0.00    +0.000 A 
ATOM     26  C   UNL     1      -3.920  13.203  22.943  0.00  0.00    +0.000 A 
ATOM     27  C   UNL     1      -5.286  12.937  22.813  0.00  0.00    +0.000 A 
ATOM     28  C   UNL     1      -5.816  12.631  21.563  0.00  0.00    +0.000 A 
ATOM     29 CL   UNL     1      -7.481  12.226  21.416  0.00  0.00    +0.000 Cl
ATOM     30  C   UNL     1      -4.997  12.620  20.435  0.00  0.00    +0.000 A 
ATOM     31  C   UNL     1      -3.625  12.864  20.567  0.00  0.00    +0.000 A 
ENDBRANCH  24  25
ENDBRANCH   9  24
TORSDOF 6
ENDMDL
