MODEL 1
REMARK VINA RESULT:      -9.7      0.000      0.000
REMARK  Name = 
REMARK  3 active torsions:
REMARK  status: ('A' for Active; 'I' for Inactive)
REMARK    1  A    between atoms: C_12  and  C_13
REMARK    2  A    between atoms: C_16  and  C_17
REMARK    3  A    between atoms: C_24  and  O_25
REMARK                            x       y       z     vdW  Elec       q    Type
REMARK                         _______ _______ _______ _____ _____    ______ ____
ROOT
ATOM      1  O   UNL     1       3.042   6.741  19.247  0.00  0.00    +0.000 OA
ATOM      2  C   UNL     1       3.564   5.653  19.050  0.00  0.00    +0.000 A 
ATOM      3  C   UNL     1       2.981   4.352  19.515  0.00  0.00    +0.000 A 
ATOM      4  C   UNL     1       1.601   4.230  19.586  0.00  0.00    +0.000 A 
ATOM      5  C   UNL     1       1.039   3.077  19.058  0.00  0.00    +0.000 A 
ATOM      6  C   UNL     1       1.862   2.100  18.476  0.00  0.00    +0.000 A 
ATOM      7  C   UNL     1       3.259   2.164  18.609  0.00  0.00    +0.000 A 
ATOM      8  C   UNL     1       3.830   3.259  19.240  0.00  0.00    +0.000 A 
ATOM      9  N   UNL     1       5.235   3.440  19.422  0.00  0.00    +0.000 NA
ATOM     10  C   UNL     1       5.593   4.608  19.006  0.00  0.00    +0.000 A 
ATOM     11  N   UNL     1       4.708   5.420  18.346  0.00  0.00    +0.000 N 
ATOM     12  C   UNL     1       5.456   6.201  17.387  0.00  0.00    +0.000 C 
ATOM     13  C   UNL     1       6.644   6.612  18.271  0.00  0.00    +0.000 C 
ATOM     14  C   UNL     1       6.916   5.346  19.125  0.00  0.00    +0.000 C 
ENDROOT
BRANCH  12  15
ATOM     15  C   UNL     1       5.818   5.227  16.210  0.00  0.00    +0.000 A 
ATOM     16  C   UNL     1       6.985   5.476  15.458  0.00  0.00    +0.000 A 
ATOM     17  C   UNL     1       7.168   4.884  14.183  0.00  0.00    +0.000 A 
ATOM     18  C   UNL     1       6.192   4.036  13.636  0.00  0.00    +0.000 A 
ATOM     19  C   UNL     1       5.080   3.724  14.428  0.00  0.00    +0.000 A 
ATOM     20  C   UNL     1       4.913   4.290  15.699  0.00  0.00    +0.000 A 
BRANCH  18  21
ATOM     21  C   UNL     1       6.283   3.496  12.231  0.00  0.00    +0.000 C 
ATOM     22  F   UNL     1       6.630   2.181  12.165  0.00  0.00    +0.000 F 
ATOM     23  F   UNL     1       5.108   3.607  11.550  0.00  0.00    +0.000 F 
ATOM     24  F   UNL     1       7.208   4.158  11.478  0.00  0.00    +0.000 F 
ENDBRANCH  18  21
ENDBRANCH  12  15
BRANCH  14  25
ATOM     25  O   UNL     1       8.067   4.666  18.680  0.00  0.00    +0.000 OA
ATOM     26  H   UNL     1       8.046   3.788  19.100  0.00  0.00    +0.000 HD
ENDBRANCH  14  25
TORSDOF 3
ENDMDL
MODEL 2
REMARK VINA RESULT:      -7.8      4.813      7.262
REMARK  Name = 
REMARK  3 active torsions:
REMARK  status: ('A' for Active; 'I' for Inactive)
REMARK    1  A    between atoms: C_12  and  C_13
REMARK    2  A    between atoms: C_16  and  C_17
REMARK    3  A    between atoms: C_24  and  O_25
REMARK                            x       y       z     vdW  Elec       q    Type
REMARK                         _______ _______ _______ _____ _____    ______ ____
ROOT
ATOM      1  O   UNL     1       4.402   3.839  15.539  0.00  0.00    +0.000 OA
ATOM      2  C   UNL     1       4.793   4.168  16.650  0.00  0.00    +0.000 A 
ATOM      3  C   UNL     1       6.189   4.630  16.939  0.00  0.00    +0.000 A 
ATOM      4  C   UNL     1       6.881   5.317  15.951  0.00  0.00    +0.000 A 
ATOM      5  C   UNL     1       7.553   6.468  16.332  0.00  0.00    +0.000 A 
ATOM      6  C   UNL     1       7.508   6.897  17.668  0.00  0.00    +0.000 A 
ATOM      7  C   UNL     1       6.976   6.069  18.671  0.00  0.00    +0.000 A 
ATOM      8  C   UNL     1       6.402   4.857  18.315  0.00  0.00    +0.000 A 
ATOM      9  N   UNL     1       5.819   3.941  19.243  0.00  0.00    +0.000 NA
ATOM     10  C   UNL     1       4.633   3.608  18.857  0.00  0.00    +0.000 A 
ATOM     11  N   UNL     1       4.044   4.228  17.787  0.00  0.00    +0.000 N 
ATOM     12  C   UNL     1       2.619   4.272  18.032  0.00  0.00    +0.000 C 
ATOM     13  C   UNL     1       2.407   2.833  18.532  0.00  0.00    +0.000 C 
ATOM     14  C   UNL     1       3.672   2.555  19.385  0.00  0.00    +0.000 C 
ENDROOT
BRANCH  12  15
ATOM     15  C   UNL     1       2.392   5.384  19.117  0.00  0.00    +0.000 A 
ATOM     16  C   UNL     1       1.557   5.098  20.216  0.00  0.00    +0.000 A 
ATOM     17  C   UNL     1       1.015   6.142  21.008  0.00  0.00    +0.000 A 
ATOM     18  C   UNL     1       1.296   7.486  20.718  0.00  0.00    +0.000 A 
ATOM     19  C   UNL     1       2.197   7.755  19.680  0.00  0.00    +0.000 A 
ATOM     20  C   UNL     1       2.751   6.721  18.914  0.00  0.00    +0.000 A 
BRANCH  18  21
ATOM     21  C   UNL     1       0.634   8.628  21.447  0.00  0.00    +0.000 C 
ATOM     22  F   UNL     1       0.505   9.760  20.701  0.00  0.00    +0.000 F 
ATOM     23  F   UNL     1      -0.621   8.319  21.877  0.00  0.00    +0.000 F 
ATOM     24  F   UNL     1       1.323   9.002  22.564  0.00  0.00    +0.000 F 
ENDBRANCH  18  21
ENDBRANCH  12  15
BRANCH  14  25
ATOM     25  O   UNL     1       3.379   2.594  20.763  0.00  0.00    +0.000 OA
ATOM     26  H   UNL     1       3.716   1.760  21.137  0.00  0.00    +0.000 HD
ENDBRANCH  14  25
TORSDOF 3
ENDMDL
MODEL 3
REMARK VINA RESULT:      -7.2      4.855      7.234
REMARK  Name = 
REMARK  3 active torsions:
REMARK  status: ('A' for Active; 'I' for Inactive)
REMARK    1  A    between atoms: C_12  and  C_13
REMARK    2  A    between atoms: C_16  and  C_17
REMARK    3  A    between atoms: C_24  and  O_25
REMARK                            x       y       z     vdW  Elec       q    Type
REMARK                         _______ _______ _______ _____ _____    ______ ____
ROOT
ATOM      1  O   UNL     1       3.374   3.019  16.201  0.00  0.00    +0.000 OA
ATOM      2  C   UNL     1       3.950   3.580  17.122  0.00  0.00    +0.000 A 
ATOM      3  C   UNL     1       5.404   3.946  17.098  0.00  0.00    +0.000 A 
ATOM      4  C   UNL     1       5.986   4.274  15.881  0.00  0.00    +0.000 A 
ATOM      5  C   UNL     1       6.788   5.405  15.848  0.00  0.00    +0.000 A 
ATOM      6  C   UNL     1       6.975   6.167  17.012  0.00  0.00    +0.000 A 
ATOM      7  C   UNL     1       6.542   5.690  18.260  0.00  0.00    +0.000 A 
ATOM      8  C   UNL     1       5.836   4.498  18.322  0.00  0.00    +0.000 A 
ATOM      9  N   UNL     1       5.335   3.922  19.530  0.00  0.00    +0.000 NA
ATOM     10  C   UNL     1       4.084   3.631  19.401  0.00  0.00    +0.000 A 
ATOM     11  N   UNL     1       3.386   4.014  18.285  0.00  0.00    +0.000 N 
ATOM     12  C   UNL     1       2.021   4.274  18.685  0.00  0.00    +0.000 C 
ATOM     13  C   UNL     1       1.784   3.046  19.580  0.00  0.00    +0.000 C 
ATOM     14  C   UNL     1       3.140   2.862  20.310  0.00  0.00    +0.000 C 
ENDROOT
BRANCH  12  15
ATOM     15  C   UNL     1       2.039   5.647  19.447  0.00  0.00    +0.000 A 
ATOM     16  C   UNL     1       1.345   5.753  20.669  0.00  0.00    +0.000 A 
ATOM     17  C   UNL     1       1.006   7.022  21.205  0.00  0.00    +0.000 A 
ATOM     18  C   UNL     1       1.353   8.204  20.532  0.00  0.00    +0.000 A 
ATOM     19  C   UNL     1       2.119   8.089  19.365  0.00  0.00    +0.000 A 
ATOM     20  C   UNL     1       2.475   6.836  18.850  0.00  0.00    +0.000 A 
BRANCH  18  21
ATOM     21  C   UNL     1       0.895   9.564  20.994  0.00  0.00    +0.000 C 
ATOM     22  F   UNL     1       1.293   9.882  22.258  0.00  0.00    +0.000 F 
ATOM     23  F   UNL     1       1.349  10.570  20.195  0.00  0.00    +0.000 F 
ATOM     24  F   UNL     1      -0.464   9.682  20.997  0.00  0.00    +0.000 F 
ENDBRANCH  18  21
ENDBRANCH  12  15
BRANCH  14  25
ATOM     25  O   UNL     1       3.060   3.288  21.651  0.00  0.00    +0.000 OA
ATOM     26  H   UNL     1       3.813   3.889  21.793  0.00  0.00    +0.000 HD
ENDBRANCH  14  25
TORSDOF 3
ENDMDL
MODEL 4
REMARK VINA RESULT:      -7.2      4.769      6.974
REMARK  Name = 
REMARK  3 active torsions:
REMARK  status: ('A' for Active; 'I' for Inactive)
REMARK    1  A    between atoms: C_12  and  C_13
REMARK    2  A    between atoms: C_16  and  C_17
REMARK    3  A    between atoms: C_24  and  O_25
REMARK                            x       y       z     vdW  Elec       q    Type
REMARK                         _______ _______ _______ _____ _____    ______ ____
ROOT
ATOM      1  O   UNL     1       3.211   3.188  16.493  0.00  0.00    +0.000 OA
ATOM      2  C   UNL     1       3.808   3.938  17.251  0.00  0.00    +0.000 A 
ATOM      3  C   UNL     1       5.294   4.137  17.229  0.00  0.00    +0.000 A 
ATOM      4  C   UNL     1       5.962   4.028  16.017  0.00  0.00    +0.000 A 
ATOM      5  C   UNL     1       6.890   5.014  15.715  0.00  0.00    +0.000 A 
ATOM      6  C   UNL     1       7.113   6.066  16.618  0.00  0.00    +0.000 A 
ATOM      7  C   UNL     1       6.576   6.027  17.915  0.00  0.00    +0.000 A 
ATOM      8  C   UNL     1       5.735   4.982  18.269  0.00  0.00    +0.000 A 
ATOM      9  N   UNL     1       5.120   4.844  19.551  0.00  0.00    +0.000 NA
ATOM     10  C   UNL     1       3.851   4.652  19.419  0.00  0.00    +0.000 A 
ATOM     11  N   UNL     1       3.250   4.751  18.191  0.00  0.00    +0.000 N 
ATOM     12  C   UNL     1       1.908   5.251  18.396  0.00  0.00    +0.000 C 
ATOM     13  C   UNL     1       1.493   4.375  19.589  0.00  0.00    +0.000 C 
ATOM     14  C   UNL     1       2.787   4.285  20.440  0.00  0.00    +0.000 C 
ENDROOT
BRANCH  12  15
ATOM     15  C   UNL     1       2.052   6.780  18.723  0.00  0.00    +0.000 A 
ATOM     16  C   UNL     1       1.480   7.275  19.913  0.00  0.00    +0.000 A 
ATOM     17  C   UNL     1       1.244   8.663  20.083  0.00  0.00    +0.000 A 
ATOM     18  C   UNL     1       1.573   9.579  19.072  0.00  0.00    +0.000 A 
ATOM     19  C   UNL     1       2.222   9.087  17.932  0.00  0.00    +0.000 A 
ATOM     20  C   UNL     1       2.478   7.718  17.776  0.00  0.00    +0.000 A 
BRANCH  18  21
ATOM     21  C   UNL     1       1.216  11.042  19.155  0.00  0.00    +0.000 C 
ATOM     22  F   UNL     1      -0.003  11.344  18.626  0.00  0.00    +0.000 F 
ATOM     23  F   UNL     1       1.193  11.504  20.436  0.00  0.00    +0.000 F 
ATOM     24  F   UNL     1       2.109  11.834  18.494  0.00  0.00    +0.000 F 
ENDBRANCH  18  21
ENDBRANCH  12  15
BRANCH  14  25
ATOM     25  O   UNL     1       2.700   5.096  21.589  0.00  0.00    +0.000 OA
ATOM     26  H   UNL     1       2.031   4.684  22.165  0.00  0.00    +0.000 HD
ENDBRANCH  14  25
TORSDOF 3
ENDMDL
MODEL 5
REMARK VINA RESULT:      -7.1      9.595     11.431
REMARK  Name = 
REMARK  3 active torsions:
REMARK  status: ('A' for Active; 'I' for Inactive)
REMARK    1  A    between atoms: C_12  and  C_13
REMARK    2  A    between atoms: C_16  and  C_17
REMARK    3  A    between atoms: C_24  and  O_25
REMARK                            x       y       z     vdW  Elec       q    Type
REMARK                         _______ _______ _______ _____ _____    ______ ____
ROOT
ATOM      1  O   UNL     1      -0.005  14.372  22.877  0.00  0.00    +0.000 OA
ATOM      2  C   UNL     1      -0.924  13.569  22.798  0.00  0.00    +0.000 A 
ATOM      3  C   UNL     1      -2.249  13.749  23.477  0.00  0.00    +0.000 A 
ATOM      4  C   UNL     1      -2.734  15.037  23.658  0.00  0.00    +0.000 A 
ATOM      5  C   UNL     1      -4.063  15.263  23.334  0.00  0.00    +0.000 A 
ATOM      6  C   UNL     1      -4.853  14.213  22.839  0.00  0.00    +0.000 A 
ATOM      7  C   UNL     1      -4.388  12.889  22.868  0.00  0.00    +0.000 A 
ATOM      8  C   UNL     1      -3.095  12.634  23.300  0.00  0.00    +0.000 A 
ATOM      9  N   UNL     1      -2.508  11.332  23.360  0.00  0.00    +0.000 NA
ATOM     10  C   UNL     1      -1.364  11.329  22.762  0.00  0.00    +0.000 A 
ATOM     11  N   UNL     1      -0.938  12.425  22.058  0.00  0.00    +0.000 N 
ATOM     12  C   UNL     1      -0.136  11.953  20.950  0.00  0.00    +0.000 C 
ATOM     13  C   UNL     1       0.715  10.907  21.686  0.00  0.00    +0.000 C 
ATOM     14  C   UNL     1      -0.281  10.267  22.688  0.00  0.00    +0.000 C 
ENDROOT
BRANCH  12  15
ATOM     15  C   UNL     1      -1.141  11.361  19.899  0.00  0.00    +0.000 A 
ATOM     16  C   UNL     1      -0.692  10.344  19.031  0.00  0.00    +0.000 A 
ATOM     17  C   UNL     1      -1.402  10.039  17.841  0.00  0.00    +0.000 A 
ATOM     18  C   UNL     1      -2.568  10.741  17.498  0.00  0.00    +0.000 A 
ATOM     19  C   UNL     1      -3.053  11.686  18.411  0.00  0.00    +0.000 A 
ATOM     20  C   UNL     1      -2.365  11.969  19.598  0.00  0.00    +0.000 A 
BRANCH  18  21
ATOM     21  C   UNL     1      -3.274  10.544  16.181  0.00  0.00    +0.000 C 
ATOM     22  F   UNL     1      -4.592  10.888  16.203  0.00  0.00    +0.000 F 
ATOM     23  F   UNL     1      -2.715  11.268  15.172  0.00  0.00    +0.000 F 
ATOM     24  F   UNL     1      -3.242   9.246  15.762  0.00  0.00    +0.000 F 
ENDBRANCH  18  21
ENDBRANCH  12  15
BRANCH  14  25
ATOM     25  O   UNL     1      -0.677   8.982  22.265  0.00  0.00    +0.000 OA
ATOM     26  H   UNL     1      -1.566   8.834  22.635  0.00  0.00    +0.000 HD
ENDBRANCH  14  25
TORSDOF 3
ENDMDL
MODEL 6
REMARK VINA RESULT:      -7.1      0.729      1.194
REMARK  Name = 
REMARK  3 active torsions:
REMARK  status: ('A' for Active; 'I' for Inactive)
REMARK    1  A    between atoms: C_12  and  C_13
REMARK    2  A    between atoms: C_16  and  C_17
REMARK    3  A    between atoms: C_24  and  O_25
REMARK                            x       y       z     vdW  Elec       q    Type
REMARK                         _______ _______ _______ _____ _____    ______ ____
ROOT
ATOM      1  O   UNL     1       3.897   6.562  19.847  0.00  0.00    +0.000 OA
ATOM      2  C   UNL     1       4.144   5.562  19.189  0.00  0.00    +0.000 A 
ATOM      3  C   UNL     1       3.349   4.293  19.272  0.00  0.00    +0.000 A 
ATOM      4  C   UNL     1       1.993   4.375  19.555  0.00  0.00    +0.000 A 
ATOM      5  C   UNL     1       1.136   3.614  18.773  0.00  0.00    +0.000 A 
ATOM      6  C   UNL     1       1.654   2.812  17.743  0.00  0.00    +0.000 A 
ATOM      7  C   UNL     1       3.036   2.596  17.625  0.00  0.00    +0.000 A 
ATOM      8  C   UNL     1       3.902   3.265  18.478  0.00  0.00    +0.000 A 
ATOM      9  N   UNL     1       5.324   3.137  18.444  0.00  0.00    +0.000 NA
ATOM     10  C   UNL     1       5.877   4.302  18.402  0.00  0.00    +0.000 A 
ATOM     11  N   UNL     1       5.119   5.433  18.246  0.00  0.00    +0.000 N 
ATOM     12  C   UNL     1       5.903   6.390  17.496  0.00  0.00    +0.000 C 
ATOM     13  C   UNL     1       7.247   6.240  18.228  0.00  0.00    +0.000 C 
ATOM     14  C   UNL     1       7.333   4.719  18.520  0.00  0.00    +0.000 C 
ENDROOT
BRANCH  12  15
ATOM     15  C   UNL     1       5.906   5.889  16.009  0.00  0.00    +0.000 A 
ATOM     16  C   UNL     1       4.771   5.211  15.520  0.00  0.00    +0.000 A 
ATOM     17  C   UNL     1       4.847   4.418  14.346  0.00  0.00    +0.000 A 
ATOM     18  C   UNL     1       6.054   4.288  13.642  0.00  0.00    +0.000 A 
ATOM     19  C   UNL     1       7.152   5.037  14.085  0.00  0.00    +0.000 A 
ATOM     20  C   UNL     1       7.068   5.839  15.230  0.00  0.00    +0.000 A 
BRANCH  18  21
ATOM     21  C   UNL     1       6.213   3.350  12.472  0.00  0.00    +0.000 C 
ATOM     22  F   UNL     1       6.315   2.039  12.824  0.00  0.00    +0.000 F 
ATOM     23  F   UNL     1       5.171   3.422  11.597  0.00  0.00    +0.000 F 
ATOM     24  F   UNL     1       7.329   3.621  11.736  0.00  0.00    +0.000 F 
ENDBRANCH  18  21
ENDBRANCH  12  15
BRANCH  14  25
ATOM     25  O   UNL     1       8.250   4.084  17.658  0.00  0.00    +0.000 OA
ATOM     26  H   UNL     1       7.930   3.171  17.544  0.00  0.00    +0.000 HD
ENDBRANCH  14  25
TORSDOF 3
ENDMDL
MODEL 7
REMARK VINA RESULT:      -7.0      0.868      1.379
REMARK  Name = 
REMARK  3 active torsions:
REMARK  status: ('A' for Active; 'I' for Inactive)
REMARK    1  A    between atoms: C_12  and  C_13
REMARK    2  A    between atoms: C_16  and  C_17
REMARK    3  A    between atoms: C_24  and  O_25
REMARK                            x       y       z     vdW  Elec       q    Type
REMARK                         _______ _______ _______ _____ _____    ______ ____
ROOT
ATOM      1  O   UNL     1       3.004   6.333  20.360  0.00  0.00    +0.000 OA
ATOM      2  C   UNL     1       3.355   5.324  19.766  0.00  0.00    +0.000 A 
ATOM      3  C   UNL     1       2.754   3.969  19.997  0.00  0.00    +0.000 A 
ATOM      4  C   UNL     1       1.417   3.888  20.360  0.00  0.00    +0.000 A 
ATOM      5  C   UNL     1       0.637   2.953  19.696  0.00  0.00    +0.000 A 
ATOM      6  C   UNL     1       1.207   2.145  18.700  0.00  0.00    +0.000 A 
ATOM      7  C   UNL     1       2.599   2.112  18.509  0.00  0.00    +0.000 A 
ATOM      8  C   UNL     1       3.404   2.964  19.251  0.00  0.00    +0.000 A 
ATOM      9  N   UNL     1       4.827   3.029  19.135  0.00  0.00    +0.000 NA
ATOM     10  C   UNL     1       5.205   4.252  18.968  0.00  0.00    +0.000 A 
ATOM     11  N   UNL     1       4.287   5.250  18.775  0.00  0.00    +0.000 N 
ATOM     12  C   UNL     1       4.886   6.239  17.905  0.00  0.00    +0.000 C 
ATOM     13  C   UNL     1       6.274   6.337  18.558  0.00  0.00    +0.000 C 
ATOM     14  C   UNL     1       6.592   4.873  18.959  0.00  0.00    +0.000 C 
ENDROOT
BRANCH  12  15
ATOM     15  C   UNL     1       4.881   5.618  16.463  0.00  0.00    +0.000 A 
ATOM     16  C   UNL     1       4.734   4.222  16.326  0.00  0.00    +0.000 A 
ATOM     17  C   UNL     1       5.092   3.568  15.120  0.00  0.00    +0.000 A 
ATOM     18  C   UNL     1       5.603   4.293  14.032  0.00  0.00    +0.000 A 
ATOM     19  C   UNL     1       5.662   5.688  14.147  0.00  0.00    +0.000 A 
ATOM     20  C   UNL     1       5.283   6.335  15.330  0.00  0.00    +0.000 A 
BRANCH  18  21
ATOM     21  C   UNL     1       6.123   3.623  12.785  0.00  0.00    +0.000 C 
ATOM     22  F   UNL     1       7.240   4.207  12.269  0.00  0.00    +0.000 F 
ATOM     23  F   UNL     1       6.444   2.315  12.987  0.00  0.00    +0.000 F 
ATOM     24  F   UNL     1       5.208   3.625  11.774  0.00  0.00    +0.000 F 
ENDBRANCH  18  21
ENDBRANCH  12  15
BRANCH  14  25
ATOM     25  O   UNL     1       7.542   4.299  18.091  0.00  0.00    +0.000 OA
ATOM     26  H   UNL     1       7.268   4.540  17.188  0.00  0.00    +0.000 HD
ENDBRANCH  14  25
TORSDOF 3
ENDMDL
MODEL 8
REMARK VINA RESULT:      -6.8      4.481      6.836
REMARK  Name = 
REMARK  3 active torsions:
REMARK  status: ('A' for Active; 'I' for Inactive)
REMARK    1  A    between atoms: C_12  and  C_13
REMARK    2  A    between atoms: C_16  and  C_17
REMARK    3  A    between atoms: C_24  and  O_25
REMARK                            x       y       z     vdW  Elec       q    Type
REMARK                         _______ _______ _______ _____ _____    ______ ____
ROOT
ATOM      1  O   UNL     1       5.324   2.990  15.685  0.00  0.00    +0.000 OA
ATOM      2  C   UNL     1       5.359   3.643  16.718  0.00  0.00    +0.000 A 
ATOM      3  C   UNL     1       6.497   4.542  17.098  0.00  0.00    +0.000 A 
ATOM      4  C   UNL     1       7.208   5.178  16.089  0.00  0.00    +0.000 A 
ATOM      5  C   UNL     1       7.474   6.529  16.256  0.00  0.00    +0.000 A 
ATOM      6  C   UNL     1       7.022   7.195  17.407  0.00  0.00    +0.000 A 
ATOM      7  C   UNL     1       6.493   6.477  18.492  0.00  0.00    +0.000 A 
ATOM      8  C   UNL     1       6.327   5.104  18.380  0.00  0.00    +0.000 A 
ATOM      9  N   UNL     1       5.788   4.273  19.410  0.00  0.00    +0.000 NA
ATOM     10  C   UNL     1       4.840   3.536  18.938  0.00  0.00    +0.000 A 
ATOM     11  N   UNL     1       4.378   3.719  17.661  0.00  0.00    +0.000 N 
ATOM     12  C   UNL     1       2.968   3.396  17.651  0.00  0.00    +0.000 C 
ATOM     13  C   UNL     1       3.004   2.096  18.471  0.00  0.00    +0.000 C 
ATOM     14  C   UNL     1       4.069   2.384  19.561  0.00  0.00    +0.000 C 
ENDROOT
BRANCH  12  15
ATOM     15  C   UNL     1       2.236   4.595  18.351  0.00  0.00    +0.000 A 
ATOM     16  C   UNL     1       2.580   5.910  17.979  0.00  0.00    +0.000 A 
ATOM     17  C   UNL     1       2.251   7.011  18.810  0.00  0.00    +0.000 A 
ATOM     18  C   UNL     1       1.574   6.819  20.025  0.00  0.00    +0.000 A 
ATOM     19  C   UNL     1       1.158   5.519  20.342  0.00  0.00    +0.000 A 
ATOM     20  C   UNL     1       1.462   4.436  19.507  0.00  0.00    +0.000 A 
BRANCH  18  21
ATOM     21  C   UNL     1       1.325   7.941  21.001  0.00  0.00    +0.000 C 
ATOM     22  F   UNL     1       2.166   7.938  22.073  0.00  0.00    +0.000 F 
ATOM     23  F   UNL     1       1.453   9.171  20.429  0.00  0.00    +0.000 F 
ATOM     24  F   UNL     1       0.065   7.907  21.523  0.00  0.00    +0.000 F 
ENDBRANCH  18  21
ENDBRANCH  12  15
BRANCH  14  25
ATOM     25  O   UNL     1       3.468   2.623  20.813  0.00  0.00    +0.000 OA
ATOM     26  H   UNL     1       3.765   1.905  21.400  0.00  0.00    +0.000 HD
ENDBRANCH  14  25
TORSDOF 3
ENDMDL
