MODEL 1
REMARK VINA RESULT:      -6.3      0.000      0.000
REMARK  Name = 
REMARK  5 active torsions:
REMARK  status: ('A' for Active; 'I' for Inactive)
REMARK    1  A    between atoms: C_1  and  N_2
REMARK    2  A    between atoms: C_3  and  S_4
REMARK    3  A    between atoms: C_7  and  C_8
REMARK    4  A    between atoms: C_8  and  C_9
REMARK    5  A    between atoms: C_9  and  C_10
REMARK                            x       y       z     vdW  Elec       q    Type
REMARK                         _______ _______ _______ _____ _____    ______ ____
ROOT
ATOM      1  C   UNL     1       4.835   3.522  17.010  0.00  0.00    +0.000 C 
ATOM      2  N   UNL     1       5.046   4.793  16.370  0.00  0.00    +0.000 N 
ATOM      3  C   UNL     1       5.565   5.073  15.134  0.00  0.00    +0.000 A 
ATOM      4  N   UNL     1       5.597   6.374  14.959  0.00  0.00    +0.000 NA
ATOM      5  N   UNL     1       5.086   6.969  16.085  0.00  0.00    +0.000 NA
ATOM      6  C   UNL     1       4.744   6.020  16.932  0.00  0.00    +0.000 A 
ENDROOT
BRANCH   3   7
ATOM      7  S   UNL     1       6.101   3.939  13.945  0.00  0.00    +0.000 S 
ATOM      8  H   UNL     1       5.856   4.590  12.806  0.00  0.00    +0.000 HD
ENDBRANCH   3   7
BRANCH   6   9
ATOM      9  C   UNL     1       4.112   6.247  18.266  0.00  0.00    +0.000 C 
BRANCH   9  10
ATOM     10  C   UNL     1       2.582   6.232  18.178  0.00  0.00    +0.000 C 
BRANCH  10  11
ATOM     11  C   UNL     1       1.956   5.007  18.808  0.00  0.00    +0.000 A 
ATOM     12  C   UNL     1       1.514   3.942  18.008  0.00  0.00    +0.000 A 
ATOM     13  C   UNL     1       0.968   2.793  18.588  0.00  0.00    +0.000 A 
ATOM     14  C   UNL     1       0.857   2.694  19.973  0.00  0.00    +0.000 A 
ATOM     15  C   UNL     1       1.295   3.743  20.778  0.00  0.00    +0.000 A 
ATOM     16  C   UNL     1       1.844   4.890  20.199  0.00  0.00    +0.000 A 
ENDBRANCH  10  11
ENDBRANCH   9  10
ENDBRANCH   6   9
TORSDOF 4
ENDMDL
MODEL 2
REMARK VINA RESULT:      -6.2      1.835      2.355
REMARK  Name = 
REMARK  5 active torsions:
REMARK  status: ('A' for Active; 'I' for Inactive)
REMARK    1  A    between atoms: C_1  and  N_2
REMARK    2  A    between atoms: C_3  and  S_4
REMARK    3  A    between atoms: C_7  and  C_8
REMARK    4  A    between atoms: C_8  and  C_9
REMARK    5  A    between atoms: C_9  and  C_10
REMARK                            x       y       z     vdW  Elec       q    Type
REMARK                         _______ _______ _______ _____ _____    ______ ____
ROOT
ATOM      1  C   UNL     1       5.988   5.104  19.110  0.00  0.00    +0.000 C 
ATOM      2  N   UNL     1       5.933   5.426  17.709  0.00  0.00    +0.000 N 
ATOM      3  C   UNL     1       6.534   6.448  17.024  0.00  0.00    +0.000 A 
ATOM      4  N   UNL     1       6.198   6.381  15.757  0.00  0.00    +0.000 NA
ATOM      5  N   UNL     1       5.372   5.298  15.592  0.00  0.00    +0.000 NA
ATOM      6  C   UNL     1       5.219   4.715  16.763  0.00  0.00    +0.000 A 
ENDROOT
BRANCH   3   7
ATOM      7  S   UNL     1       7.587   7.659  17.666  0.00  0.00    +0.000 S 
ATOM      8  H   UNL     1       7.462   7.470  18.981  0.00  0.00    +0.000 HD
ENDBRANCH   3   7
BRANCH   6   9
ATOM      9  C   UNL     1       4.420   3.476  17.008  0.00  0.00    +0.000 C 
BRANCH   9  10
ATOM     10  C   UNL     1       2.914   3.757  16.975  0.00  0.00    +0.000 C 
BRANCH  10  11
ATOM     11  C   UNL     1       2.281   3.796  18.349  0.00  0.00    +0.000 A 
ATOM     12  C   UNL     1       1.721   2.638  18.908  0.00  0.00    +0.000 A 
ATOM     13  C   UNL     1       1.167   2.660  20.191  0.00  0.00    +0.000 A 
ATOM     14  C   UNL     1       1.164   3.841  20.930  0.00  0.00    +0.000 A 
ATOM     15  C   UNL     1       1.719   4.998  20.388  0.00  0.00    +0.000 A 
ATOM     16  C   UNL     1       2.277   4.974  19.106  0.00  0.00    +0.000 A 
ENDBRANCH  10  11
ENDBRANCH   9  10
ENDBRANCH   6   9
TORSDOF 4
ENDMDL
MODEL 3
REMARK VINA RESULT:      -6.2      2.011      2.856
REMARK  Name = 
REMARK  5 active torsions:
REMARK  status: ('A' for Active; 'I' for Inactive)
REMARK    1  A    between atoms: C_1  and  N_2
REMARK    2  A    between atoms: C_3  and  S_4
REMARK    3  A    between atoms: C_7  and  C_8
REMARK    4  A    between atoms: C_8  and  C_9
REMARK    5  A    between atoms: C_9  and  C_10
REMARK                            x       y       z     vdW  Elec       q    Type
REMARK                         _______ _______ _______ _____ _____    ______ ____
ROOT
ATOM      1  C   UNL     1       4.331   6.600  17.891  0.00  0.00    +0.000 C 
ATOM      2  N   UNL     1       5.354   5.795  17.280  0.00  0.00    +0.000 N 
ATOM      3  C   UNL     1       6.678   6.076  17.071  0.00  0.00    +0.000 A 
ATOM      4  N   UNL     1       7.247   5.064  16.459  0.00  0.00    +0.000 NA
ATOM      5  N   UNL     1       6.298   4.093  16.265  0.00  0.00    +0.000 NA
ATOM      6  C   UNL     1       5.159   4.525  16.768  0.00  0.00    +0.000 A 
ENDROOT
BRANCH   3   7
ATOM      7  S   UNL     1       7.525   7.513  17.525  0.00  0.00    +0.000 S 
ATOM      8  H   UNL     1       8.709   7.337  16.938  0.00  0.00    +0.000 HD
ENDBRANCH   3   7
BRANCH   6   9
ATOM      9  C   UNL     1       3.882   3.750  16.793  0.00  0.00    +0.000 C 
BRANCH   9  10
ATOM     10  C   UNL     1       3.924   2.626  17.835  0.00  0.00    +0.000 C 
BRANCH  10  11
ATOM     11  C   UNL     1       2.997   2.861  19.008  0.00  0.00    +0.000 A 
ATOM     12  C   UNL     1       3.399   2.528  20.310  0.00  0.00    +0.000 A 
ATOM     13  C   UNL     1       2.561   2.777  21.401  0.00  0.00    +0.000 A 
ATOM     14  C   UNL     1       1.311   3.359  21.203  0.00  0.00    +0.000 A 
ATOM     15  C   UNL     1       0.900   3.696  19.916  0.00  0.00    +0.000 A 
ATOM     16  C   UNL     1       1.740   3.451  18.826  0.00  0.00    +0.000 A 
ENDBRANCH  10  11
ENDBRANCH   9  10
ENDBRANCH   6   9
TORSDOF 4
ENDMDL
MODEL 4
REMARK VINA RESULT:      -6.1      1.973      2.698
REMARK  Name = 
REMARK  5 active torsions:
REMARK  status: ('A' for Active; 'I' for Inactive)
REMARK    1  A    between atoms: C_1  and  N_2
REMARK    2  A    between atoms: C_3  and  S_4
REMARK    3  A    between atoms: C_7  and  C_8
REMARK    4  A    between atoms: C_8  and  C_9
REMARK    5  A    between atoms: C_9  and  C_10
REMARK                            x       y       z     vdW  Elec       q    Type
REMARK                         _______ _______ _______ _____ _____    ______ ____
ROOT
ATOM      1  C   UNL     1       4.372   6.187  18.218  0.00  0.00    +0.000 C 
ATOM      2  N   UNL     1       5.309   5.504  17.367  0.00  0.00    +0.000 N 
ATOM      3  C   UNL     1       6.593   5.843  17.030  0.00  0.00    +0.000 A 
ATOM      4  N   UNL     1       7.080   4.945  16.207  0.00  0.00    +0.000 NA
ATOM      5  N   UNL     1       6.117   3.990  15.998  0.00  0.00    +0.000 NA
ATOM      6  C   UNL     1       5.054   4.318  16.703  0.00  0.00    +0.000 A 
ENDROOT
BRANCH   3   7
ATOM      7  S   UNL     1       7.486   7.218  17.577  0.00  0.00    +0.000 S 
ATOM      8  H   UNL     1       8.745   6.844  17.346  0.00  0.00    +0.000 HD
ENDBRANCH   3   7
BRANCH   6   9
ATOM      9  C   UNL     1       3.795   3.517  16.780  0.00  0.00    +0.000 C 
BRANCH   9  10
ATOM     10  C   UNL     1       3.884   2.424  17.851  0.00  0.00    +0.000 C 
BRANCH  10  11
ATOM     11  C   UNL     1       2.964   2.662  19.029  0.00  0.00    +0.000 A 
ATOM     12  C   UNL     1       1.599   2.912  18.827  0.00  0.00    +0.000 A 
ATOM     13  C   UNL     1       0.738   3.096  19.914  0.00  0.00    +0.000 A 
ATOM     14  C   UNL     1       1.233   3.034  21.214  0.00  0.00    +0.000 A 
ATOM     15  C   UNL     1       2.586   2.784  21.429  0.00  0.00    +0.000 A 
ATOM     16  C   UNL     1       3.445   2.595  20.342  0.00  0.00    +0.000 A 
ENDBRANCH  10  11
ENDBRANCH   9  10
ENDBRANCH   6   9
TORSDOF 4
ENDMDL
MODEL 5
REMARK VINA RESULT:      -6.1      3.401      5.665
REMARK  Name = 
REMARK  5 active torsions:
REMARK  status: ('A' for Active; 'I' for Inactive)
REMARK    1  A    between atoms: C_1  and  N_2
REMARK    2  A    between atoms: C_3  and  S_4
REMARK    3  A    between atoms: C_7  and  C_8
REMARK    4  A    between atoms: C_8  and  C_9
REMARK    5  A    between atoms: C_9  and  C_10
REMARK                            x       y       z     vdW  Elec       q    Type
REMARK                         _______ _______ _______ _____ _____    ______ ____
ROOT
ATOM      1  C   UNL     1       4.319   3.069  19.758  0.00  0.00    +0.000 C 
ATOM      2  N   UNL     1       3.225   3.254  18.842  0.00  0.00    +0.000 N 
ATOM      3  C   UNL     1       1.876   3.261  19.083  0.00  0.00    +0.000 A 
ATOM      4  N   UNL     1       1.233   3.444  17.954  0.00  0.00    +0.000 NA
ATOM      5  N   UNL     1       2.159   3.570  16.950  0.00  0.00    +0.000 NA
ATOM      6  C   UNL     1       3.360   3.466  17.483  0.00  0.00    +0.000 A 
ENDROOT
BRANCH   3   7
ATOM      7  S   UNL     1       1.087   3.074  20.609  0.00  0.00    +0.000 S 
ATOM      8  H   UNL     1       1.625   1.941  21.065  0.00  0.00    +0.000 HD
ENDBRANCH   3   7
BRANCH   6   9
ATOM      9  C   UNL     1       4.646   3.586  16.732  0.00  0.00    +0.000 C 
BRANCH   9  10
ATOM     10  C   UNL     1       4.917   5.031  16.299  0.00  0.00    +0.000 C 
BRANCH  10  11
ATOM     11  C   UNL     1       6.010   5.702  17.102  0.00  0.00    +0.000 A 
ATOM     12  C   UNL     1       6.791   4.961  18.001  0.00  0.00    +0.000 A 
ATOM     13  C   UNL     1       7.826   5.570  18.718  0.00  0.00    +0.000 A 
ATOM     14  C   UNL     1       8.090   6.927  18.546  0.00  0.00    +0.000 A 
ATOM     15  C   UNL     1       7.323   7.674  17.656  0.00  0.00    +0.000 A 
ATOM     16  C   UNL     1       6.291   7.064  16.936  0.00  0.00    +0.000 A 
ENDBRANCH  10  11
ENDBRANCH   9  10
ENDBRANCH   6   9
TORSDOF 4
ENDMDL
MODEL 6
REMARK VINA RESULT:      -6.1      1.282      1.798
REMARK  Name = 
REMARK  5 active torsions:
REMARK  status: ('A' for Active; 'I' for Inactive)
REMARK    1  A    between atoms: C_1  and  N_2
REMARK    2  A    between atoms: C_3  and  S_4
REMARK    3  A    between atoms: C_7  and  C_8
REMARK    4  A    between atoms: C_8  and  C_9
REMARK    5  A    between atoms: C_9  and  C_10
REMARK                            x       y       z     vdW  Elec       q    Type
REMARK                         _______ _______ _______ _____ _____    ______ ____
ROOT
ATOM      1  C   UNL     1       4.955   3.673  16.584  0.00  0.00    +0.000 C 
ATOM      2  N   UNL     1       5.857   4.783  16.744  0.00  0.00    +0.000 N 
ATOM      3  C   UNL     1       6.747   5.321  15.853  0.00  0.00    +0.000 A 
ATOM      4  N   UNL     1       7.386   6.316  16.422  0.00  0.00    +0.000 NA
ATOM      5  N   UNL     1       6.913   6.451  17.703  0.00  0.00    +0.000 NA
ATOM      6  C   UNL     1       5.985   5.536  17.897  0.00  0.00    +0.000 A 
ENDROOT
BRANCH   3   7
ATOM      7  S   UNL     1       7.024   4.820  14.222  0.00  0.00    +0.000 S 
ATOM      8  H   UNL     1       6.314   5.713  13.531  0.00  0.00    +0.000 HD
ENDBRANCH   3   7
BRANCH   6   9
ATOM      9  C   UNL     1       5.193   5.369  19.152  0.00  0.00    +0.000 C 
BRANCH   9  10
ATOM     10  C   UNL     1       3.758   5.883  18.989  0.00  0.00    +0.000 C 
BRANCH  10  11
ATOM     11  C   UNL     1       2.708   4.839  19.301  0.00  0.00    +0.000 A 
ATOM     12  C   UNL     1       2.385   4.528  20.631  0.00  0.00    +0.000 A 
ATOM     13  C   UNL     1       1.391   3.591  20.924  0.00  0.00    +0.000 A 
ATOM     14  C   UNL     1       0.708   2.951  19.892  0.00  0.00    +0.000 A 
ATOM     15  C   UNL     1       1.017   3.252  18.567  0.00  0.00    +0.000 A 
ATOM     16  C   UNL     1       2.008   4.192  18.275  0.00  0.00    +0.000 A 
ENDBRANCH  10  11
ENDBRANCH   9  10
ENDBRANCH   6   9
TORSDOF 4
ENDMDL
MODEL 7
REMARK VINA RESULT:      -6.0      1.737      2.110
REMARK  Name = 
REMARK  5 active torsions:
REMARK  status: ('A' for Active; 'I' for Inactive)
REMARK    1  A    between atoms: C_1  and  N_2
REMARK    2  A    between atoms: C_3  and  S_4
REMARK    3  A    between atoms: C_7  and  C_8
REMARK    4  A    between atoms: C_8  and  C_9
REMARK    5  A    between atoms: C_9  and  C_10
REMARK                            x       y       z     vdW  Elec       q    Type
REMARK                         _______ _______ _______ _____ _____    ______ ____
ROOT
ATOM      1  C   UNL     1       4.271   3.809  16.591  0.00  0.00    +0.000 C 
ATOM      2  N   UNL     1       5.655   4.200  16.603  0.00  0.00    +0.000 N 
ATOM      3  C   UNL     1       6.542   4.305  15.564  0.00  0.00    +0.000 A 
ATOM      4  N   UNL     1       7.713   4.677  16.026  0.00  0.00    +0.000 NA
ATOM      5  N   UNL     1       7.607   4.830  17.385  0.00  0.00    +0.000 NA
ATOM      6  C   UNL     1       6.367   4.555  17.734  0.00  0.00    +0.000 A 
ENDROOT
BRANCH   3   7
ATOM      7  S   UNL     1       6.227   4.017  13.889  0.00  0.00    +0.000 S 
ATOM      8  H   UNL     1       7.098   3.049  13.603  0.00  0.00    +0.000 HD
ENDBRANCH   3   7
BRANCH   6   9
ATOM      9  C   UNL     1       5.827   4.639  19.125  0.00  0.00    +0.000 C 
BRANCH   9  10
ATOM     10  C   UNL     1       4.528   5.450  19.180  0.00  0.00    +0.000 C 
BRANCH  10  11
ATOM     11  C   UNL     1       3.373   4.693  19.798  0.00  0.00    +0.000 A 
ATOM     12  C   UNL     1       2.138   5.323  20.006  0.00  0.00    +0.000 A 
ATOM     13  C   UNL     1       1.057   4.617  20.543  0.00  0.00    +0.000 A 
ATOM     14  C   UNL     1       1.200   3.274  20.881  0.00  0.00    +0.000 A 
ATOM     15  C   UNL     1       2.421   2.635  20.678  0.00  0.00    +0.000 A 
ATOM     16  C   UNL     1       3.499   3.340  20.137  0.00  0.00    +0.000 A 
ENDBRANCH  10  11
ENDBRANCH   9  10
ENDBRANCH   6   9
TORSDOF 4
ENDMDL
MODEL 8
REMARK VINA RESULT:      -6.0      2.243      2.750
REMARK  Name = 
REMARK  5 active torsions:
REMARK  status: ('A' for Active; 'I' for Inactive)
REMARK    1  A    between atoms: C_1  and  N_2
REMARK    2  A    between atoms: C_3  and  S_4
REMARK    3  A    between atoms: C_7  and  C_8
REMARK    4  A    between atoms: C_8  and  C_9
REMARK    5  A    between atoms: C_9  and  C_10
REMARK                            x       y       z     vdW  Elec       q    Type
REMARK                         _______ _______ _______ _____ _____    ______ ____
ROOT
ATOM      1  C   UNL     1       5.260   6.572  16.024  0.00  0.00    +0.000 C 
ATOM      2  N   UNL     1       5.973   6.028  17.148  0.00  0.00    +0.000 N 
ATOM      3  C   UNL     1       7.016   6.558  17.860  0.00  0.00    +0.000 A 
ATOM      4  N   UNL     1       7.379   5.714  18.797  0.00  0.00    +0.000 NA
ATOM      5  N   UNL     1       6.564   4.613  18.718  0.00  0.00    +0.000 NA
ATOM      6  C   UNL     1       5.710   4.803  17.733  0.00  0.00    +0.000 A 
ENDROOT
BRANCH   3   7
ATOM      7  S   UNL     1       7.772   8.094  17.617  0.00  0.00    +0.000 S 
ATOM      8  H   UNL     1       7.634   8.269  16.302  0.00  0.00    +0.000 HD
ENDBRANCH   3   7
BRANCH   6   9
ATOM      9  C   UNL     1       4.626   3.853  17.341  0.00  0.00    +0.000 C 
BRANCH   9  10
ATOM     10  C   UNL     1       3.238   4.483  17.494  0.00  0.00    +0.000 C 
BRANCH  10  11
ATOM     11  C   UNL     1       2.508   4.031  18.739  0.00  0.00    +0.000 A 
ATOM     12  C   UNL     1       1.419   3.151  18.648  0.00  0.00    +0.000 A 
ATOM     13  C   UNL     1       0.765   2.703  19.799  0.00  0.00    +0.000 A 
ATOM     14  C   UNL     1       1.189   3.130  21.054  0.00  0.00    +0.000 A 
ATOM     15  C   UNL     1       2.269   4.002  21.160  0.00  0.00    +0.000 A 
ATOM     16  C   UNL     1       2.927   4.447  20.010  0.00  0.00    +0.000 A 
ENDBRANCH  10  11
ENDBRANCH   9  10
ENDBRANCH   6   9
TORSDOF 4
ENDMDL
MODEL 9
REMARK VINA RESULT:      -5.9      2.343      2.936
REMARK  Name = 
REMARK  5 active torsions:
REMARK  status: ('A' for Active; 'I' for Inactive)
REMARK    1  A    between atoms: C_1  and  N_2
REMARK    2  A    between atoms: C_3  and  S_4
REMARK    3  A    between atoms: C_7  and  C_8
REMARK    4  A    between atoms: C_8  and  C_9
REMARK    5  A    between atoms: C_9  and  C_10
REMARK                            x       y       z     vdW  Elec       q    Type
REMARK                         _______ _______ _______ _____ _____    ______ ____
ROOT
ATOM      1  C   UNL     1       5.541   6.226  15.803  0.00  0.00    +0.000 C 
ATOM      2  N   UNL     1       6.075   5.816  17.075  0.00  0.00    +0.000 N 
ATOM      3  C   UNL     1       6.987   6.443  17.882  0.00  0.00    +0.000 A 
ATOM      4  N   UNL     1       7.207   5.706  18.946  0.00  0.00    +0.000 NA
ATOM      5  N   UNL     1       6.430   4.580  18.854  0.00  0.00    +0.000 NA
ATOM      6  C   UNL     1       5.739   4.648  17.734  0.00  0.00    +0.000 A 
ENDROOT
BRANCH   3   7
ATOM      7  S   UNL     1       7.753   7.968  17.604  0.00  0.00    +0.000 S 
ATOM      8  H   UNL     1       8.480   7.721  16.514  0.00  0.00    +0.000 HD
ENDBRANCH   3   7
BRANCH   6   9
ATOM      9  C   UNL     1       4.742   3.633  17.277  0.00  0.00    +0.000 C 
BRANCH   9  10
ATOM     10  C   UNL     1       3.304   4.134  17.449  0.00  0.00    +0.000 C 
BRANCH  10  11
ATOM     11  C   UNL     1       2.709   3.797  18.799  0.00  0.00    +0.000 A 
ATOM     12  C   UNL     1       3.346   2.881  19.650  0.00  0.00    +0.000 A 
ATOM     13  C   UNL     1       2.819   2.594  20.912  0.00  0.00    +0.000 A 
ATOM     14  C   UNL     1       1.649   3.218  21.339  0.00  0.00    +0.000 A 
ATOM     15  C   UNL     1       1.008   4.131  20.506  0.00  0.00    +0.000 A 
ATOM     16  C   UNL     1       1.537   4.422  19.245  0.00  0.00    +0.000 A 
ENDBRANCH  10  11
ENDBRANCH   9  10
ENDBRANCH   6   9
TORSDOF 4
ENDMDL
