MODEL 1
REMARK VINA RESULT:      -8.3      0.000      0.000
REMARK  Name = 
REMARK  7 active torsions:
REMARK  status: ('A' for Active; 'I' for Inactive)
REMARK    1  A    between atoms: C_1  and  C_2
REMARK    2  A    between atoms: C_4  and  C_5
REMARK    3  A    between atoms: C_11  and  C_12
REMARK    4  A    between atoms: C_12  and  N_13
REMARK    5  A    between atoms: N_20  and  C_21
REMARK    6  A    between atoms: C_24  and  C_25
REMARK    7  A    between atoms: C_25  and  O_27
REMARK                            x       y       z     vdW  Elec       q    Type
REMARK                         _______ _______ _______ _____ _____    ______ ____
ROOT
ATOM      1  N   UNL     1       2.662   7.464  18.543  0.00  0.00    +0.000 NA
ATOM      2  C   UNL     1       2.447   8.680  17.749  0.00  0.00    +0.000 C 
ATOM      3  C   UNL     1       1.099   9.405  17.973  0.00  0.00    +0.000 C 
ATOM      4  C   UNL     1       0.767   9.695  19.454  0.00  0.00    +0.000 C 
ATOM      5  C   UNL     1       1.198   8.517  20.354  0.00  0.00    +0.000 C 
ATOM      6  C   UNL     1       2.528   7.838  19.967  0.00  0.00    +0.000 C 
ATOM      7  C   UNL     1      -0.713  10.082  19.728  0.00  0.00    +0.000 C 
ATOM      8  N   UNL     1      -0.675  11.403  20.303  0.00  0.00    +0.000 N 
ATOM      9  C   UNL     1       0.620  11.895  20.199  0.00  0.00    +0.000 C 
ATOM     10  O   UNL     1       1.020  13.024  20.425  0.00  0.00    +0.000 OA
ATOM     11  O   UNL     1       1.484  10.894  19.813  0.00  0.00    +0.000 OA
ENDROOT
BRANCH   8  12
ATOM     12  C   UNL     1      -1.736  11.995  21.073  0.00  0.00    +0.000 A 
ATOM     13  C   UNL     1      -1.737  11.954  22.481  0.00  0.00    +0.000 A 
ATOM     14  C   UNL     1      -2.871  12.294  23.242  0.00  0.00    +0.000 A 
ATOM     15  C   UNL     1      -4.040  12.720  22.621  0.00  0.00    +0.000 A 
ATOM     16  C   UNL     1      -4.019  12.916  21.233  0.00  0.00    +0.000 A 
ATOM     17  C   UNL     1      -2.878  12.557  20.475  0.00  0.00    +0.000 A 
BRANCH  15  18
ATOM     18  C   UNL     1      -5.247  12.958  23.469  0.00  0.00    +0.000 C 
ATOM     19  O   UNL     1      -6.317  12.414  23.268  0.00  0.00    +0.000 OA
BRANCH  18  20
ATOM     20  O   UNL     1      -5.071  13.884  24.436  0.00  0.00    +0.000 OA
ATOM     21  H   UNL     1      -5.492  14.746  24.275  0.00  0.00    +0.000 HD
ENDBRANCH  18  20
ENDBRANCH  15  18
ENDBRANCH   8  12
BRANCH   1  22
ATOM     22  C   UNL     1       1.848   6.280  18.189  0.00  0.00    +0.000 C 
BRANCH  22  27
ATOM     23  C   UNL     1       1.820   2.336  21.795  0.00  0.00    +0.000 C 
ATOM     24  C   UNL     1       2.053   3.169  20.582  0.00  0.00    +0.000 A 
ATOM     25  N   UNL     1       3.064   2.978  19.782  0.00  0.00    +0.000 NA
ATOM     26  C   UNL     1       3.193   4.006  18.841  0.00  0.00    +0.000 A 
ATOM     27  C   UNL     1       2.147   4.937  18.850  0.00  0.00    +0.000 A 
ATOM     28  S   UNL     1       1.048   4.474  20.150  0.00  0.00    +0.000 S 
BRANCH  26  29
ATOM     29  C   UNL     1       4.487   3.962  18.146  0.00  0.00    +0.000 A 
ATOM     30  C   UNL     1       5.591   4.557  18.800  0.00  0.00    +0.000 A 
ATOM     31  C   UNL     1       6.741   4.939  18.106  0.00  0.00    +0.000 A 
ATOM     32  C   UNL     1       6.810   4.721  16.731  0.00  0.00    +0.000 A 
ATOM     33  C   UNL     1       5.762   4.069  16.083  0.00  0.00    +0.000 A 
ATOM     34  C   UNL     1       4.600   3.698  16.776  0.00  0.00    +0.000 A 
ENDBRANCH  26  29
ENDBRANCH  22  27
ENDBRANCH   1  22
TORSDOF 6
ENDMDL
MODEL 2
REMARK VINA RESULT:      -8.2      1.618      1.994
REMARK  Name = 
REMARK  7 active torsions:
REMARK  status: ('A' for Active; 'I' for Inactive)
REMARK    1  A    between atoms: C_1  and  C_2
REMARK    2  A    between atoms: C_4  and  C_5
REMARK    3  A    between atoms: C_11  and  C_12
REMARK    4  A    between atoms: C_12  and  N_13
REMARK    5  A    between atoms: N_20  and  C_21
REMARK    6  A    between atoms: C_24  and  C_25
REMARK    7  A    between atoms: C_25  and  O_27
REMARK                            x       y       z     vdW  Elec       q    Type
REMARK                         _______ _______ _______ _____ _____    ______ ____
ROOT
ATOM      1  N   UNL     1       2.523   7.784  18.859  0.00  0.00    +0.000 NA
ATOM      2  C   UNL     1       2.466   8.981  18.012  0.00  0.00    +0.000 C 
ATOM      3  C   UNL     1       1.075   9.644  17.870  0.00  0.00    +0.000 C 
ATOM      4  C   UNL     1       0.363   9.932  19.211  0.00  0.00    +0.000 C 
ATOM      5  C   UNL     1       0.600   8.783  20.216  0.00  0.00    +0.000 C 
ATOM      6  C   UNL     1       2.013   8.164  20.194  0.00  0.00    +0.000 C 
ATOM      7  C   UNL     1      -1.153  10.251  19.091  0.00  0.00    +0.000 C 
ATOM      8  N   UNL     1      -1.320  11.577  19.629  0.00  0.00    +0.000 N 
ATOM      9  C   UNL     1      -0.065  12.129  19.847  0.00  0.00    +0.000 C 
ATOM     10  O   UNL     1       0.215  13.277  20.144  0.00  0.00    +0.000 OA
ATOM     11  O   UNL     1       0.912  11.167  19.715  0.00  0.00    +0.000 OA
ENDROOT
BRANCH   8  12
ATOM     12  C   UNL     1      -2.567  12.126  20.091  0.00  0.00    +0.000 A 
ATOM     13  C   UNL     1      -2.742  12.539  21.425  0.00  0.00    +0.000 A 
ATOM     14  C   UNL     1      -4.009  12.835  21.960  0.00  0.00    +0.000 A 
ATOM     15  C   UNL     1      -5.150  12.761  21.168  0.00  0.00    +0.000 A 
ATOM     16  C   UNL     1      -4.988  12.500  19.800  0.00  0.00    +0.000 A 
ATOM     17  C   UNL     1      -3.712  12.188  19.275  0.00  0.00    +0.000 A 
BRANCH  15  18
ATOM     18  C   UNL     1      -6.478  12.974  21.816  0.00  0.00    +0.000 C 
ATOM     19  O   UNL     1      -6.955  14.078  22.003  0.00  0.00    +0.000 OA
BRANCH  18  20
ATOM     20  O   UNL     1      -7.075  11.841  22.244  0.00  0.00    +0.000 OA
ATOM     21  H   UNL     1      -6.886  11.042  21.723  0.00  0.00    +0.000 HD
ENDBRANCH  18  20
ENDBRANCH  15  18
ENDBRANCH   8  12
BRANCH   1  22
ATOM     22  C   UNL     1       1.879   6.560  18.335  0.00  0.00    +0.000 C 
BRANCH  22  27
ATOM     23  C   UNL     1       3.263   1.398  18.284  0.00  0.00    +0.000 C 
ATOM     24  C   UNL     1       3.246   2.880  18.134  0.00  0.00    +0.000 A 
ATOM     25  N   UNL     1       4.336   3.592  18.060  0.00  0.00    +0.000 NA
ATOM     26  C   UNL     1       4.075   4.964  18.137  0.00  0.00    +0.000 A 
ATOM     27  C   UNL     1       2.715   5.300  18.128  0.00  0.00    +0.000 A 
ATOM     28  S   UNL     1       1.806   3.789  18.088  0.00  0.00    +0.000 S 
BRANCH  26  29
ATOM     29  C   UNL     1       5.296   5.749  18.363  0.00  0.00    +0.000 A 
ATOM     30  C   UNL     1       5.630   6.718  17.389  0.00  0.00    +0.000 A 
ATOM     31  C   UNL     1       6.926   7.227  17.269  0.00  0.00    +0.000 A 
ATOM     32  C   UNL     1       7.917   6.777  18.139  0.00  0.00    +0.000 A 
ATOM     33  C   UNL     1       7.588   5.878  19.153  0.00  0.00    +0.000 A 
ATOM     34  C   UNL     1       6.291   5.355  19.265  0.00  0.00    +0.000 A 
ENDBRANCH  26  29
ENDBRANCH  22  27
ENDBRANCH   1  22
TORSDOF 6
ENDMDL
MODEL 3
REMARK VINA RESULT:      -8.2      1.377      1.658
REMARK  Name = 
REMARK  7 active torsions:
REMARK  status: ('A' for Active; 'I' for Inactive)
REMARK    1  A    between atoms: C_1  and  C_2
REMARK    2  A    between atoms: C_4  and  C_5
REMARK    3  A    between atoms: C_11  and  C_12
REMARK    4  A    between atoms: C_12  and  N_13
REMARK    5  A    between atoms: N_20  and  C_21
REMARK    6  A    between atoms: C_24  and  C_25
REMARK    7  A    between atoms: C_25  and  O_27
REMARK                            x       y       z     vdW  Elec       q    Type
REMARK                         _______ _______ _______ _____ _____    ______ ____
ROOT
ATOM      1  N   UNL     1       2.515   7.962  18.484  0.00  0.00    +0.000 NA
ATOM      2  C   UNL     1       2.132   9.140  17.698  0.00  0.00    +0.000 C 
ATOM      3  C   UNL     1       0.750   9.754  18.026  0.00  0.00    +0.000 C 
ATOM      4  C   UNL     1       0.517  10.041  19.526  0.00  0.00    +0.000 C 
ATOM      5  C   UNL     1       1.120   8.919  20.400  0.00  0.00    +0.000 C 
ATOM      6  C   UNL     1       2.466   8.348  19.910  0.00  0.00    +0.000 C 
ATOM      7  C   UNL     1      -0.962  10.307  19.919  0.00  0.00    +0.000 C 
ATOM      8  N   UNL     1      -0.990  11.636  20.474  0.00  0.00    +0.000 N 
ATOM      9  C   UNL     1       0.245  12.234  20.257  0.00  0.00    +0.000 C 
ATOM     10  O   UNL     1       0.564  13.396  20.437  0.00  0.00    +0.000 OA
ATOM     11  O   UNL     1       1.157  11.303  19.811  0.00  0.00    +0.000 OA
ENDROOT
BRANCH   8  12
ATOM     12  C   UNL     1      -2.030  12.151  21.324  0.00  0.00    +0.000 A 
ATOM     13  C   UNL     1      -1.979  12.005  22.724  0.00  0.00    +0.000 A 
ATOM     14  C   UNL     1      -3.089  12.267  23.547  0.00  0.00    +0.000 A 
ATOM     15  C   UNL     1      -4.287  12.719  23.002  0.00  0.00    +0.000 A 
ATOM     16  C   UNL     1      -4.319  13.017  21.633  0.00  0.00    +0.000 A 
ATOM     17  C   UNL     1      -3.202  12.735  20.811  0.00  0.00    +0.000 A 
BRANCH  15  18
ATOM     18  C   UNL     1      -5.465  12.871  23.908  0.00  0.00    +0.000 C 
ATOM     19  O   UNL     1      -6.303  13.741  23.766  0.00  0.00    +0.000 OA
BRANCH  18  20
ATOM     20  O   UNL     1      -5.483  12.005  24.944  0.00  0.00    +0.000 OA
ATOM     21  H   UNL     1      -4.763  12.106  25.591  0.00  0.00    +0.000 HD
ENDBRANCH  18  20
ENDBRANCH  15  18
ENDBRANCH   8  12
BRANCH   1  22
ATOM     22  C   UNL     1       1.779   6.707  18.212  0.00  0.00    +0.000 C 
BRANCH  22  27
ATOM     23  C   UNL     1       2.889   1.482  18.368  0.00  0.00    +0.000 C 
ATOM     24  C   UNL     1       2.953   2.957  18.166  0.00  0.00    +0.000 A 
ATOM     25  N   UNL     1       4.080   3.607  18.090  0.00  0.00    +0.000 NA
ATOM     26  C   UNL     1       3.890   4.993  18.114  0.00  0.00    +0.000 A 
ATOM     27  C   UNL     1       2.551   5.398  18.066  0.00  0.00    +0.000 A 
ATOM     28  S   UNL     1       1.564   3.936  18.060  0.00  0.00    +0.000 S 
BRANCH  26  29
ATOM     29  C   UNL     1       5.147   5.721  18.337  0.00  0.00    +0.000 A 
ATOM     30  C   UNL     1       5.532   6.661  17.353  0.00  0.00    +0.000 A 
ATOM     31  C   UNL     1       6.851   7.105  17.234  0.00  0.00    +0.000 A 
ATOM     32  C   UNL     1       7.815   6.618  18.114  0.00  0.00    +0.000 A 
ATOM     33  C   UNL     1       7.439   5.749  19.137  0.00  0.00    +0.000 A 
ATOM     34  C   UNL     1       6.118   5.290  19.249  0.00  0.00    +0.000 A 
ENDBRANCH  26  29
ENDBRANCH  22  27
ENDBRANCH   1  22
TORSDOF 6
ENDMDL
MODEL 4
REMARK VINA RESULT:      -8.1      0.628      1.049
REMARK  Name = 
REMARK  7 active torsions:
REMARK  status: ('A' for Active; 'I' for Inactive)
REMARK    1  A    between atoms: C_1  and  C_2
REMARK    2  A    between atoms: C_4  and  C_5
REMARK    3  A    between atoms: C_11  and  C_12
REMARK    4  A    between atoms: C_12  and  N_13
REMARK    5  A    between atoms: N_20  and  C_21
REMARK    6  A    between atoms: C_24  and  C_25
REMARK    7  A    between atoms: C_25  and  O_27
REMARK                            x       y       z     vdW  Elec       q    Type
REMARK                         _______ _______ _______ _____ _____    ______ ____
ROOT
ATOM      1  N   UNL     1       2.518   7.711  18.355  0.00  0.00    +0.000 NA
ATOM      2  C   UNL     1       2.053   8.846  17.550  0.00  0.00    +0.000 C 
ATOM      3  C   UNL     1       0.699   9.466  17.973  0.00  0.00    +0.000 C 
ATOM      4  C   UNL     1       0.600   9.827  19.472  0.00  0.00    +0.000 C 
ATOM      5  C   UNL     1       1.292   8.754  20.341  0.00  0.00    +0.000 C 
ATOM      6  C   UNL     1       2.595   8.168  19.759  0.00  0.00    +0.000 C 
ATOM      7  C   UNL     1      -0.840  10.103  19.984  0.00  0.00    +0.000 C 
ATOM      8  N   UNL     1      -0.832  11.458  20.474  0.00  0.00    +0.000 N 
ATOM      9  C   UNL     1       0.371  12.052  20.116  0.00  0.00    +0.000 C 
ATOM     10  O   UNL     1       0.693  13.223  20.208  0.00  0.00    +0.000 OA
ATOM     11  O   UNL     1       1.249  11.105  19.635  0.00  0.00    +0.000 OA
ENDROOT
BRANCH   8  12
ATOM     12  C   UNL     1      -1.797  12.008  21.389  0.00  0.00    +0.000 A 
ATOM     13  C   UNL     1      -1.702  11.793  22.777  0.00  0.00    +0.000 A 
ATOM     14  C   UNL     1      -2.756  12.098  23.658  0.00  0.00    +0.000 A 
ATOM     15  C   UNL     1      -3.937  12.661  23.184  0.00  0.00    +0.000 A 
ATOM     16  C   UNL     1      -4.000  13.024  21.832  0.00  0.00    +0.000 A 
ATOM     17  C   UNL     1      -2.941  12.699  20.951  0.00  0.00    +0.000 A 
BRANCH  15  18
ATOM     18  C   UNL     1      -5.064  12.857  24.145  0.00  0.00    +0.000 C 
ATOM     19  O   UNL     1      -6.071  13.480  23.868  0.00  0.00    +0.000 OA
BRANCH  18  20
ATOM     20  O   UNL     1      -4.839  12.345  25.374  0.00  0.00    +0.000 OA
ATOM     21  H   UNL     1      -4.719  11.380  25.414  0.00  0.00    +0.000 HD
ENDBRANCH  18  20
ENDBRANCH  15  18
ENDBRANCH   8  12
BRANCH   1  22
ATOM     22  C   UNL     1       1.774   6.440  18.214  0.00  0.00    +0.000 C 
BRANCH  22  27
ATOM     23  C   UNL     1       2.598   2.374  21.583  0.00  0.00    +0.000 C 
ATOM     24  C   UNL     1       2.648   3.310  20.425  0.00  0.00    +0.000 A 
ATOM     25  N   UNL     1       3.680   3.394  19.633  0.00  0.00    +0.000 NA
ATOM     26  C   UNL     1       3.583   4.480  18.756  0.00  0.00    +0.000 A 
ATOM     27  C   UNL     1       2.358   5.157  18.801  0.00  0.00    +0.000 A 
ATOM     28  S   UNL     1       1.382   4.387  20.052  0.00  0.00    +0.000 S 
BRANCH  26  29
ATOM     29  C   UNL     1       4.858   4.764  18.082  0.00  0.00    +0.000 A 
ATOM     30  C   UNL     1       4.974   4.368  16.729  0.00  0.00    +0.000 A 
ATOM     31  C   UNL     1       6.217   4.208  16.112  0.00  0.00    +0.000 A 
ATOM     32  C   UNL     1       7.377   4.452  16.845  0.00  0.00    +0.000 A 
ATOM     33  C   UNL     1       7.280   4.914  18.157  0.00  0.00    +0.000 A 
ATOM     34  C   UNL     1       6.032   5.062  18.782  0.00  0.00    +0.000 A 
ENDBRANCH  26  29
ENDBRANCH  22  27
ENDBRANCH   1  22
TORSDOF 6
ENDMDL
MODEL 5
REMARK VINA RESULT:      -8.1      3.686     10.522
REMARK  Name = 
REMARK  7 active torsions:
REMARK  status: ('A' for Active; 'I' for Inactive)
REMARK    1  A    between atoms: C_1  and  C_2
REMARK    2  A    between atoms: C_4  and  C_5
REMARK    3  A    between atoms: C_11  and  C_12
REMARK    4  A    between atoms: C_12  and  N_13
REMARK    5  A    between atoms: N_20  and  C_21
REMARK    6  A    between atoms: C_24  and  C_25
REMARK    7  A    between atoms: C_25  and  O_27
REMARK                            x       y       z     vdW  Elec       q    Type
REMARK                         _______ _______ _______ _____ _____    ______ ____
ROOT
ATOM      1  N   UNL     1      -1.561  12.486  19.704  0.00  0.00    +0.000 NA
ATOM      2  C   UNL     1      -0.112  12.703  19.615  0.00  0.00    +0.000 C 
ATOM      3  C   UNL     1       0.778  11.539  20.112  0.00  0.00    +0.000 C 
ATOM      4  C   UNL     1       0.429  10.161  19.505  0.00  0.00    +0.000 C 
ATOM      5  C   UNL     1      -1.101   9.994  19.369  0.00  0.00    +0.000 C 
ATOM      6  C   UNL     1      -1.871  11.260  18.939  0.00  0.00    +0.000 C 
ATOM      7  C   UNL     1       1.050   8.945  20.245  0.00  0.00    +0.000 C 
ATOM      8  N   UNL     1       1.878   8.275  19.275  0.00  0.00    +0.000 N 
ATOM      9  C   UNL     1       1.968   9.072  18.141  0.00  0.00    +0.000 C 
ATOM     10  O   UNL     1       2.693   8.930  17.172  0.00  0.00    +0.000 OA
ATOM     11  O   UNL     1       1.060  10.107  18.209  0.00  0.00    +0.000 OA
ENDROOT
BRANCH   8  12
ATOM     12  C   UNL     1       2.321   6.910  19.374  0.00  0.00    +0.000 A 
ATOM     13  C   UNL     1       3.107   6.314  18.369  0.00  0.00    +0.000 A 
ATOM     14  C   UNL     1       3.336   4.927  18.317  0.00  0.00    +0.000 A 
ATOM     15  C   UNL     1       2.811   4.084  19.292  0.00  0.00    +0.000 A 
ATOM     16  C   UNL     1       2.154   4.666  20.384  0.00  0.00    +0.000 A 
ATOM     17  C   UNL     1       1.916   6.060  20.420  0.00  0.00    +0.000 A 
BRANCH  15  18
ATOM     18  C   UNL     1       2.989   2.611  19.124  0.00  0.00    +0.000 C 
ATOM     19  O   UNL     1       2.080   1.813  19.259  0.00  0.00    +0.000 OA
BRANCH  18  20
ATOM     20  O   UNL     1       4.261   2.229  18.881  0.00  0.00    +0.000 OA
ATOM     21  H   UNL     1       4.463   1.998  17.958  0.00  0.00    +0.000 HD
ENDBRANCH  18  20
ENDBRANCH  15  18
ENDBRANCH   8  12
BRANCH   1  22
ATOM     22  C   UNL     1      -2.155  12.473  21.059  0.00  0.00    +0.000 C 
BRANCH  22  27
ATOM     23  C   UNL     1      -5.379  15.825  23.692  0.00  0.00    +0.000 C 
ATOM     24  C   UNL     1      -4.761  14.936  22.668  0.00  0.00    +0.000 A 
ATOM     25  N   UNL     1      -5.451  14.378  21.713  0.00  0.00    +0.000 NA
ATOM     26  C   UNL     1      -4.703  13.428  21.010  0.00  0.00    +0.000 A 
ATOM     27  C   UNL     1      -3.350  13.373  21.365  0.00  0.00    +0.000 A 
ATOM     28  S   UNL     1      -3.107  14.532  22.673  0.00  0.00    +0.000 S 
BRANCH  26  29
ATOM     29  C   UNL     1      -5.545  12.586  20.149  0.00  0.00    +0.000 A 
ATOM     30  C   UNL     1      -6.567  11.839  20.780  0.00  0.00    +0.000 A 
ATOM     31  C   UNL     1      -7.151  10.727  20.169  0.00  0.00    +0.000 A 
ATOM     32  C   UNL     1      -6.724  10.345  18.899  0.00  0.00    +0.000 A 
ATOM     33  C   UNL     1      -5.771  11.114  18.232  0.00  0.00    +0.000 A 
ATOM     34  C   UNL     1      -5.173  12.223  18.850  0.00  0.00    +0.000 A 
ENDBRANCH  26  29
ENDBRANCH  22  27
ENDBRANCH   1  22
TORSDOF 6
ENDMDL
MODEL 6
REMARK VINA RESULT:      -8.0      3.709     10.588
REMARK  Name = 
REMARK  7 active torsions:
REMARK  status: ('A' for Active; 'I' for Inactive)
REMARK    1  A    between atoms: C_1  and  C_2
REMARK    2  A    between atoms: C_4  and  C_5
REMARK    3  A    between atoms: C_11  and  C_12
REMARK    4  A    between atoms: C_12  and  N_13
REMARK    5  A    between atoms: N_20  and  C_21
REMARK    6  A    between atoms: C_24  and  C_25
REMARK    7  A    between atoms: C_25  and  O_27
REMARK                            x       y       z     vdW  Elec       q    Type
REMARK                         _______ _______ _______ _____ _____    ______ ____
ROOT
ATOM      1  N   UNL     1      -1.169  12.133  19.538  0.00  0.00    +0.000 NA
ATOM      2  C   UNL     1       0.273  12.313  19.329  0.00  0.00    +0.000 C 
ATOM      3  C   UNL     1       1.182  11.189  19.881  0.00  0.00    +0.000 C 
ATOM      4  C   UNL     1       0.776   9.764  19.444  0.00  0.00    +0.000 C 
ATOM      5  C   UNL     1      -0.761   9.612  19.430  0.00  0.00    +0.000 C 
ATOM      6  C   UNL     1      -1.545  10.841  18.926  0.00  0.00    +0.000 C 
ATOM      7  C   UNL     1       1.433   8.617  20.260  0.00  0.00    +0.000 C 
ATOM      8  N   UNL     1       2.184   7.837  19.310  0.00  0.00    +0.000 N 
ATOM      9  C   UNL     1       2.204   8.514  18.097  0.00  0.00    +0.000 C 
ATOM     10  O   UNL     1       2.859   8.261  17.101  0.00  0.00    +0.000 OA
ATOM     11  O   UNL     1       1.315   9.566  18.121  0.00  0.00    +0.000 OA
ENDROOT
BRANCH   8  12
ATOM     12  C   UNL     1       2.617   6.481  19.519  0.00  0.00    +0.000 A 
ATOM     13  C   UNL     1       3.942   6.081  19.256  0.00  0.00    +0.000 A 
ATOM     14  C   UNL     1       4.322   4.728  19.206  0.00  0.00    +0.000 A 
ATOM     15  C   UNL     1       3.395   3.720  19.452  0.00  0.00    +0.000 A 
ATOM     16  C   UNL     1       2.108   4.092  19.864  0.00  0.00    +0.000 A 
ATOM     17  C   UNL     1       1.731   5.456  19.896  0.00  0.00    +0.000 A 
BRANCH  15  18
ATOM     18  C   UNL     1       3.826   2.301  19.274  0.00  0.00    +0.000 C 
ATOM     19  O   UNL     1       3.144   1.466  18.711  0.00  0.00    +0.000 OA
BRANCH  18  20
ATOM     20  O   UNL     1       5.009   2.004  19.855  0.00  0.00    +0.000 OA
ATOM     21  H   UNL     1       4.956   1.636  20.754  0.00  0.00    +0.000 HD
ENDBRANCH  18  20
ENDBRANCH  15  18
ENDBRANCH   8  12
BRANCH   1  22
ATOM     22  C   UNL     1      -1.667  12.268  20.924  0.00  0.00    +0.000 C 
BRANCH  22  27
ATOM     23  C   UNL     1      -4.857  15.742  23.439  0.00  0.00    +0.000 C 
ATOM     24  C   UNL     1      -4.256  14.800  22.453  0.00  0.00    +0.000 A 
ATOM     25  N   UNL     1      -4.966  14.179  21.552  0.00  0.00    +0.000 NA
ATOM     26  C   UNL     1      -4.226  13.195  20.887  0.00  0.00    +0.000 A 
ATOM     27  C   UNL     1      -2.863  13.174  21.208  0.00  0.00    +0.000 A 
ATOM     28  S   UNL     1      -2.599  14.411  22.437  0.00  0.00    +0.000 S 
BRANCH  26  29
ATOM     29  C   UNL     1      -5.082  12.294  20.102  0.00  0.00    +0.000 A 
ATOM     30  C   UNL     1      -4.763  12.132  18.734  0.00  0.00    +0.000 A 
ATOM     31  C   UNL     1      -5.695  11.651  17.811  0.00  0.00    +0.000 A 
ATOM     32  C   UNL     1      -6.974  11.314  18.250  0.00  0.00    +0.000 A 
ATOM     33  C   UNL     1      -7.283  11.397  19.607  0.00  0.00    +0.000 A 
ATOM     34  C   UNL     1      -6.352  11.893  20.532  0.00  0.00    +0.000 A 
ENDBRANCH  26  29
ENDBRANCH  22  27
ENDBRANCH   1  22
TORSDOF 6
ENDMDL
MODEL 7
REMARK VINA RESULT:      -7.9      1.138      1.437
REMARK  Name = 
REMARK  7 active torsions:
REMARK  status: ('A' for Active; 'I' for Inactive)
REMARK    1  A    between atoms: C_1  and  C_2
REMARK    2  A    between atoms: C_4  and  C_5
REMARK    3  A    between atoms: C_11  and  C_12
REMARK    4  A    between atoms: C_12  and  N_13
REMARK    5  A    between atoms: N_20  and  C_21
REMARK    6  A    between atoms: C_24  and  C_25
REMARK    7  A    between atoms: C_25  and  O_27
REMARK                            x       y       z     vdW  Elec       q    Type
REMARK                         _______ _______ _______ _____ _____    ______ ____
ROOT
ATOM      1  N   UNL     1       2.514   7.503  18.751  0.00  0.00    +0.000 NA
ATOM      2  C   UNL     1       2.489   8.826  18.116  0.00  0.00    +0.000 C 
ATOM      3  C   UNL     1       1.185   9.639  18.294  0.00  0.00    +0.000 C 
ATOM      4  C   UNL     1       0.704   9.765  19.757  0.00  0.00    +0.000 C 
ATOM      5  C   UNL     1       0.933   8.445  20.526  0.00  0.00    +0.000 C 
ATOM      6  C   UNL     1       2.242   7.701  20.191  0.00  0.00    +0.000 C 
ATOM      7  C   UNL     1      -0.763  10.250  19.924  0.00  0.00    +0.000 C 
ATOM      8  N   UNL     1      -0.689  11.475  20.677  0.00  0.00    +0.000 N 
ATOM      9  C   UNL     1       0.643  11.854  20.780  0.00  0.00    +0.000 C 
ATOM     10  O   UNL     1       1.100  12.902  21.202  0.00  0.00    +0.000 OA
ATOM     11  O   UNL     1       1.466  10.836  20.353  0.00  0.00    +0.000 OA
ENDROOT
BRANCH   8  12
ATOM     12  C   UNL     1      -1.784  12.060  21.405  0.00  0.00    +0.000 A 
ATOM     13  C   UNL     1      -1.896  11.926  22.803  0.00  0.00    +0.000 A 
ATOM     14  C   UNL     1      -3.071  12.262  23.498  0.00  0.00    +0.000 A 
ATOM     15  C   UNL     1      -4.173  12.778  22.823  0.00  0.00    +0.000 A 
ATOM     16  C   UNL     1      -4.037  13.063  21.457  0.00  0.00    +0.000 A 
ATOM     17  C   UNL     1      -2.855  12.707  20.764  0.00  0.00    +0.000 A 
BRANCH  15  18
ATOM     18  C   UNL     1      -5.432  13.009  23.593  0.00  0.00    +0.000 C 
ATOM     19  O   UNL     1      -6.048  14.057  23.558  0.00  0.00    +0.000 OA
BRANCH  18  20
ATOM     20  O   UNL     1      -5.791  11.980  24.390  0.00  0.00    +0.000 OA
ATOM     21  H   UNL     1      -5.718  12.142  25.347  0.00  0.00    +0.000 HD
ENDBRANCH  18  20
ENDBRANCH  15  18
ENDBRANCH   8  12
BRANCH   1  22
ATOM     22  C   UNL     1       1.657   6.456  18.153  0.00  0.00    +0.000 C 
BRANCH  22  27
ATOM     23  C   UNL     1       2.572   1.270  19.062  0.00  0.00    +0.000 C 
ATOM     24  C   UNL     1       2.551   2.643  18.484  0.00  0.00    +0.000 A 
ATOM     25  N   UNL     1       3.481   3.083  17.684  0.00  0.00    +0.000 NA
ATOM     26  C   UNL     1       3.362   4.456  17.444  0.00  0.00    +0.000 A 
ATOM     27  C   UNL     1       2.208   5.043  17.978  0.00  0.00    +0.000 A 
ATOM     28  S   UNL     1       1.336   3.780  18.848  0.00  0.00    +0.000 S 
BRANCH  26  29
ATOM     29  C   UNL     1       4.562   5.014  16.805  0.00  0.00    +0.000 A 
ATOM     30  C   UNL     1       5.122   4.280  15.733  0.00  0.00    +0.000 A 
ATOM     31  C   UNL     1       6.443   4.469  15.320  0.00  0.00    +0.000 A 
ATOM     32  C   UNL     1       7.232   5.412  15.976  0.00  0.00    +0.000 A 
ATOM     33  C   UNL     1       6.675   6.196  16.985  0.00  0.00    +0.000 A 
ATOM     34  C   UNL     1       5.352   5.998  17.410  0.00  0.00    +0.000 A 
ENDBRANCH  26  29
ENDBRANCH  22  27
ENDBRANCH   1  22
TORSDOF 6
ENDMDL
MODEL 8
REMARK VINA RESULT:      -7.9      3.546     10.708
REMARK  Name = 
REMARK  7 active torsions:
REMARK  status: ('A' for Active; 'I' for Inactive)
REMARK    1  A    between atoms: C_1  and  C_2
REMARK    2  A    between atoms: C_4  and  C_5
REMARK    3  A    between atoms: C_11  and  C_12
REMARK    4  A    between atoms: C_12  and  N_13
REMARK    5  A    between atoms: N_20  and  C_21
REMARK    6  A    between atoms: C_24  and  C_25
REMARK    7  A    between atoms: C_25  and  O_27
REMARK                            x       y       z     vdW  Elec       q    Type
REMARK                         _______ _______ _______ _____ _____    ______ ____
ROOT
ATOM      1  N   UNL     1      -1.038  12.195  20.236  0.00  0.00    +0.000 NA
ATOM      2  C   UNL     1       0.413  12.330  20.063  0.00  0.00    +0.000 C 
ATOM      3  C   UNL     1       1.254  11.073  20.392  0.00  0.00    +0.000 C 
ATOM      4  C   UNL     1       0.773   9.781  19.695  0.00  0.00    +0.000 C 
ATOM      5  C   UNL     1      -0.770   9.721  19.654  0.00  0.00    +0.000 C 
ATOM      6  C   UNL     1      -1.480  11.065  19.392  0.00  0.00    +0.000 C 
ATOM      7  C   UNL     1       1.358   8.466  20.280  0.00  0.00    +0.000 C 
ATOM      8  N   UNL     1       2.074   7.838  19.199  0.00  0.00    +0.000 N 
ATOM      9  C   UNL     1       2.142   8.729  18.135  0.00  0.00    +0.000 C 
ATOM     10  O   UNL     1       2.792   8.631  17.109  0.00  0.00    +0.000 OA
ATOM     11  O   UNL     1       1.313   9.806  18.357  0.00  0.00    +0.000 OA
ENDROOT
BRANCH   8  12
ATOM     12  C   UNL     1       2.430   6.445  19.148  0.00  0.00    +0.000 A 
ATOM     13  C   UNL     1       2.158   5.574  20.221  0.00  0.00    +0.000 A 
ATOM     14  C   UNL     1       2.716   4.286  20.302  0.00  0.00    +0.000 A 
ATOM     15  C   UNL     1       3.544   3.805  19.293  0.00  0.00    +0.000 A 
ATOM     16  C   UNL     1       3.709   4.590  18.144  0.00  0.00    +0.000 A 
ATOM     17  C   UNL     1       3.156   5.891  18.078  0.00  0.00    +0.000 A 
BRANCH  15  18
ATOM     18  C   UNL     1       4.199   2.477  19.486  0.00  0.00    +0.000 C 
ATOM     19  O   UNL     1       4.925   2.225  20.429  0.00  0.00    +0.000 OA
BRANCH  18  20
ATOM     20  O   UNL     1       3.976   1.598  18.485  0.00  0.00    +0.000 OA
ATOM     21  H   UNL     1       4.022   1.964  17.585  0.00  0.00    +0.000 HD
ENDBRANCH  18  20
ENDBRANCH  15  18
ENDBRANCH   8  12
BRANCH   1  22
ATOM     22  C   UNL     1      -1.542  12.095  21.624  0.00  0.00    +0.000 C 
BRANCH  22  27
ATOM     23  C   UNL     1      -3.381  15.775  25.036  0.00  0.00    +0.000 C 
ATOM     24  C   UNL     1      -3.159  14.904  23.847  0.00  0.00    +0.000 A 
ATOM     25  N   UNL     1      -4.087  14.676  22.959  0.00  0.00    +0.000 NA
ATOM     26  C   UNL     1      -3.718  13.670  22.060  0.00  0.00    +0.000 A 
ATOM     27  C   UNL     1      -2.398  13.222  22.196  0.00  0.00    +0.000 A 
ATOM     28  S   UNL     1      -1.691  14.091  23.558  0.00  0.00    +0.000 S 
BRANCH  26  29
ATOM     29  C   UNL     1      -4.857  13.197  21.261  0.00  0.00    +0.000 A 
ATOM     30  C   UNL     1      -6.042  12.868  21.959  0.00  0.00    +0.000 A 
ATOM     31  C   UNL     1      -7.024  12.048  21.398  0.00  0.00    +0.000 A 
ATOM     32  C   UNL     1      -6.839  11.546  20.112  0.00  0.00    +0.000 A 
ATOM     33  C   UNL     1      -5.712  11.920  19.381  0.00  0.00    +0.000 A 
ATOM     34  C   UNL     1      -4.717  12.731  19.948  0.00  0.00    +0.000 A 
ENDBRANCH  26  29
ENDBRANCH  22  27
ENDBRANCH   1  22
TORSDOF 6
ENDMDL
MODEL 9
REMARK VINA RESULT:      -7.9      0.508      1.109
REMARK  Name = 
REMARK  7 active torsions:
REMARK  status: ('A' for Active; 'I' for Inactive)
REMARK    1  A    between atoms: C_1  and  C_2
REMARK    2  A    between atoms: C_4  and  C_5
REMARK    3  A    between atoms: C_11  and  C_12
REMARK    4  A    between atoms: C_12  and  N_13
REMARK    5  A    between atoms: N_20  and  C_21
REMARK    6  A    between atoms: C_24  and  C_25
REMARK    7  A    between atoms: C_25  and  O_27
REMARK                            x       y       z     vdW  Elec       q    Type
REMARK                         _______ _______ _______ _____ _____    ______ ____
ROOT
ATOM      1  N   UNL     1       2.645   7.518  18.546  0.00  0.00    +0.000 NA
ATOM      2  C   UNL     1       2.401   8.744  17.777  0.00  0.00    +0.000 C 
ATOM      3  C   UNL     1       1.042   9.441  18.026  0.00  0.00    +0.000 C 
ATOM      4  C   UNL     1       0.717   9.697  19.515  0.00  0.00    +0.000 C 
ATOM      5  C   UNL     1       1.178   8.510  20.389  0.00  0.00    +0.000 C 
ATOM      6  C   UNL     1       2.516   7.863  19.978  0.00  0.00    +0.000 C 
ATOM      7  C   UNL     1      -0.767  10.052  19.809  0.00  0.00    +0.000 C 
ATOM      8  N   UNL     1      -0.747  11.362  20.408  0.00  0.00    +0.000 N 
ATOM      9  C   UNL     1       0.537  11.880  20.302  0.00  0.00    +0.000 C 
ATOM     10  O   UNL     1       0.919  13.011  20.546  0.00  0.00    +0.000 OA
ATOM     11  O   UNL     1       1.416  10.903  19.890  0.00  0.00    +0.000 OA
ENDROOT
BRANCH   8  12
ATOM     12  C   UNL     1      -1.812  11.921  21.198  0.00  0.00    +0.000 A 
ATOM     13  C   UNL     1      -2.822  12.713  20.619  0.00  0.00    +0.000 A 
ATOM     14  C   UNL     1      -3.717  13.473  21.394  0.00  0.00    +0.000 A 
ATOM     15  C   UNL     1      -3.656  13.443  22.784  0.00  0.00    +0.000 A 
ATOM     16  C   UNL     1      -2.761  12.549  23.387  0.00  0.00    +0.000 A 
ATOM     17  C   UNL     1      -1.854  11.800  22.599  0.00  0.00    +0.000 A 
BRANCH  15  18
ATOM     18  C   UNL     1      -4.554  14.356  23.552  0.00  0.00    +0.000 C 
ATOM     19  O   UNL     1      -4.440  15.567  23.537  0.00  0.00    +0.000 OA
BRANCH  18  20
ATOM     20  O   UNL     1      -5.460  13.720  24.326  0.00  0.00    +0.000 OA
ATOM     21  H   UNL     1      -6.021  14.294  24.876  0.00  0.00    +0.000 HD
ENDBRANCH  18  20
ENDBRANCH  15  18
ENDBRANCH   8  12
BRANCH   1  22
ATOM     22  C   UNL     1       1.850   6.327  18.178  0.00  0.00    +0.000 C 
BRANCH  22  27
ATOM     23  C   UNL     1       1.979   2.362  21.759  0.00  0.00    +0.000 C 
ATOM     24  C   UNL     1       2.156   3.201  20.541  0.00  0.00    +0.000 A 
ATOM     25  N   UNL     1       3.127   3.010  19.691  0.00  0.00    +0.000 NA
ATOM     26  C   UNL     1       3.214   4.043  18.752  0.00  0.00    +0.000 A 
ATOM     27  C   UNL     1       2.174   4.978  18.816  0.00  0.00    +0.000 A 
ATOM     28  S   UNL     1       1.137   4.512  20.165  0.00  0.00    +0.000 S 
BRANCH  26  29
ATOM     29  C   UNL     1       4.473   3.999  17.994  0.00  0.00    +0.000 A 
ATOM     30  C   UNL     1       5.646   4.412  18.668  0.00  0.00    +0.000 A 
ATOM     31  C   UNL     1       6.796   4.798  17.976  0.00  0.00    +0.000 A 
ATOM     32  C   UNL     1       6.794   4.768  16.583  0.00  0.00    +0.000 A 
ATOM     33  C   UNL     1       5.673   4.293  15.905  0.00  0.00    +0.000 A 
ATOM     34  C   UNL     1       4.512   3.918  16.598  0.00  0.00    +0.000 A 
ENDBRANCH  26  29
ENDBRANCH  22  27
ENDBRANCH   1  22
TORSDOF 6
ENDMDL
