MODEL 1
REMARK VINA RESULT:      -8.3      0.000      0.000
REMARK  Name = 
REMARK  6 active torsions:
REMARK  status: ('A' for Active; 'I' for Inactive)
REMARK    1  A    between atoms: C_1  and  C_2
REMARK    2  A    between atoms: C_8  and  C_10
REMARK    3  A    between atoms: C_11  and  C_12
REMARK    4  A    between atoms: C_17  and  C_18
REMARK    5  A    between atoms: C_18  and  C_19
REMARK    6  A    between atoms: C_19  and  C_20
REMARK                            x       y       z     vdW  Elec       q    Type
REMARK                         _______ _______ _______ _____ _____    ______ ____
ROOT
ATOM      1  C   UNL     1       5.030   5.610  17.400  0.00  0.00    +0.000 C 
ATOM      2  C   UNL     1       6.075   6.423  17.061  0.00  0.00    +0.000 C 
ATOM      3  C   UNL     1       6.664   7.600  17.793  0.00  0.00    +0.000 C 
ATOM      4  N   UNL     1       6.719   6.202  15.859  0.00  0.00    +0.000 N 
ATOM      5  C   UNL     1       6.521   5.156  15.025  0.00  0.00    +0.000 C 
ATOM      6  O   UNL     1       7.132   5.030  13.977  0.00  0.00    +0.000 OA
ATOM      7  N   UNL     1       5.635   4.226  15.437  0.00  0.00    +0.000 N 
ATOM      8  C   UNL     1       4.628   4.493  16.445  0.00  0.00    +0.000 C 
ATOM      9  H   UNL     1       7.462   6.826  15.565  0.00  0.00    +0.000 HD
ATOM     10  H   UNL     1       5.451   3.529  14.727  0.00  0.00    +0.000 HD
ENDROOT
BRANCH   1  18
ATOM     11  C   UNL     1      -0.403  10.103  17.927  0.00  0.00    +0.000 C 
ATOM     12  C   UNL     1       0.311   9.729  19.209  0.00  0.00    +0.000 C 
ATOM     13  O   UNL     1      -0.061  10.175  20.290  0.00  0.00    +0.000 OA
ATOM     14  N   UNL     1       1.349   8.826  19.084  0.00  0.00    +0.000 N 
ATOM     15  C   UNL     1       2.046   8.287  20.270  0.00  0.00    +0.000 C 
ATOM     16  C   UNL     1       2.446   6.798  20.088  0.00  0.00    +0.000 C 
ATOM     17  N   UNL     1       3.081   6.559  18.770  0.00  0.00    +0.000 N 
ATOM     18  C   UNL     1       4.284   5.862  18.707  0.00  0.00    +0.000 C 
ATOM     19  O   UNL     1       4.772   5.424  19.753  0.00  0.00    +0.000 OA
ATOM     20  C   UNL     1       2.258   7.082  17.687  0.00  0.00    +0.000 C 
ATOM     21  C   UNL     1       2.016   8.564  17.826  0.00  0.00    +0.000 C 
ENDBRANCH   1  18
BRANCH   8  22
ATOM     22  C   UNL     1       4.268   3.141  17.101  0.00  0.00    +0.000 C 
BRANCH  22  23
ATOM     23  C   UNL     1       2.743   2.979  17.303  0.00  0.00    +0.000 C 
BRANCH  23  24
ATOM     24  C   UNL     1       2.338   2.965  18.762  0.00  0.00    +0.000 A 
ATOM     25  C   UNL     1       3.204   2.482  19.756  0.00  0.00    +0.000 A 
ATOM     26  C   UNL     1       2.822   2.510  21.101  0.00  0.00    +0.000 A 
ATOM     27  C   UNL     1       1.577   3.021  21.465  0.00  0.00    +0.000 A 
ATOM     28  C   UNL     1       0.712   3.502  20.486  0.00  0.00    +0.000 A 
ATOM     29  C   UNL     1       1.091   3.478  19.144  0.00  0.00    +0.000 A 
ENDBRANCH  23  24
ENDBRANCH  22  23
ENDBRANCH   8  22
TORSDOF 4
ENDMDL
MODEL 2
REMARK VINA RESULT:      -7.4      2.236      4.829
REMARK  Name = 
REMARK  6 active torsions:
REMARK  status: ('A' for Active; 'I' for Inactive)
REMARK    1  A    between atoms: C_1  and  C_2
REMARK    2  A    between atoms: C_8  and  C_10
REMARK    3  A    between atoms: C_11  and  C_12
REMARK    4  A    between atoms: C_17  and  C_18
REMARK    5  A    between atoms: C_18  and  C_19
REMARK    6  A    between atoms: C_19  and  C_20
REMARK                            x       y       z     vdW  Elec       q    Type
REMARK                         _______ _______ _______ _____ _____    ______ ____
ROOT
ATOM      1  C   UNL     1       3.878   5.385  18.506  0.00  0.00    +0.000 C 
ATOM      2  C   UNL     1       2.969   4.364  18.496  0.00  0.00    +0.000 C 
ATOM      3  C   UNL     1       1.573   4.314  17.934  0.00  0.00    +0.000 C 
ATOM      4  N   UNL     1       3.311   3.171  19.103  0.00  0.00    +0.000 N 
ATOM      5  C   UNL     1       4.528   2.842  19.592  0.00  0.00    +0.000 C 
ATOM      6  O   UNL     1       4.753   1.764  20.116  0.00  0.00    +0.000 OA
ATOM      7  N   UNL     1       5.503   3.761  19.431  0.00  0.00    +0.000 N 
ATOM      8  C   UNL     1       5.228   5.161  19.176  0.00  0.00    +0.000 C 
ATOM      9  H   UNL     1       2.633   2.420  19.153  0.00  0.00    +0.000 HD
ATOM     10  H   UNL     1       6.356   3.504  19.909  0.00  0.00    +0.000 HD
ENDROOT
BRANCH   1  18
ATOM     11  C   UNL     1      -0.414  10.058  21.627  0.00  0.00    +0.000 C 
ATOM     12  C   UNL     1      -0.226  10.185  20.129  0.00  0.00    +0.000 C 
ATOM     13  O   UNL     1      -0.782  11.079  19.499  0.00  0.00    +0.000 OA
ATOM     14  N   UNL     1       0.641   9.280  19.547  0.00  0.00    +0.000 N 
ATOM     15  C   UNL     1       1.004   9.373  18.119  0.00  0.00    +0.000 C 
ATOM     16  C   UNL     1       2.486   8.986  17.865  0.00  0.00    +0.000 C 
ATOM     17  N   UNL     1       2.855   7.736  18.571  0.00  0.00    +0.000 N 
ATOM     18  C   UNL     1       3.503   6.721  17.873  0.00  0.00    +0.000 C 
ATOM     19  O   UNL     1       3.791   6.908  16.687  0.00  0.00    +0.000 OA
ATOM     20  C   UNL     1       2.500   7.805  19.983  0.00  0.00    +0.000 C 
ATOM     21  C   UNL     1       1.023   8.037  20.184  0.00  0.00    +0.000 C 
ENDBRANCH   1  18
BRANCH   8  22
ATOM     22  C   UNL     1       6.453   5.741  18.435  0.00  0.00    +0.000 C 
BRANCH  22  23
ATOM     23  C   UNL     1       7.260   4.648  17.697  0.00  0.00    +0.000 C 
BRANCH  23  24
ATOM     24  C   UNL     1       6.846   4.481  16.250  0.00  0.00    +0.000 A 
ATOM     25  C   UNL     1       5.689   3.767  15.900  0.00  0.00    +0.000 A 
ATOM     26  C   UNL     1       5.307   3.655  14.559  0.00  0.00    +0.000 A 
ATOM     27  C   UNL     1       6.073   4.253  13.560  0.00  0.00    +0.000 A 
ATOM     28  C   UNL     1       7.222   4.963  13.899  0.00  0.00    +0.000 A 
ATOM     29  C   UNL     1       7.604   5.079  15.235  0.00  0.00    +0.000 A 
ENDBRANCH  23  24
ENDBRANCH  22  23
ENDBRANCH   8  22
TORSDOF 4
ENDMDL
MODEL 3
REMARK VINA RESULT:      -6.9      2.518      6.415
REMARK  Name = 
REMARK  6 active torsions:
REMARK  status: ('A' for Active; 'I' for Inactive)
REMARK    1  A    between atoms: C_1  and  C_2
REMARK    2  A    between atoms: C_8  and  C_10
REMARK    3  A    between atoms: C_11  and  C_12
REMARK    4  A    between atoms: C_17  and  C_18
REMARK    5  A    between atoms: C_18  and  C_19
REMARK    6  A    between atoms: C_19  and  C_20
REMARK                            x       y       z     vdW  Elec       q    Type
REMARK                         _______ _______ _______ _____ _____    ______ ____
ROOT
ATOM      1  C   UNL     1       3.056   3.066  19.309  0.00  0.00    +0.000 C 
ATOM      2  C   UNL     1       3.531   2.335  20.361  0.00  0.00    +0.000 C 
ATOM      3  C   UNL     1       4.835   1.598  20.519  0.00  0.00    +0.000 C 
ATOM      4  N   UNL     1       2.730   2.188  21.477  0.00  0.00    +0.000 N 
ATOM      5  C   UNL     1       1.558   2.821  21.710  0.00  0.00    +0.000 C 
ATOM      6  O   UNL     1       0.906   2.638  22.725  0.00  0.00    +0.000 OA
ATOM      7  N   UNL     1       1.163   3.707  20.773  0.00  0.00    +0.000 N 
ATOM      8  C   UNL     1       1.670   3.692  19.415  0.00  0.00    +0.000 C 
ATOM      9  H   UNL     1       3.042   1.608  22.247  0.00  0.00    +0.000 HD
ATOM     10  H   UNL     1       0.234   4.065  20.949  0.00  0.00    +0.000 HD
ENDROOT
BRANCH   1  18
ATOM     11  C   UNL     1       8.291   7.783  18.729  0.00  0.00    +0.000 C 
ATOM     12  C   UNL     1       7.722   7.219  17.443  0.00  0.00    +0.000 C 
ATOM     13  O   UNL     1       8.175   7.557  16.354  0.00  0.00    +0.000 OA
ATOM     14  N   UNL     1       6.722   6.277  17.583  0.00  0.00    +0.000 N 
ATOM     15  C   UNL     1       6.170   5.563  16.414  0.00  0.00    +0.000 C 
ATOM     16  C   UNL     1       5.827   4.084  16.740  0.00  0.00    +0.000 C 
ATOM     17  N   UNL     1       5.080   3.963  18.015  0.00  0.00    +0.000 N 
ATOM     18  C   UNL     1       3.912   3.208  18.054  0.00  0.00    +0.000 C 
ATOM     19  O   UNL     1       3.548   2.623  17.029  0.00  0.00    +0.000 OA
ATOM     20  C   UNL     1       5.768   4.657  19.096  0.00  0.00    +0.000 C 
ATOM     21  C   UNL     1       5.951   6.124  18.799  0.00  0.00    +0.000 C 
ENDBRANCH   1  18
BRANCH   8  22
ATOM     22  C   UNL     1       1.534   5.127  18.859  0.00  0.00    +0.000 C 
BRANCH  22  23
ATOM     23  C   UNL     1       2.412   6.138  19.634  0.00  0.00    +0.000 C 
BRANCH  23  24
ATOM     24  C   UNL     1       1.999   7.577  19.405  0.00  0.00    +0.000 A 
ATOM     25  C   UNL     1       2.214   8.210  18.170  0.00  0.00    +0.000 A 
ATOM     26  C   UNL     1       1.793   9.529  17.970  0.00  0.00    +0.000 A 
ATOM     27  C   UNL     1       1.157  10.225  18.997  0.00  0.00    +0.000 A 
ATOM     28  C   UNL     1       0.941   9.604  20.224  0.00  0.00    +0.000 A 
ATOM     29  C   UNL     1       1.356   8.289  20.426  0.00  0.00    +0.000 A 
ENDBRANCH  23  24
ENDBRANCH  22  23
ENDBRANCH   8  22
TORSDOF 4
ENDMDL
MODEL 4
REMARK VINA RESULT:      -6.9      2.258      6.835
REMARK  Name = 
REMARK  6 active torsions:
REMARK  status: ('A' for Active; 'I' for Inactive)
REMARK    1  A    between atoms: C_1  and  C_2
REMARK    2  A    between atoms: C_8  and  C_10
REMARK    3  A    between atoms: C_11  and  C_12
REMARK    4  A    between atoms: C_17  and  C_18
REMARK    5  A    between atoms: C_18  and  C_19
REMARK    6  A    between atoms: C_19  and  C_20
REMARK                            x       y       z     vdW  Elec       q    Type
REMARK                         _______ _______ _______ _____ _____    ______ ____
ROOT
ATOM      1  C   UNL     1       3.854   4.377  19.605  0.00  0.00    +0.000 C 
ATOM      2  C   UNL     1       3.930   3.113  20.120  0.00  0.00    +0.000 C 
ATOM      3  C   UNL     1       5.084   2.146  20.150  0.00  0.00    +0.000 C 
ATOM      4  N   UNL     1       2.799   2.567  20.695  0.00  0.00    +0.000 N 
ATOM      5  C   UNL     1       1.635   3.211  20.942  0.00  0.00    +0.000 C 
ATOM      6  O   UNL     1       0.678   2.657  21.456  0.00  0.00    +0.000 OA
ATOM      7  N   UNL     1       1.602   4.522  20.626  0.00  0.00    +0.000 N 
ATOM      8  C   UNL     1       2.532   5.129  19.694  0.00  0.00    +0.000 C 
ATOM      9  H   UNL     1       2.819   1.613  21.036  0.00  0.00    +0.000 HD
ATOM     10  H   UNL     1       0.678   4.919  20.732  0.00  0.00    +0.000 HD
ENDROOT
BRANCH   1  18
ATOM     11  C   UNL     1       5.189   3.708  12.694  0.00  0.00    +0.000 C 
ATOM     12  C   UNL     1       6.354   4.068  13.592  0.00  0.00    +0.000 C 
ATOM     13  O   UNL     1       7.474   4.255  13.124  0.00  0.00    +0.000 OA
ATOM     14  N   UNL     1       6.063   4.223  14.933  0.00  0.00    +0.000 N 
ATOM     15  C   UNL     1       7.084   4.691  15.892  0.00  0.00    +0.000 C 
ATOM     16  C   UNL     1       6.481   5.617  16.983  0.00  0.00    +0.000 C 
ATOM     17  N   UNL     1       5.233   5.055  17.552  0.00  0.00    +0.000 N 
ATOM     18  C   UNL     1       5.083   4.982  18.933  0.00  0.00    +0.000 C 
ATOM     19  O   UNL     1       5.982   5.429  19.652  0.00  0.00    +0.000 OA
ATOM     20  C   UNL     1       4.290   4.697  16.499  0.00  0.00    +0.000 C 
ATOM     21  C   UNL     1       4.868   3.682  15.544  0.00  0.00    +0.000 C 
ENDBRANCH   1  18
BRANCH   8  22
ATOM     22  C   UNL     1       2.631   6.627  20.058  0.00  0.00    +0.000 C 
BRANCH  22  23
ATOM     23  C   UNL     1       2.343   7.542  18.845  0.00  0.00    +0.000 C 
BRANCH  23  24
ATOM     24  C   UNL     1       1.564   8.787  19.214  0.00  0.00    +0.000 A 
ATOM     25  C   UNL     1       1.370   9.827  18.291  0.00  0.00    +0.000 A 
ATOM     26  C   UNL     1       0.617  10.953  18.642  0.00  0.00    +0.000 A 
ATOM     27  C   UNL     1       0.054  11.050  19.914  0.00  0.00    +0.000 A 
ATOM     28  C   UNL     1       0.243  10.023  20.835  0.00  0.00    +0.000 A 
ATOM     29  C   UNL     1       0.989   8.898  20.487  0.00  0.00    +0.000 A 
ENDBRANCH  23  24
ENDBRANCH  22  23
ENDBRANCH   8  22
TORSDOF 4
ENDMDL
MODEL 5
REMARK VINA RESULT:      -6.7      2.501      6.527
REMARK  Name = 
REMARK  6 active torsions:
REMARK  status: ('A' for Active; 'I' for Inactive)
REMARK    1  A    between atoms: C_1  and  C_2
REMARK    2  A    between atoms: C_8  and  C_10
REMARK    3  A    between atoms: C_11  and  C_12
REMARK    4  A    between atoms: C_17  and  C_18
REMARK    5  A    between atoms: C_18  and  C_19
REMARK    6  A    between atoms: C_19  and  C_20
REMARK                            x       y       z     vdW  Elec       q    Type
REMARK                         _______ _______ _______ _____ _____    ______ ____
ROOT
ATOM      1  C   UNL     1       2.576   3.594  19.050  0.00  0.00    +0.000 C 
ATOM      2  C   UNL     1       2.681   2.284  19.425  0.00  0.00    +0.000 C 
ATOM      3  C   UNL     1       3.378   1.134  18.746  0.00  0.00    +0.000 C 
ATOM      4  N   UNL     1       2.051   1.878  20.585  0.00  0.00    +0.000 N 
ATOM      5  C   UNL     1       1.447   2.680  21.491  0.00  0.00    +0.000 C 
ATOM      6  O   UNL     1       0.911   2.244  22.497  0.00  0.00    +0.000 OA
ATOM      7  N   UNL     1       1.506   4.005  21.246  0.00  0.00    +0.000 N 
ATOM      8  C   UNL     1       1.778   4.549  19.930  0.00  0.00    +0.000 C 
ATOM      9  H   UNL     1       2.074   0.901  20.854  0.00  0.00    +0.000 HD
ATOM     10  H   UNL     1       0.948   4.542  21.897  0.00  0.00    +0.000 HD
ENDROOT
BRANCH   1  18
ATOM     11  C   UNL     1       8.534   7.397  18.885  0.00  0.00    +0.000 C 
ATOM     12  C   UNL     1       7.664   7.421  17.645  0.00  0.00    +0.000 C 
ATOM     13  O   UNL     1       8.001   8.059  16.653  0.00  0.00    +0.000 OA
ATOM     14  N   UNL     1       6.521   6.646  17.691  0.00  0.00    +0.000 N 
ATOM     15  C   UNL     1       5.653   6.487  16.506  0.00  0.00    +0.000 C 
ATOM     16  C   UNL     1       5.060   5.056  16.403  0.00  0.00    +0.000 C 
ATOM     17  N   UNL     1       4.515   4.594  17.702  0.00  0.00    +0.000 N 
ATOM     18  C   UNL     1       3.234   4.052  17.752  0.00  0.00    +0.000 C 
ATOM     19  O   UNL     1       2.598   3.933  16.701  0.00  0.00    +0.000 OA
ATOM     20  C   UNL     1       5.496   4.747  18.769  0.00  0.00    +0.000 C 
ATOM     21  C   UNL     1       5.937   6.180  18.930  0.00  0.00    +0.000 C 
ENDBRANCH   1  18
BRANCH   8  22
ATOM     22  C   UNL     1       2.391   5.952  20.132  0.00  0.00    +0.000 C 
BRANCH  22  23
ATOM     23  C   UNL     1       1.377   6.950  20.738  0.00  0.00    +0.000 C 
BRANCH  23  24
ATOM     24  C   UNL     1       1.338   8.274  20.005  0.00  0.00    +0.000 A 
ATOM     25  C   UNL     1       1.904   8.418  18.728  0.00  0.00    +0.000 A 
ATOM     26  C   UNL     1       1.827   9.641  18.054  0.00  0.00    +0.000 A 
ATOM     27  C   UNL     1       1.185  10.728  18.647  0.00  0.00    +0.000 A 
ATOM     28  C   UNL     1       0.623  10.594  19.913  0.00  0.00    +0.000 A 
ATOM     29  C   UNL     1       0.695   9.375  20.586  0.00  0.00    +0.000 A 
ENDBRANCH  23  24
ENDBRANCH  22  23
ENDBRANCH   8  22
TORSDOF 4
ENDMDL
MODEL 6
REMARK VINA RESULT:      -6.7      2.291      6.831
REMARK  Name = 
REMARK  6 active torsions:
REMARK  status: ('A' for Active; 'I' for Inactive)
REMARK    1  A    between atoms: C_1  and  C_2
REMARK    2  A    between atoms: C_8  and  C_10
REMARK    3  A    between atoms: C_11  and  C_12
REMARK    4  A    between atoms: C_17  and  C_18
REMARK    5  A    between atoms: C_18  and  C_19
REMARK    6  A    between atoms: C_19  and  C_20
REMARK                            x       y       z     vdW  Elec       q    Type
REMARK                         _______ _______ _______ _____ _____    ______ ____
ROOT
ATOM      1  C   UNL     1       3.789   4.441  19.543  0.00  0.00    +0.000 C 
ATOM      2  C   UNL     1       3.885   3.193  20.091  0.00  0.00    +0.000 C 
ATOM      3  C   UNL     1       5.066   2.264  20.188  0.00  0.00    +0.000 C 
ATOM      4  N   UNL     1       2.751   2.625  20.639  0.00  0.00    +0.000 N 
ATOM      5  C   UNL     1       1.559   3.238  20.827  0.00  0.00    +0.000 C 
ATOM      6  O   UNL     1       0.601   2.666  21.320  0.00  0.00    +0.000 OA
ATOM      7  N   UNL     1       1.497   4.539  20.477  0.00  0.00    +0.000 N 
ATOM      8  C   UNL     1       2.442   5.153  19.565  0.00  0.00    +0.000 C 
ATOM      9  H   UNL     1       2.788   1.681  21.004  0.00  0.00    +0.000 HD
ATOM     10  H   UNL     1       0.558   4.910  20.540  0.00  0.00    +0.000 HD
ENDROOT
BRANCH   1  18
ATOM     11  C   UNL     1       5.343   3.734  12.681  0.00  0.00    +0.000 C 
ATOM     12  C   UNL     1       6.473   4.130  13.609  0.00  0.00    +0.000 C 
ATOM     13  O   UNL     1       7.601   4.340  13.173  0.00  0.00    +0.000 OA
ATOM     14  N   UNL     1       6.138   4.292  14.939  0.00  0.00    +0.000 N 
ATOM     15  C   UNL     1       7.119   4.794  15.923  0.00  0.00    +0.000 C 
ATOM     16  C   UNL     1       6.462   5.717  16.985  0.00  0.00    +0.000 C 
ATOM     17  N   UNL     1       5.212   5.131  17.523  0.00  0.00    +0.000 N 
ATOM     18  C   UNL     1       5.022   5.069  18.901  0.00  0.00    +0.000 C 
ATOM     19  O   UNL     1       5.889   5.544  19.641  0.00  0.00    +0.000 OA
ATOM     20  C   UNL     1       4.309   4.739  16.448  0.00  0.00    +0.000 C 
ATOM     21  C   UNL     1       4.938   3.729  15.521  0.00  0.00    +0.000 C 
ENDBRANCH   1  18
BRANCH   8  22
ATOM     22  C   UNL     1       2.481   6.662  19.895  0.00  0.00    +0.000 C 
BRANCH  22  23
ATOM     23  C   UNL     1       1.541   7.028  21.066  0.00  0.00    +0.000 C 
BRANCH  23  24
ATOM     24  C   UNL     1       1.008   8.443  20.978  0.00  0.00    +0.000 A 
ATOM     25  C   UNL     1       0.430   9.076  22.089  0.00  0.00    +0.000 A 
ATOM     26  C   UNL     1      -0.025  10.395  21.994  0.00  0.00    +0.000 A 
ATOM     27  C   UNL     1       0.094  11.092  20.792  0.00  0.00    +0.000 A 
ATOM     28  C   UNL     1       0.665  10.471  19.685  0.00  0.00    +0.000 A 
ATOM     29  C   UNL     1       1.122   9.157  19.778  0.00  0.00    +0.000 A 
ENDBRANCH  23  24
ENDBRANCH  22  23
ENDBRANCH   8  22
TORSDOF 4
ENDMDL
MODEL 7
REMARK VINA RESULT:      -6.7      2.312      6.608
REMARK  Name = 
REMARK  6 active torsions:
REMARK  status: ('A' for Active; 'I' for Inactive)
REMARK    1  A    between atoms: C_1  and  C_2
REMARK    2  A    between atoms: C_8  and  C_10
REMARK    3  A    between atoms: C_11  and  C_12
REMARK    4  A    between atoms: C_17  and  C_18
REMARK    5  A    between atoms: C_18  and  C_19
REMARK    6  A    between atoms: C_19  and  C_20
REMARK                            x       y       z     vdW  Elec       q    Type
REMARK                         _______ _______ _______ _____ _____    ______ ____
ROOT
ATOM      1  C   UNL     1       3.626   4.131  18.477  0.00  0.00    +0.000 C 
ATOM      2  C   UNL     1       3.601   2.915  19.100  0.00  0.00    +0.000 C 
ATOM      3  C   UNL     1       4.725   2.105  19.692  0.00  0.00    +0.000 C 
ATOM      4  N   UNL     1       2.391   2.259  19.218  0.00  0.00    +0.000 N 
ATOM      5  C   UNL     1       1.175   2.762  18.906  0.00  0.00    +0.000 C 
ATOM      6  O   UNL     1       0.147   2.118  19.038  0.00  0.00    +0.000 OA
ATOM      7  N   UNL     1       1.151   4.040  18.476  0.00  0.00    +0.000 N 
ATOM      8  C   UNL     1       2.322   4.713  17.947  0.00  0.00    +0.000 C 
ATOM      9  H   UNL     1       2.358   1.334  19.630  0.00  0.00    +0.000 HD
ATOM     10  H   UNL     1       0.233   4.322  18.158  0.00  0.00    +0.000 HD
ENDROOT
BRANCH   1  18
ATOM     11  C   UNL     1       6.877   4.791  12.233  0.00  0.00    +0.000 C 
ATOM     12  C   UNL     1       7.724   4.972  13.476  0.00  0.00    +0.000 C 
ATOM     13  O   UNL     1       8.917   5.244  13.390  0.00  0.00    +0.000 OA
ATOM     14  N   UNL     1       7.060   4.869  14.683  0.00  0.00    +0.000 N 
ATOM     15  C   UNL     1       7.745   5.145  15.962  0.00  0.00    +0.000 C 
ATOM     16  C   UNL     1       6.812   5.847  16.986  0.00  0.00    +0.000 C 
ATOM     17  N   UNL     1       5.487   5.187  17.062  0.00  0.00    +0.000 N 
ATOM     18  C   UNL     1       4.960   4.852  18.306  0.00  0.00    +0.000 C 
ATOM     19  O   UNL     1       5.596   5.153  19.321  0.00  0.00    +0.000 OA
ATOM     20  C   UNL     1       4.897   5.036  15.738  0.00  0.00    +0.000 C 
ATOM     21  C   UNL     1       5.772   4.222  14.819  0.00  0.00    +0.000 C 
ENDBRANCH   1  18
BRANCH   8  22
ATOM     22  C   UNL     1       2.119   6.228  18.170  0.00  0.00    +0.000 C 
BRANCH  22  23
ATOM     23  C   UNL     1       2.292   6.628  19.654  0.00  0.00    +0.000 C 
BRANCH  23  24
ATOM     24  C   UNL     1       1.689   7.978  19.977  0.00  0.00    +0.000 A 
ATOM     25  C   UNL     1       1.504   8.952  18.983  0.00  0.00    +0.000 A 
ATOM     26  C   UNL     1       0.912  10.180  19.298  0.00  0.00    +0.000 A 
ATOM     27  C   UNL     1       0.501  10.445  20.604  0.00  0.00    +0.000 A 
ATOM     28  C   UNL     1       0.681   9.484  21.595  0.00  0.00    +0.000 A 
ATOM     29  C   UNL     1       1.267   8.258  21.284  0.00  0.00    +0.000 A 
ENDBRANCH  23  24
ENDBRANCH  22  23
ENDBRANCH   8  22
TORSDOF 4
ENDMDL
MODEL 8
REMARK VINA RESULT:      -6.6      2.165      5.190
REMARK  Name = 
REMARK  6 active torsions:
REMARK  status: ('A' for Active; 'I' for Inactive)
REMARK    1  A    between atoms: C_1  and  C_2
REMARK    2  A    between atoms: C_8  and  C_10
REMARK    3  A    between atoms: C_11  and  C_12
REMARK    4  A    between atoms: C_17  and  C_18
REMARK    5  A    between atoms: C_18  and  C_19
REMARK    6  A    between atoms: C_19  and  C_20
REMARK                            x       y       z     vdW  Elec       q    Type
REMARK                         _______ _______ _______ _____ _____    ______ ____
ROOT
ATOM      1  C   UNL     1       3.483   5.241  18.868  0.00  0.00    +0.000 C 
ATOM      2  C   UNL     1       2.661   4.392  19.556  0.00  0.00    +0.000 C 
ATOM      3  C   UNL     1       1.199   4.516  19.891  0.00  0.00    +0.000 C 
ATOM      4  N   UNL     1       3.200   3.230  20.074  0.00  0.00    +0.000 N 
ATOM      5  C   UNL     1       4.446   2.755  19.849  0.00  0.00    +0.000 C 
ATOM      6  O   UNL     1       4.850   1.716  20.345  0.00  0.00    +0.000 OA
ATOM      7  N   UNL     1       5.214   3.475  19.005  0.00  0.00    +0.000 N 
ATOM      8  C   UNL     1       4.950   4.866  18.696  0.00  0.00    +0.000 C 
ATOM      9  H   UNL     1       2.622   2.612  20.631  0.00  0.00    +0.000 HD
ATOM     10  H   UNL     1       6.165   3.131  18.962  0.00  0.00    +0.000 HD
ENDROOT
BRANCH   1  18
ATOM     11  C   UNL     1      -0.028   9.892  22.872  0.00  0.00    +0.000 C 
ATOM     12  C   UNL     1      -0.232   9.976  21.373  0.00  0.00    +0.000 C 
ATOM     13  O   UNL     1      -0.961  10.835  20.885  0.00  0.00    +0.000 OA
ATOM     14  N   UNL     1       0.487   9.078  20.611  0.00  0.00    +0.000 N 
ATOM     15  C   UNL     1       0.471   9.135  19.135  0.00  0.00    +0.000 C 
ATOM     16  C   UNL     1       1.852   8.781  18.520  0.00  0.00    +0.000 C 
ATOM     17  N   UNL     1       2.430   7.564  19.137  0.00  0.00    +0.000 N 
ATOM     18  C   UNL     1       2.913   6.546  18.320  0.00  0.00    +0.000 C 
ATOM     19  O   UNL     1       2.883   6.702  17.096  0.00  0.00    +0.000 OA
ATOM     20  C   UNL     1       2.445   7.668  20.591  0.00  0.00    +0.000 C 
ATOM     21  C   UNL     1       1.062   7.867  21.157  0.00  0.00    +0.000 C 
ENDBRANCH   1  18
BRANCH   8  22
ATOM     22  C   UNL     1       5.560   5.150  17.305  0.00  0.00    +0.000 C 
BRANCH  22  23
ATOM     23  C   UNL     1       5.073   4.142  16.238  0.00  0.00    +0.000 C 
BRANCH  23  24
ATOM     24  C   UNL     1       5.814   4.268  14.923  0.00  0.00    +0.000 A 
ATOM     25  C   UNL     1       6.985   5.035  14.816  0.00  0.00    +0.000 A 
ATOM     26  C   UNL     1       7.673   5.109  13.600  0.00  0.00    +0.000 A 
ATOM     27  C   UNL     1       7.199   4.420  12.485  0.00  0.00    +0.000 A 
ATOM     28  C   UNL     1       6.038   3.657  12.582  0.00  0.00    +0.000 A 
ATOM     29  C   UNL     1       5.353   3.579  13.794  0.00  0.00    +0.000 A 
ENDBRANCH  23  24
ENDBRANCH  22  23
ENDBRANCH   8  22
TORSDOF 4
ENDMDL
MODEL 9
REMARK VINA RESULT:      -6.5      2.076      5.581
REMARK  Name = 
REMARK  6 active torsions:
REMARK  status: ('A' for Active; 'I' for Inactive)
REMARK    1  A    between atoms: C_1  and  C_2
REMARK    2  A    between atoms: C_8  and  C_10
REMARK    3  A    between atoms: C_11  and  C_12
REMARK    4  A    between atoms: C_17  and  C_18
REMARK    5  A    between atoms: C_18  and  C_19
REMARK    6  A    between atoms: C_19  and  C_20
REMARK                            x       y       z     vdW  Elec       q    Type
REMARK                         _______ _______ _______ _____ _____    ______ ____
ROOT
ATOM      1  C   UNL     1       5.571   5.435  17.454  0.00  0.00    +0.000 C 
ATOM      2  C   UNL     1       5.151   4.621  16.439  0.00  0.00    +0.000 C 
ATOM      3  C   UNL     1       3.908   3.780  16.322  0.00  0.00    +0.000 C 
ATOM      4  N   UNL     1       5.959   4.485  15.327  0.00  0.00    +0.000 N 
ATOM      5  C   UNL     1       7.078   5.195  15.059  0.00  0.00    +0.000 C 
ATOM      6  O   UNL     1       7.741   5.016  14.050  0.00  0.00    +0.000 OA
ATOM      7  N   UNL     1       7.405   6.151  15.952  0.00  0.00    +0.000 N 
ATOM      8  C   UNL     1       6.903   6.161  17.312  0.00  0.00    +0.000 C 
ATOM      9  H   UNL     1       5.692   3.847  14.586  0.00  0.00    +0.000 HD
ATOM     10  H   UNL     1       8.304   6.572  15.754  0.00  0.00    +0.000 HD
ENDROOT
BRANCH   1  18
ATOM     11  C   UNL     1       0.115   9.910  17.915  0.00  0.00    +0.000 C 
ATOM     12  C   UNL     1       0.710   9.408  19.215  0.00  0.00    +0.000 C 
ATOM     13  O   UNL     1       0.241   9.753  20.295  0.00  0.00    +0.000 OA
ATOM     14  N   UNL     1       1.754   8.511  19.099  0.00  0.00    +0.000 N 
ATOM     15  C   UNL     1       2.340   7.855  20.285  0.00  0.00    +0.000 C 
ATOM     16  C   UNL     1       2.753   6.387  19.998  0.00  0.00    +0.000 C 
ATOM     17  N   UNL     1       3.505   6.268  18.727  0.00  0.00    +0.000 N 
ATOM     18  C   UNL     1       4.709   5.569  18.706  0.00  0.00    +0.000 C 
ATOM     19  O   UNL     1       5.100   5.029  19.745  0.00  0.00    +0.000 OA
ATOM     20  C   UNL     1       2.785   6.900  17.628  0.00  0.00    +0.000 C 
ATOM     21  C   UNL     1       2.532   8.364  17.887  0.00  0.00    +0.000 C 
ENDBRANCH   1  18
BRANCH   8  22
ATOM     22  C   UNL     1       6.929   7.626  17.800  0.00  0.00    +0.000 C 
BRANCH  22  23
ATOM     23  C   UNL     1       8.262   7.985  18.498  0.00  0.00    +0.000 C 
BRANCH  23  24
ATOM     24  C   UNL     1       8.568   9.468  18.463  0.00  0.00    +0.000 A 
ATOM     25  C   UNL     1       7.954  10.318  17.529  0.00  0.00    +0.000 A 
ATOM     26  C   UNL     1       8.225  11.690  17.537  0.00  0.00    +0.000 A 
ATOM     27  C   UNL     1       9.108  12.224  18.475  0.00  0.00    +0.000 A 
ATOM     28  C   UNL     1       9.721  11.388  19.404  0.00  0.00    +0.000 A 
ATOM     29  C   UNL     1       9.451  10.020  19.400  0.00  0.00    +0.000 A 
ENDBRANCH  23  24
ENDBRANCH  22  23
ENDBRANCH   8  22
TORSDOF 4
ENDMDL
