MODEL 1
REMARK VINA RESULT:      -8.6      0.000      0.000
REMARK  Name = 
REMARK  5 active torsions:
REMARK  status: ('A' for Active; 'I' for Inactive)
REMARK    1  A    between atoms: N_2  and  C_4
REMARK    2  A    between atoms: C_7  and  C_8
REMARK    3  A    between atoms: C_8  and  N_9
REMARK    4  A    between atoms: C_10  and  C_11
REMARK    5  A    between atoms: C_11  and  N_12
REMARK                            x       y       z     vdW  Elec       q    Type
REMARK                         _______ _______ _______ _____ _____    ______ ____
ROOT
ATOM      1  N   UNL     1       4.103   5.760  18.340  0.00  0.00    +0.000 N 
ATOM      2  C   UNL     1       4.417   4.766  19.294  0.00  0.00    +0.000 A 
ATOM      3  N   UNL     1       5.673   5.055  19.613  0.00  0.00    +0.000 NA
ATOM      4  C   UNL     1       6.188   5.230  18.354  0.00  0.00    +0.000 A 
ATOM      5  C   UNL     1       7.479   4.918  17.917  0.00  0.00    +0.000 A 
ATOM      6  C   UNL     1       7.598   4.477  16.601  0.00  0.00    +0.000 A 
ATOM      7  C   UNL     1       6.488   4.472  15.743  0.00  0.00    +0.000 A 
ATOM      8  C   UNL     1       5.243   5.035  16.110  0.00  0.00    +0.000 A 
ATOM      9  C   UNL     1       5.130   5.453  17.444  0.00  0.00    +0.000 A 
ENDROOT
BRANCH   1  10
ATOM     10  C   UNL     1       2.696   6.151  18.221  0.00  0.00    +0.000 C 
BRANCH  10  14
ATOM     11  C   UNL     1       1.029   9.722  20.030  0.00  0.00    +0.000 A 
ATOM     12  C   UNL     1       1.316   9.721  18.660  0.00  0.00    +0.000 A 
ATOM     13  C   UNL     1       1.904   8.600  18.057  0.00  0.00    +0.000 A 
ATOM     14  C   UNL     1       2.200   7.459  18.808  0.00  0.00    +0.000 A 
ATOM     15  C   UNL     1       1.883   7.484  20.192  0.00  0.00    +0.000 A 
ATOM     16  C   UNL     1       1.303   8.596  20.806  0.00  0.00    +0.000 A 
BRANCH  11  18
ATOM     17  O   UNL     1       0.503  11.000  21.910  0.00  0.00    +0.000 OA
ATOM     18  N   UNL     1       0.404  10.906  20.672  0.00  0.00    +0.000 N 
ATOM     19  O   UNL     1      -0.166  11.721  19.938  0.00  0.00    +0.000 OA
ENDBRANCH  11  18
ENDBRANCH  10  14
ENDBRANCH   1  10
BRANCH   2  20
ATOM     20  C   UNL     1       3.856   3.366  18.957  0.00  0.00    +0.000 C 
BRANCH  20  21
ATOM     21  N   UNL     1       3.080   2.687  19.989  0.00  0.00    +0.000 NA
ATOM     22  C   UNL     1       1.954   1.975  19.350  0.00  0.00    +0.000 C 
ATOM     23  C   UNL     1       0.852   3.012  19.246  0.00  0.00    +0.000 C 
ATOM     24  C   UNL     1       1.019   3.811  20.524  0.00  0.00    +0.000 C 
ATOM     25  C   UNL     1       2.475   3.627  20.933  0.00  0.00    +0.000 C 
ENDBRANCH  20  21
ENDBRANCH   2  20
TORSDOF 5
ENDMDL
MODEL 2
REMARK VINA RESULT:      -8.5      0.977      1.103
REMARK  Name = 
REMARK  5 active torsions:
REMARK  status: ('A' for Active; 'I' for Inactive)
REMARK    1  A    between atoms: N_2  and  C_4
REMARK    2  A    between atoms: C_7  and  C_8
REMARK    3  A    between atoms: C_8  and  N_9
REMARK    4  A    between atoms: C_10  and  C_11
REMARK    5  A    between atoms: C_11  and  N_12
REMARK                            x       y       z     vdW  Elec       q    Type
REMARK                         _______ _______ _______ _____ _____    ______ ____
ROOT
ATOM      1  N   UNL     1       4.102   5.599  18.854  0.00  0.00    +0.000 N 
ATOM      2  C   UNL     1       4.512   4.339  19.344  0.00  0.00    +0.000 A 
ATOM      3  N   UNL     1       5.825   4.490  19.473  0.00  0.00    +0.000 NA
ATOM      4  C   UNL     1       6.102   5.071  18.262  0.00  0.00    +0.000 A 
ATOM      5  C   UNL     1       7.256   4.909  17.490  0.00  0.00    +0.000 A 
ATOM      6  C   UNL     1       7.086   4.935  16.107  0.00  0.00    +0.000 A 
ATOM      7  C   UNL     1       5.836   5.230  15.545  0.00  0.00    +0.000 A 
ATOM      8  C   UNL     1       4.733   5.651  16.325  0.00  0.00    +0.000 A 
ATOM      9  C   UNL     1       4.910   5.598  17.714  0.00  0.00    +0.000 A 
ENDROOT
BRANCH   1  10
ATOM     10  C   UNL     1       2.734   6.023  19.163  0.00  0.00    +0.000 C 
BRANCH  10  14
ATOM     11  C   UNL     1       1.265  10.095  18.917  0.00  0.00    +0.000 A 
ATOM     12  C   UNL     1       1.914   9.536  17.810  0.00  0.00    +0.000 A 
ATOM     13  C   UNL     1       2.447   8.240  17.878  0.00  0.00    +0.000 A 
ATOM     14  C   UNL     1       2.325   7.479  19.044  0.00  0.00    +0.000 A 
ATOM     15  C   UNL     1       1.647   8.066  20.144  0.00  0.00    +0.000 A 
ATOM     16  C   UNL     1       1.117   9.359  20.092  0.00  0.00    +0.000 A 
BRANCH  11  18
ATOM     17  O   UNL     1      -0.535  11.577  18.989  0.00  0.00    +0.000 OA
ATOM     18  N   UNL     1       0.697  11.465  18.849  0.00  0.00    +0.000 N 
ATOM     19  O   UNL     1       1.483  12.402  18.666  0.00  0.00    +0.000 OA
ENDBRANCH  11  18
ENDBRANCH  10  14
ENDBRANCH   1  10
BRANCH   2  20
ATOM     20  C   UNL     1       3.787   3.140  18.693  0.00  0.00    +0.000 C 
BRANCH  20  21
ATOM     21  N   UNL     1       3.140   2.182  19.583  0.00  0.00    +0.000 NA
ATOM     22  C   UNL     1       1.785   1.893  19.070  0.00  0.00    +0.000 C 
ATOM     23  C   UNL     1       0.910   2.985  19.657  0.00  0.00    +0.000 C 
ATOM     24  C   UNL     1       1.505   3.190  21.036  0.00  0.00    +0.000 C 
ATOM     25  C   UNL     1       2.951   2.722  20.930  0.00  0.00    +0.000 C 
ENDBRANCH  20  21
ENDBRANCH   2  20
TORSDOF 5
ENDMDL
MODEL 3
REMARK VINA RESULT:      -8.4      0.253      1.174
REMARK  Name = 
REMARK  5 active torsions:
REMARK  status: ('A' for Active; 'I' for Inactive)
REMARK    1  A    between atoms: N_2  and  C_4
REMARK    2  A    between atoms: C_7  and  C_8
REMARK    3  A    between atoms: C_8  and  N_9
REMARK    4  A    between atoms: C_10  and  C_11
REMARK    5  A    between atoms: C_11  and  N_12
REMARK                            x       y       z     vdW  Elec       q    Type
REMARK                         _______ _______ _______ _____ _____    ______ ____
ROOT
ATOM      1  N   UNL     1       4.052   5.853  18.229  0.00  0.00    +0.000 N 
ATOM      2  C   UNL     1       4.364   4.950  19.270  0.00  0.00    +0.000 A 
ATOM      3  N   UNL     1       5.605   5.295  19.593  0.00  0.00    +0.000 NA
ATOM      4  C   UNL     1       6.147   5.376  18.335  0.00  0.00    +0.000 A 
ATOM      5  C   UNL     1       7.454   5.060  17.955  0.00  0.00    +0.000 A 
ATOM      6  C   UNL     1       7.616   4.513  16.684  0.00  0.00    +0.000 A 
ATOM      7  C   UNL     1       6.528   4.410  15.805  0.00  0.00    +0.000 A 
ATOM      8  C   UNL     1       5.262   4.971  16.095  0.00  0.00    +0.000 A 
ATOM      9  C   UNL     1       5.106   5.496  17.386  0.00  0.00    +0.000 A 
ENDROOT
BRANCH   1  10
ATOM     10  C   UNL     1       2.639   6.198  18.046  0.00  0.00    +0.000 C 
BRANCH  10  14
ATOM     11  C   UNL     1       1.176   9.858  19.855  0.00  0.00    +0.000 A 
ATOM     12  C   UNL     1       1.402   8.739  20.665  0.00  0.00    +0.000 A 
ATOM     13  C   UNL     1       1.824   7.526  20.101  0.00  0.00    +0.000 A 
ATOM     14  C   UNL     1       2.042   7.417  18.726  0.00  0.00    +0.000 A 
ATOM     15  C   UNL     1       1.821   8.573  17.931  0.00  0.00    +0.000 A 
ATOM     16  C   UNL     1       1.394   9.785  18.480  0.00  0.00    +0.000 A 
BRANCH  11  18
ATOM     17  O   UNL     1       0.429  12.059  19.658  0.00  0.00    +0.000 OA
ATOM     18  N   UNL     1       0.732  11.145  20.447  0.00  0.00    +0.000 N 
ATOM     19  O   UNL     1       0.684  11.221  21.680  0.00  0.00    +0.000 OA
ENDBRANCH  11  18
ENDBRANCH  10  14
ENDBRANCH   1  10
BRANCH   2  20
ATOM     20  C   UNL     1       3.842   3.514  19.040  0.00  0.00    +0.000 C 
BRANCH  20  21
ATOM     21  N   UNL     1       3.068   2.900  20.113  0.00  0.00    +0.000 NA
ATOM     22  C   UNL     1       2.008   2.060  19.519  0.00  0.00    +0.000 C 
ATOM     23  C   UNL     1       0.855   3.014  19.272  0.00  0.00    +0.000 C 
ATOM     24  C   UNL     1       0.929   3.949  20.463  0.00  0.00    +0.000 C 
ATOM     25  C   UNL     1       2.377   3.895  20.934  0.00  0.00    +0.000 C 
ENDBRANCH  20  21
ENDBRANCH   2  20
TORSDOF 5
ENDMDL
MODEL 4
REMARK VINA RESULT:      -8.3      1.297      4.185
REMARK  Name = 
REMARK  5 active torsions:
REMARK  status: ('A' for Active; 'I' for Inactive)
REMARK    1  A    between atoms: N_2  and  C_4
REMARK    2  A    between atoms: C_7  and  C_8
REMARK    3  A    between atoms: C_8  and  N_9
REMARK    4  A    between atoms: C_10  and  C_11
REMARK    5  A    between atoms: C_11  and  N_12
REMARK                            x       y       z     vdW  Elec       q    Type
REMARK                         _______ _______ _______ _____ _____    ______ ____
ROOT
ATOM      1  N   UNL     1       2.943   5.697  17.971  0.00  0.00    +0.000 N 
ATOM      2  C   UNL     1       3.991   4.780  17.734  0.00  0.00    +0.000 A 
ATOM      3  N   UNL     1       3.362   3.760  17.164  0.00  0.00    +0.000 NA
ATOM      4  C   UNL     1       2.300   3.645  18.024  0.00  0.00    +0.000 A 
ATOM      5  C   UNL     1       1.644   2.472  18.409  0.00  0.00    +0.000 A 
ATOM      6  C   UNL     1       1.161   2.431  19.714  0.00  0.00    +0.000 A 
ATOM      7  C   UNL     1       1.230   3.563  20.540  0.00  0.00    +0.000 A 
ATOM      8  C   UNL     1       1.654   4.825  20.063  0.00  0.00    +0.000 A 
ATOM      9  C   UNL     1       2.160   4.847  18.756  0.00  0.00    +0.000 A 
ENDROOT
BRANCH   1  10
ATOM     10  C   UNL     1       3.295   7.120  18.006  0.00  0.00    +0.000 C 
BRANCH  10  14
ATOM     11  C   UNL     1       0.300   9.831  19.582  0.00  0.00    +0.000 A 
ATOM     12  C   UNL     1       0.587   9.852  18.212  0.00  0.00    +0.000 A 
ATOM     13  C   UNL     1       1.587   9.025  17.682  0.00  0.00    +0.000 A 
ATOM     14  C   UNL     1       2.305   8.154  18.506  0.00  0.00    +0.000 A 
ATOM     15  C   UNL     1       1.981   8.143  19.889  0.00  0.00    +0.000 A 
ATOM     16  C   UNL     1       0.991   8.966  20.431  0.00  0.00    +0.000 A 
BRANCH  11  18
ATOM     17  O   UNL     1      -0.700  10.953  21.366  0.00  0.00    +0.000 OA
ATOM     18  N   UNL     1      -0.760  10.703  20.147  0.00  0.00    +0.000 N 
ATOM     19  O   UNL     1      -1.625  11.128  19.373  0.00  0.00    +0.000 OA
ENDBRANCH  11  18
ENDBRANCH  10  14
ENDBRANCH   1  10
BRANCH   2  20
ATOM     20  C   UNL     1       5.028   4.695  18.877  0.00  0.00    +0.000 C 
BRANCH  20  21
ATOM     21  N   UNL     1       6.421   4.472  18.505  0.00  0.00    +0.000 NA
ATOM     22  C   UNL     1       7.252   5.539  19.101  0.00  0.00    +0.000 C 
ATOM     23  C   UNL     1       7.197   6.675  18.098  0.00  0.00    +0.000 C 
ATOM     24  C   UNL     1       7.189   5.951  16.766  0.00  0.00    +0.000 C 
ATOM     25  C   UNL     1       6.628   4.565  17.059  0.00  0.00    +0.000 C 
ENDBRANCH  20  21
ENDBRANCH   2  20
TORSDOF 5
ENDMDL
MODEL 5
REMARK VINA RESULT:      -8.2      1.244      4.272
REMARK  Name = 
REMARK  5 active torsions:
REMARK  status: ('A' for Active; 'I' for Inactive)
REMARK    1  A    between atoms: N_2  and  C_4
REMARK    2  A    between atoms: C_7  and  C_8
REMARK    3  A    between atoms: C_8  and  N_9
REMARK    4  A    between atoms: C_10  and  C_11
REMARK    5  A    between atoms: C_11  and  N_12
REMARK                            x       y       z     vdW  Elec       q    Type
REMARK                         _______ _______ _______ _____ _____    ______ ____
ROOT
ATOM      1  N   UNL     1       2.958   5.586  18.090  0.00  0.00    +0.000 N 
ATOM      2  C   UNL     1       4.048   4.734  17.806  0.00  0.00    +0.000 A 
ATOM      3  N   UNL     1       3.463   3.700  17.214  0.00  0.00    +0.000 NA
ATOM      4  C   UNL     1       2.423   3.503  18.086  0.00  0.00    +0.000 A 
ATOM      5  C   UNL     1       1.836   2.285  18.443  0.00  0.00    +0.000 A 
ATOM      6  C   UNL     1       1.378   2.178  19.754  0.00  0.00    +0.000 A 
ATOM      7  C   UNL     1       1.402   3.286  20.614  0.00  0.00    +0.000 A 
ATOM      8  C   UNL     1       1.752   4.583  20.172  0.00  0.00    +0.000 A 
ATOM      9  C   UNL     1       2.234   4.672  18.858  0.00  0.00    +0.000 A 
ENDROOT
BRANCH   1  10
ATOM     10  C   UNL     1       3.237   7.024  18.164  0.00  0.00    +0.000 C 
BRANCH  10  14
ATOM     11  C   UNL     1       0.452  10.028  19.588  0.00  0.00    +0.000 A 
ATOM     12  C   UNL     1       0.970   9.094  20.492  0.00  0.00    +0.000 A 
ATOM     13  C   UNL     1       1.831   8.078  20.052  0.00  0.00    +0.000 A 
ATOM     14  C   UNL     1       2.200   7.989  18.707  0.00  0.00    +0.000 A 
ATOM     15  C   UNL     1       1.672   8.961  17.816  0.00  0.00    +0.000 A 
ATOM     16  C   UNL     1       0.809   9.974  18.240  0.00  0.00    +0.000 A 
BRANCH  11  18
ATOM     17  O   UNL     1      -0.891  11.024  21.214  0.00  0.00    +0.000 OA
ATOM     18  N   UNL     1      -0.457  11.107  20.050  0.00  0.00    +0.000 N 
ATOM     19  O   UNL     1      -0.717  12.016  19.254  0.00  0.00    +0.000 OA
ENDBRANCH  11  18
ENDBRANCH  10  14
ENDBRANCH   1  10
BRANCH   2  20
ATOM     20  C   UNL     1       5.108   4.667  18.929  0.00  0.00    +0.000 C 
BRANCH  20  21
ATOM     21  N   UNL     1       6.497   4.467  18.531  0.00  0.00    +0.000 NA
ATOM     22  C   UNL     1       7.328   5.523  19.146  0.00  0.00    +0.000 C 
ATOM     23  C   UNL     1       7.248   6.688  18.178  0.00  0.00    +0.000 C 
ATOM     24  C   UNL     1       7.227   6.002  16.826  0.00  0.00    +0.000 C 
ATOM     25  C   UNL     1       6.681   4.604  17.086  0.00  0.00    +0.000 C 
ENDBRANCH  20  21
ENDBRANCH   2  20
TORSDOF 5
ENDMDL
MODEL 6
REMARK VINA RESULT:      -8.2      1.321      4.263
REMARK  Name = 
REMARK  5 active torsions:
REMARK  status: ('A' for Active; 'I' for Inactive)
REMARK    1  A    between atoms: N_2  and  C_4
REMARK    2  A    between atoms: C_7  and  C_8
REMARK    3  A    between atoms: C_8  and  N_9
REMARK    4  A    between atoms: C_10  and  C_11
REMARK    5  A    between atoms: C_11  and  N_12
REMARK                            x       y       z     vdW  Elec       q    Type
REMARK                         _______ _______ _______ _____ _____    ______ ____
ROOT
ATOM      1  N   UNL     1       2.390   5.519  18.365  0.00  0.00    +0.000 N 
ATOM      2  C   UNL     1       3.010   4.480  17.635  0.00  0.00    +0.000 A 
ATOM      3  N   UNL     1       2.031   3.593  17.501  0.00  0.00    +0.000 NA
ATOM      4  C   UNL     1       1.567   3.578  18.792  0.00  0.00    +0.000 A 
ATOM      5  C   UNL     1       1.038   2.487  19.488  0.00  0.00    +0.000 A 
ATOM      6  C   UNL     1       1.303   2.435  20.854  0.00  0.00    +0.000 A 
ATOM      7  C   UNL     1       1.961   3.495  21.497  0.00  0.00    +0.000 A 
ATOM      8  C   UNL     1       2.261   4.711  20.841  0.00  0.00    +0.000 A 
ATOM      9  C   UNL     1       2.011   4.741  19.461  0.00  0.00    +0.000 A 
ENDROOT
BRANCH   1  10
ATOM     10  C   UNL     1       2.919   6.873  18.179  0.00  0.00    +0.000 C 
BRANCH  10  14
ATOM     11  C   UNL     1       0.475  10.128  19.674  0.00  0.00    +0.000 A 
ATOM     12  C   UNL     1       0.786  10.079  18.310  0.00  0.00    +0.000 A 
ATOM     13  C   UNL     1       1.618   9.068  17.807  0.00  0.00    +0.000 A 
ATOM     14  C   UNL     1       2.138   8.085  18.652  0.00  0.00    +0.000 A 
ATOM     15  C   UNL     1       1.791   8.150  20.027  0.00  0.00    +0.000 A 
ATOM     16  C   UNL     1       0.969   9.155  20.543  0.00  0.00    +0.000 A 
BRANCH  11  18
ATOM     17  O   UNL     1      -0.026  11.780  21.243  0.00  0.00    +0.000 OA
ATOM     18  N   UNL     1      -0.407  11.194  20.212  0.00  0.00    +0.000 N 
ATOM     19  O   UNL     1      -1.454  11.434  19.600  0.00  0.00    +0.000 OA
ENDBRANCH  11  18
ENDBRANCH  10  14
ENDBRANCH   1  10
BRANCH   2  20
ATOM     20  C   UNL     1       4.463   4.182  18.070  0.00  0.00    +0.000 C 
BRANCH  20  21
ATOM     21  N   UNL     1       5.468   4.063  17.018  0.00  0.00    +0.000 NA
ATOM     22  C   UNL     1       6.646   4.875  17.389  0.00  0.00    +0.000 C 
ATOM     23  C   UNL     1       6.325   6.270  16.886  0.00  0.00    +0.000 C 
ATOM     24  C   UNL     1       5.583   6.000  15.592  0.00  0.00    +0.000 C 
ATOM     25  C   UNL     1       4.996   4.602  15.742  0.00  0.00    +0.000 C 
ENDBRANCH  20  21
ENDBRANCH   2  20
TORSDOF 5
ENDMDL
MODEL 7
REMARK VINA RESULT:      -8.1      0.639      1.171
REMARK  Name = 
REMARK  5 active torsions:
REMARK  status: ('A' for Active; 'I' for Inactive)
REMARK    1  A    between atoms: N_2  and  C_4
REMARK    2  A    between atoms: C_7  and  C_8
REMARK    3  A    between atoms: C_8  and  N_9
REMARK    4  A    between atoms: C_10  and  C_11
REMARK    5  A    between atoms: C_11  and  N_12
REMARK                            x       y       z     vdW  Elec       q    Type
REMARK                         _______ _______ _______ _____ _____    ______ ____
ROOT
ATOM      1  N   UNL     1       4.095   6.314  18.156  0.00  0.00    +0.000 N 
ATOM      2  C   UNL     1       4.163   5.261  19.096  0.00  0.00    +0.000 A 
ATOM      3  N   UNL     1       5.399   5.373  19.570  0.00  0.00    +0.000 NA
ATOM      4  C   UNL     1       6.079   5.514  18.387  0.00  0.00    +0.000 A 
ATOM      5  C   UNL     1       7.362   5.047  18.088  0.00  0.00    +0.000 A 
ATOM      6  C   UNL     1       7.581   4.631  16.777  0.00  0.00    +0.000 A 
ATOM      7  C   UNL     1       6.590   4.797  15.798  0.00  0.00    +0.000 A 
ATOM      8  C   UNL     1       5.392   5.507  16.043  0.00  0.00    +0.000 A 
ATOM      9  C   UNL     1       5.174   5.899  17.371  0.00  0.00    +0.000 A 
ENDROOT
BRANCH   1  10
ATOM     10  C   UNL     1       2.773   6.889  17.893  0.00  0.00    +0.000 C 
BRANCH  10  14
ATOM     11  C   UNL     1       0.924   9.464  20.852  0.00  0.00    +0.000 A 
ATOM     12  C   UNL     1       1.370   8.194  21.236  0.00  0.00    +0.000 A 
ATOM     13  C   UNL     1       1.923   7.319  20.290  0.00  0.00    +0.000 A 
ATOM     14  C   UNL     1       2.055   7.703  18.953  0.00  0.00    +0.000 A 
ATOM     15  C   UNL     1       1.610   9.004  18.597  0.00  0.00    +0.000 A 
ATOM     16  C   UNL     1       1.051   9.883  19.528  0.00  0.00    +0.000 A 
BRANCH  11  18
ATOM     17  O   UNL     1       0.440  10.078  23.050  0.00  0.00    +0.000 OA
ATOM     18  N   UNL     1       0.340  10.395  21.850  0.00  0.00    +0.000 N 
ATOM     19  O   UNL     1      -0.199  11.424  21.426  0.00  0.00    +0.000 OA
ENDBRANCH  11  18
ENDBRANCH  10  14
ENDBRANCH   1  10
BRANCH   2  20
ATOM     20  C   UNL     1       3.473   3.957  18.636  0.00  0.00    +0.000 C 
BRANCH  20  21
ATOM     21  N   UNL     1       3.104   2.993  19.667  0.00  0.00    +0.000 NA
ATOM     22  C   UNL     1       2.097   2.063  19.114  0.00  0.00    +0.000 C 
ATOM     23  C   UNL     1       0.768   2.761  19.332  0.00  0.00    +0.000 C 
ATOM     24  C   UNL     1       0.962   3.447  20.670  0.00  0.00    +0.000 C 
ATOM     25  C   UNL     1       2.467   3.633  20.818  0.00  0.00    +0.000 C 
ENDBRANCH  20  21
ENDBRANCH   2  20
TORSDOF 5
ENDMDL
MODEL 8
REMARK VINA RESULT:      -8.1      1.118      1.491
REMARK  Name = 
REMARK  5 active torsions:
REMARK  status: ('A' for Active; 'I' for Inactive)
REMARK    1  A    between atoms: N_2  and  C_4
REMARK    2  A    between atoms: C_7  and  C_8
REMARK    3  A    between atoms: C_8  and  N_9
REMARK    4  A    between atoms: C_10  and  C_11
REMARK    5  A    between atoms: C_11  and  N_12
REMARK                            x       y       z     vdW  Elec       q    Type
REMARK                         _______ _______ _______ _____ _____    ______ ____
ROOT
ATOM      1  N   UNL     1       3.977   5.818  19.102  0.00  0.00    +0.000 N 
ATOM      2  C   UNL     1       4.484   4.568  19.523  0.00  0.00    +0.000 A 
ATOM      3  N   UNL     1       5.777   4.819  19.689  0.00  0.00    +0.000 NA
ATOM      4  C   UNL     1       6.024   5.497  18.523  0.00  0.00    +0.000 A 
ATOM      5  C   UNL     1       7.200   5.482  17.767  0.00  0.00    +0.000 A 
ATOM      6  C   UNL     1       7.051   5.580  16.386  0.00  0.00    +0.000 A 
ATOM      7  C   UNL     1       5.789   5.806  15.815  0.00  0.00    +0.000 A 
ATOM      8  C   UNL     1       4.642   6.082  16.596  0.00  0.00    +0.000 A 
ATOM      9  C   UNL     1       4.801   5.957  17.983  0.00  0.00    +0.000 A 
ENDROOT
BRANCH   1  10
ATOM     10  C   UNL     1       2.573   6.105  19.408  0.00  0.00    +0.000 C 
BRANCH  10  14
ATOM     11  C   UNL     1       1.300  10.226  18.960  0.00  0.00    +0.000 A 
ATOM     12  C   UNL     1       1.149   9.596  20.201  0.00  0.00    +0.000 A 
ATOM     13  C   UNL     1       1.502   8.249  20.362  0.00  0.00    +0.000 A 
ATOM     14  C   UNL     1       2.025   7.516  19.293  0.00  0.00    +0.000 A 
ATOM     15  C   UNL     1       2.183   8.186  18.052  0.00  0.00    +0.000 A 
ATOM     16  C   UNL     1       1.829   9.526  17.876  0.00  0.00    +0.000 A 
BRANCH  11  18
ATOM     17  O   UNL     1       1.846  12.492  18.869  0.00  0.00    +0.000 OA
ATOM     18  N   UNL     1       0.930  11.654  18.785  0.00  0.00    +0.000 N 
ATOM     19  O   UNL     1      -0.258  11.914  18.561  0.00  0.00    +0.000 OA
ENDBRANCH  11  18
ENDBRANCH  10  14
ENDBRANCH   1  10
BRANCH   2  20
ATOM     20  C   UNL     1       3.874   3.356  18.784  0.00  0.00    +0.000 C 
BRANCH  20  21
ATOM     21  N   UNL     1       3.272   2.306  19.597  0.00  0.00    +0.000 NA
ATOM     22  C   UNL     1       2.011   1.871  18.961  0.00  0.00    +0.000 C 
ATOM     23  C   UNL     1       0.964   2.835  19.483  0.00  0.00    +0.000 C 
ATOM     24  C   UNL     1       1.407   3.074  20.913  0.00  0.00    +0.000 C 
ATOM     25  C   UNL     1       2.902   2.785  20.930  0.00  0.00    +0.000 C 
ENDBRANCH  20  21
ENDBRANCH   2  20
TORSDOF 5
ENDMDL
MODEL 9
REMARK VINA RESULT:      -8.1      1.304      4.332
REMARK  Name = 
REMARK  5 active torsions:
REMARK  status: ('A' for Active; 'I' for Inactive)
REMARK    1  A    between atoms: N_2  and  C_4
REMARK    2  A    between atoms: C_7  and  C_8
REMARK    3  A    between atoms: C_8  and  N_9
REMARK    4  A    between atoms: C_10  and  C_11
REMARK    5  A    between atoms: C_11  and  N_12
REMARK                            x       y       z     vdW  Elec       q    Type
REMARK                         _______ _______ _______ _____ _____    ______ ____
ROOT
ATOM      1  N   UNL     1       2.305   5.826  18.491  0.00  0.00    +0.000 N 
ATOM      2  C   UNL     1       2.970   4.889  17.669  0.00  0.00    +0.000 A 
ATOM      3  N   UNL     1       2.034   3.971  17.459  0.00  0.00    +0.000 NA
ATOM      4  C   UNL     1       1.581   3.816  18.744  0.00  0.00    +0.000 A 
ATOM      5  C   UNL     1       1.112   2.643  19.341  0.00  0.00    +0.000 A 
ATOM      6  C   UNL     1       1.389   2.482  20.696  0.00  0.00    +0.000 A 
ATOM      7  C   UNL     1       1.999   3.511  21.429  0.00  0.00    +0.000 A 
ATOM      8  C   UNL     1       2.234   4.795  20.884  0.00  0.00    +0.000 A 
ATOM      9  C   UNL     1       1.972   4.935  19.514  0.00  0.00    +0.000 A 
ENDROOT
BRANCH   1  10
ATOM     10  C   UNL     1       2.765   7.216  18.426  0.00  0.00    +0.000 C 
BRANCH  10  14
ATOM     11  C   UNL     1      -0.007  10.248  19.815  0.00  0.00    +0.000 A 
ATOM     12  C   UNL     1       0.332  10.203  18.457  0.00  0.00    +0.000 A 
ATOM     13  C   UNL     1       1.266   9.268  17.988  0.00  0.00    +0.000 A 
ATOM     14  C   UNL     1       1.862   8.355  18.861  0.00  0.00    +0.000 A 
ATOM     15  C   UNL     1       1.487   8.413  20.229  0.00  0.00    +0.000 A 
ATOM     16  C   UNL     1       0.562   9.344  20.711  0.00  0.00    +0.000 A 
BRANCH  11  18
ATOM     17  O   UNL     1      -1.704  11.811  19.469  0.00  0.00    +0.000 OA
ATOM     18  N   UNL     1      -0.997  11.234  20.316  0.00  0.00    +0.000 N 
ATOM     19  O   UNL     1      -1.060  11.411  21.538  0.00  0.00    +0.000 OA
ENDBRANCH  11  18
ENDBRANCH  10  14
ENDBRANCH   1  10
BRANCH   2  20
ATOM     20  C   UNL     1       4.439   4.626  18.070  0.00  0.00    +0.000 C 
BRANCH  20  21
ATOM     21  N   UNL     1       5.460   5.487  17.486  0.00  0.00    +0.000 NA
ATOM     22  C   UNL     1       5.115   5.747  16.072  0.00  0.00    +0.000 C 
ATOM     23  C   UNL     1       5.708   4.576  15.311  0.00  0.00    +0.000 C 
ATOM     24  C   UNL     1       6.998   4.305  16.059  0.00  0.00    +0.000 C 
ATOM     25  C   UNL     1       6.776   4.847  17.465  0.00  0.00    +0.000 C 
ENDBRANCH  20  21
ENDBRANCH   2  20
TORSDOF 5
ENDMDL
