MODEL 1
REMARK VINA RESULT:      -8.0      0.000      0.000
REMARK  Name = 
REMARK  6 active torsions:
REMARK  status: ('A' for Active; 'I' for Inactive)
REMARK    1  A    between atoms: C_1  and  O_2
REMARK    2  A    between atoms: O_2  and  C_3
REMARK    3  A    between atoms: C_5  and  C_6
REMARK    4  A    between atoms: C_7  and  C_8
REMARK    5  A    between atoms: C_9  and  C_10
REMARK    6  A    between atoms: C_20  and  O_21
REMARK                            x       y       z     vdW  Elec       q    Type
REMARK                         _______ _______ _______ _____ _____    ______ ____
ROOT
ATOM      1  C   UNL     1       8.298   9.484  17.924  0.00  0.00    +0.000 C 
ATOM      2  C   UNL     1       8.308   8.175  18.220  0.00  0.00    +0.000 C 
ENDROOT
BRANCH   1   5
ATOM      3  C   UNL     1      11.067  12.074  18.225  0.00  0.00    +0.000 A 
ATOM      4  C   UNL     1      10.129  11.165  17.692  0.00  0.00    +0.000 A 
ATOM      5  C   UNL     1       9.248  10.449  18.513  0.00  0.00    +0.000 A 
ATOM      6  C   UNL     1       9.343  10.630  19.897  0.00  0.00    +0.000 A 
ATOM      7  C   UNL     1      10.262  11.527  20.443  0.00  0.00    +0.000 A 
ATOM      8  C   UNL     1      11.120  12.250  19.612  0.00  0.00    +0.000 A 
BRANCH   3  10
ATOM      9  C   UNL     1      11.423  13.964  16.796  0.00  0.00    +0.000 C 
ATOM     10  O   UNL     1      11.833  12.686  17.266  0.00  0.00    +0.000 OA
ENDBRANCH   3  10
BRANCH   8  11
ATOM     11  O   UNL     1      12.004  13.112  20.199  0.00  0.00    +0.000 OA
ATOM     12  H   UNL     1      12.065  12.913  21.146  0.00  0.00    +0.000 HD
ENDBRANCH   8  11
ENDBRANCH   1   5
BRANCH   2  13
ATOM     13  C   UNL     1       7.445   7.180  17.620  0.00  0.00    +0.000 C 
ATOM     14  C   UNL     1       7.369   5.937  18.120  0.00  0.00    +0.000 C 
BRANCH  14  15
ATOM     15  C   UNL     1       6.521   4.894  17.493  0.00  0.00    +0.000 C 
ATOM     16  O   UNL     1       6.958   4.240  16.550  0.00  0.00    +0.000 OA
ATOM     17  N   UNL     1       5.271   4.697  18.066  0.00  0.00    +0.000 N 
ATOM     18  C   UNL     1       4.497   3.516  17.685  0.00  0.00    +0.000 C 
ATOM     19  C   UNL     1       3.039   3.860  17.380  0.00  0.00    +0.000 C 
ATOM     20  C   UNL     1       2.405   4.685  18.498  0.00  0.00    +0.000 C 
ATOM     21  C   UNL     1       3.258   5.908  18.815  0.00  0.00    +0.000 C 
ATOM     22  C   UNL     1       4.695   5.508  19.140  0.00  0.00    +0.000 C 
ENDBRANCH  14  15
ENDBRANCH   2  13
TORSDOF 5
ENDMDL
MODEL 2
REMARK VINA RESULT:      -7.8      0.962      1.005
REMARK  Name = 
REMARK  6 active torsions:
REMARK  status: ('A' for Active; 'I' for Inactive)
REMARK    1  A    between atoms: C_1  and  O_2
REMARK    2  A    between atoms: O_2  and  C_3
REMARK    3  A    between atoms: C_5  and  C_6
REMARK    4  A    between atoms: C_7  and  C_8
REMARK    5  A    between atoms: C_9  and  C_10
REMARK    6  A    between atoms: C_20  and  O_21
REMARK                            x       y       z     vdW  Elec       q    Type
REMARK                         _______ _______ _______ _____ _____    ______ ____
ROOT
ATOM      1  C   UNL     1       8.134   9.364  17.847  0.00  0.00    +0.000 C 
ATOM      2  C   UNL     1       8.205   8.074  18.211  0.00  0.00    +0.000 C 
ENDROOT
BRANCH   1   5
ATOM      3  C   UNL     1      10.152  12.554  18.315  0.00  0.00    +0.000 A 
ATOM      4  C   UNL     1       9.358  11.537  17.743  0.00  0.00    +0.000 A 
ATOM      5  C   UNL     1       8.941  10.424  18.484  0.00  0.00    +0.000 A 
ATOM      6  C   UNL     1       9.362  10.322  19.815  0.00  0.00    +0.000 A 
ATOM      7  C   UNL     1      10.145  11.320  20.399  0.00  0.00    +0.000 A 
ATOM      8  C   UNL     1      10.538  12.434  19.654  0.00  0.00    +0.000 A 
BRANCH   3  10
ATOM      9  C   UNL     1      11.650  13.461  16.679  0.00  0.00    +0.000 C 
ATOM     10  O   UNL     1      10.451  13.564  17.438  0.00  0.00    +0.000 OA
ENDBRANCH   3  10
BRANCH   8  11
ATOM     11  O   UNL     1      11.307  13.379  20.274  0.00  0.00    +0.000 OA
ATOM     12  H   UNL     1      11.000  14.261  20.016  0.00  0.00    +0.000 HD
ENDBRANCH   8  11
ENDBRANCH   1   5
BRANCH   2  13
ATOM     13  C   UNL     1       7.489   6.990  17.573  0.00  0.00    +0.000 C 
ATOM     14  C   UNL     1       6.186   7.103  17.273  0.00  0.00    +0.000 C 
BRANCH  14  15
ATOM     15  C   UNL     1       5.427   5.987  16.657  0.00  0.00    +0.000 C 
ATOM     16  O   UNL     1       5.570   5.740  15.463  0.00  0.00    +0.000 OA
ATOM     17  N   UNL     1       4.616   5.253  17.513  0.00  0.00    +0.000 N 
ATOM     18  C   UNL     1       4.058   3.986  17.045  0.00  0.00    +0.000 C 
ATOM     19  C   UNL     1       2.571   3.858  17.374  0.00  0.00    +0.000 C 
ATOM     20  C   UNL     1       2.288   4.156  18.844  0.00  0.00    +0.000 C 
ATOM     21  C   UNL     1       2.878   5.504  19.244  0.00  0.00    +0.000 C 
ATOM     22  C   UNL     1       4.369   5.568  18.922  0.00  0.00    +0.000 C 
ENDBRANCH  14  15
ENDBRANCH   2  13
TORSDOF 5
ENDMDL
MODEL 3
REMARK VINA RESULT:      -7.6      0.869      2.086
REMARK  Name = 
REMARK  6 active torsions:
REMARK  status: ('A' for Active; 'I' for Inactive)
REMARK    1  A    between atoms: C_1  and  O_2
REMARK    2  A    between atoms: O_2  and  C_3
REMARK    3  A    between atoms: C_5  and  C_6
REMARK    4  A    between atoms: C_7  and  C_8
REMARK    5  A    between atoms: C_9  and  C_10
REMARK    6  A    between atoms: C_20  and  O_21
REMARK                            x       y       z     vdW  Elec       q    Type
REMARK                         _______ _______ _______ _____ _____    ______ ____
ROOT
ATOM      1  C   UNL     1       8.312   9.591  17.957  0.00  0.00    +0.000 C 
ATOM      2  C   UNL     1       8.355   8.281  18.244  0.00  0.00    +0.000 C 
ENDROOT
BRANCH   1   5
ATOM      3  C   UNL     1      10.040  11.872  20.462  0.00  0.00    +0.000 A 
ATOM      4  C   UNL     1       9.173  10.919  19.888  0.00  0.00    +0.000 A 
ATOM      5  C   UNL     1       9.254  10.571  18.533  0.00  0.00    +0.000 A 
ATOM      6  C   UNL     1      10.205  11.224  17.740  0.00  0.00    +0.000 A 
ATOM      7  C   UNL     1      11.075  12.166  18.292  0.00  0.00    +0.000 A 
ATOM      8  C   UNL     1      10.996  12.489  19.648  0.00  0.00    +0.000 A 
BRANCH   3  10
ATOM      9  C   UNL     1       8.477  11.982  22.275  0.00  0.00    +0.000 C 
ATOM     10  O   UNL     1       9.815  12.072  21.800  0.00  0.00    +0.000 OA
ENDBRANCH   3  10
BRANCH   8  11
ATOM     11  O   UNL     1      11.869  13.422  20.136  0.00  0.00    +0.000 OA
ATOM     12  H   UNL     1      12.723  13.327  19.687  0.00  0.00    +0.000 HD
ENDBRANCH   8  11
ENDBRANCH   1   5
BRANCH   2  13
ATOM     13  C   UNL     1       7.501   7.272  17.654  0.00  0.00    +0.000 C 
ATOM     14  C   UNL     1       7.436   6.033  18.167  0.00  0.00    +0.000 C 
BRANCH  14  15
ATOM     15  C   UNL     1       6.597   4.976  17.551  0.00  0.00    +0.000 C 
ATOM     16  O   UNL     1       7.046   4.303  16.628  0.00  0.00    +0.000 OA
ATOM     17  N   UNL     1       5.339   4.791  18.111  0.00  0.00    +0.000 N 
ATOM     18  C   UNL     1       4.571   3.601  17.746  0.00  0.00    +0.000 C 
ATOM     19  C   UNL     1       3.117   3.937  17.415  0.00  0.00    +0.000 C 
ATOM     20  C   UNL     1       2.469   4.784  18.507  0.00  0.00    +0.000 C 
ATOM     21  C   UNL     1       3.317   6.015  18.809  0.00  0.00    +0.000 C 
ATOM     22  C   UNL     1       4.749   5.624  19.161  0.00  0.00    +0.000 C 
ENDBRANCH  14  15
ENDBRANCH   2  13
TORSDOF 5
ENDMDL
MODEL 4
REMARK VINA RESULT:      -7.5      1.436      2.338
REMARK  Name = 
REMARK  6 active torsions:
REMARK  status: ('A' for Active; 'I' for Inactive)
REMARK    1  A    between atoms: C_1  and  O_2
REMARK    2  A    between atoms: O_2  and  C_3
REMARK    3  A    between atoms: C_5  and  C_6
REMARK    4  A    between atoms: C_7  and  C_8
REMARK    5  A    between atoms: C_9  and  C_10
REMARK    6  A    between atoms: C_20  and  O_21
REMARK                            x       y       z     vdW  Elec       q    Type
REMARK                         _______ _______ _______ _____ _____    ______ ____
ROOT
ATOM      1  C   UNL     1       8.739   8.811  18.637  0.00  0.00    +0.000 C 
ATOM      2  C   UNL     1       7.804   8.427  17.754  0.00  0.00    +0.000 C 
ENDROOT
BRANCH   1   5
ATOM      3  C   UNL     1       9.642  12.018  20.471  0.00  0.00    +0.000 A 
ATOM      4  C   UNL     1       9.349  10.667  20.192  0.00  0.00    +0.000 A 
ATOM      5  C   UNL     1       9.070  10.228  18.891  0.00  0.00    +0.000 A 
ATOM      6  C   UNL     1       9.055  11.177  17.863  0.00  0.00    +0.000 A 
ATOM      7  C   UNL     1       9.347  12.518  18.120  0.00  0.00    +0.000 A 
ATOM      8  C   UNL     1       9.642  12.939  19.419  0.00  0.00    +0.000 A 
BRANCH   3  10
ATOM      9  C   UNL     1       8.796  12.545  22.650  0.00  0.00    +0.000 C 
ATOM     10  O   UNL     1       9.896  12.253  21.798  0.00  0.00    +0.000 OA
ENDBRANCH   3  10
BRANCH   8  11
ATOM     11  O   UNL     1       9.916  14.264  19.615  0.00  0.00    +0.000 OA
ATOM     12  H   UNL     1       9.202  14.799  19.235  0.00  0.00    +0.000 HD
ENDBRANCH   8  11
ENDBRANCH   1   5
BRANCH   2  13
ATOM     13  C   UNL     1       7.395   7.058  17.519  0.00  0.00    +0.000 C 
ATOM     14  C   UNL     1       6.200   6.776  16.978  0.00  0.00    +0.000 C 
BRANCH  14  15
ATOM     15  C   UNL     1       5.748   5.379  16.769  0.00  0.00    +0.000 C 
ATOM     16  O   UNL     1       6.387   4.637  16.028  0.00  0.00    +0.000 OA
ATOM     17  N   UNL     1       4.624   4.986  17.484  0.00  0.00    +0.000 N 
ATOM     18  C   UNL     1       4.283   3.565  17.542  0.00  0.00    +0.000 C 
ATOM     19  C   UNL     1       2.798   3.319  17.281  0.00  0.00    +0.000 C 
ATOM     20  C   UNL     1       1.915   4.207  18.156  0.00  0.00    +0.000 C 
ATOM     21  C   UNL     1       2.316   5.671  18.016  0.00  0.00    +0.000 C 
ATOM     22  C   UNL     1       3.800   5.866  18.315  0.00  0.00    +0.000 C 
ENDBRANCH  14  15
ENDBRANCH   2  13
TORSDOF 5
ENDMDL
MODEL 5
REMARK VINA RESULT:      -7.4      1.963      2.312
REMARK  Name = 
REMARK  6 active torsions:
REMARK  status: ('A' for Active; 'I' for Inactive)
REMARK    1  A    between atoms: C_1  and  O_2
REMARK    2  A    between atoms: O_2  and  C_3
REMARK    3  A    between atoms: C_5  and  C_6
REMARK    4  A    between atoms: C_7  and  C_8
REMARK    5  A    between atoms: C_9  and  C_10
REMARK    6  A    between atoms: C_20  and  O_21
REMARK                            x       y       z     vdW  Elec       q    Type
REMARK                         _______ _______ _______ _____ _____    ______ ____
ROOT
ATOM      1  C   UNL     1       9.073   9.696  18.611  0.00  0.00    +0.000 C 
ATOM      2  C   UNL     1       8.282   8.911  17.864  0.00  0.00    +0.000 C 
ENDROOT
BRANCH   1   5
ATOM      3  C   UNL     1       8.517  13.348  17.703  0.00  0.00    +0.000 A 
ATOM      4  C   UNL     1       8.289  11.999  18.048  0.00  0.00    +0.000 A 
ATOM      5  C   UNL     1       9.346  11.109  18.280  0.00  0.00    +0.000 A 
ATOM      6  C   UNL     1      10.654  11.584  18.126  0.00  0.00    +0.000 A 
ATOM      7  C   UNL     1      10.899  12.916  17.789  0.00  0.00    +0.000 A 
ATOM      8  C   UNL     1       9.836  13.797  17.580  0.00  0.00    +0.000 A 
BRANCH   3  10
ATOM      9  C   UNL     1       6.852  14.798  18.633  0.00  0.00    +0.000 C 
ATOM     10  O   UNL     1       7.361  14.064  17.527  0.00  0.00    +0.000 OA
ENDBRANCH   3  10
BRANCH   8  11
ATOM     11  O   UNL     1      10.132  15.090  17.248  0.00  0.00    +0.000 OA
ATOM     12  H   UNL     1       9.368  15.654  17.443  0.00  0.00    +0.000 HD
ENDBRANCH   8  11
ENDBRANCH   1   5
BRANCH   2  13
ATOM     13  C   UNL     1       7.928   7.544  18.182  0.00  0.00    +0.000 C 
ATOM     14  C   UNL     1       7.347   6.748  17.271  0.00  0.00    +0.000 C 
BRANCH  14  15
ATOM     15  C   UNL     1       6.941   5.359  17.593  0.00  0.00    +0.000 C 
ATOM     16  O   UNL     1       7.750   4.444  17.471  0.00  0.00    +0.000 OA
ATOM     17  N   UNL     1       5.645   5.195  18.067  0.00  0.00    +0.000 N 
ATOM     18  C   UNL     1       5.266   3.912  18.659  0.00  0.00    +0.000 C 
ATOM     19  C   UNL     1       3.918   3.416  18.137  0.00  0.00    +0.000 C 
ATOM     20  C   UNL     1       2.839   4.492  18.241  0.00  0.00    +0.000 C 
ATOM     21  C   UNL     1       3.302   5.785  17.578  0.00  0.00    +0.000 C 
ATOM     22  C   UNL     1       4.636   6.252  18.155  0.00  0.00    +0.000 C 
ENDBRANCH  14  15
ENDBRANCH   2  13
TORSDOF 5
ENDMDL
MODEL 6
REMARK VINA RESULT:      -7.3      1.530      1.594
REMARK  Name = 
REMARK  6 active torsions:
REMARK  status: ('A' for Active; 'I' for Inactive)
REMARK    1  A    between atoms: C_1  and  O_2
REMARK    2  A    between atoms: O_2  and  C_3
REMARK    3  A    between atoms: C_5  and  C_6
REMARK    4  A    between atoms: C_7  and  C_8
REMARK    5  A    between atoms: C_9  and  C_10
REMARK    6  A    between atoms: C_20  and  O_21
REMARK                            x       y       z     vdW  Elec       q    Type
REMARK                         _______ _______ _______ _____ _____    ______ ____
ROOT
ATOM      1  C   UNL     1       8.833   9.348  18.802  0.00  0.00    +0.000 C 
ATOM      2  C   UNL     1       8.106   9.095  17.702  0.00  0.00    +0.000 C 
ENDROOT
BRANCH   1   5
ATOM      3  C   UNL     1       9.348  13.116  18.716  0.00  0.00    +0.000 A 
ATOM      4  C   UNL     1       8.882  11.816  18.427  0.00  0.00    +0.000 A 
ATOM      5  C   UNL     1       9.320  10.698  19.149  0.00  0.00    +0.000 A 
ATOM      6  C   UNL     1      10.270  10.896  20.157  0.00  0.00    +0.000 A 
ATOM      7  C   UNL     1      10.740  12.175  20.461  0.00  0.00    +0.000 A 
ATOM      8  C   UNL     1      10.281  13.282  19.745  0.00  0.00    +0.000 A 
BRANCH   3  10
ATOM      9  C   UNL     1       7.419  13.975  17.585  0.00  0.00    +0.000 C 
ATOM     10  O   UNL     1       8.799  14.079  17.910  0.00  0.00    +0.000 OA
ENDBRANCH   3  10
BRANCH   8  11
ATOM     11  O   UNL     1      10.777  14.512  20.080  0.00  0.00    +0.000 OA
ATOM     12  H   UNL     1      10.210  15.200  19.701  0.00  0.00    +0.000 HD
ENDBRANCH   8  11
ENDBRANCH   1   5
BRANCH   2  13
ATOM     13  C   UNL     1       7.548   7.805  17.354  0.00  0.00    +0.000 C 
ATOM     14  C   UNL     1       7.659   6.756  18.183  0.00  0.00    +0.000 C 
BRANCH  14  15
ATOM     15  C   UNL     1       7.129   5.418  17.824  0.00  0.00    +0.000 C 
ATOM     16  O   UNL     1       7.883   4.569  17.359  0.00  0.00    +0.000 OA
ATOM     17  N   UNL     1       5.782   5.202  18.090  0.00  0.00    +0.000 N 
ATOM     18  C   UNL     1       5.257   3.839  18.022  0.00  0.00    +0.000 C 
ATOM     19  C   UNL     1       3.941   3.769  17.248  0.00  0.00    +0.000 C 
ATOM     20  C   UNL     1       2.933   4.799  17.751  0.00  0.00    +0.000 C 
ATOM     21  C   UNL     1       3.549   6.194  17.766  0.00  0.00    +0.000 C 
ATOM     22  C   UNL     1       4.842   6.215  18.575  0.00  0.00    +0.000 C 
ENDBRANCH  14  15
ENDBRANCH   2  13
TORSDOF 5
ENDMDL
MODEL 7
REMARK VINA RESULT:      -7.3      1.774      1.873
REMARK  Name = 
REMARK  6 active torsions:
REMARK  status: ('A' for Active; 'I' for Inactive)
REMARK    1  A    between atoms: C_1  and  O_2
REMARK    2  A    between atoms: O_2  and  C_3
REMARK    3  A    between atoms: C_5  and  C_6
REMARK    4  A    between atoms: C_7  and  C_8
REMARK    5  A    between atoms: C_9  and  C_10
REMARK    6  A    between atoms: C_20  and  O_21
REMARK                            x       y       z     vdW  Elec       q    Type
REMARK                         _______ _______ _______ _____ _____    ______ ____
ROOT
ATOM      1  C   UNL     1       8.773   9.111  18.581  0.00  0.00    +0.000 C 
ATOM      2  C   UNL     1       7.872   8.611  17.721  0.00  0.00    +0.000 C 
ENDROOT
BRANCH   1   5
ATOM      3  C   UNL     1       8.672  12.859  17.941  0.00  0.00    +0.000 A 
ATOM      4  C   UNL     1       8.365  11.482  17.914  0.00  0.00    +0.000 A 
ATOM      5  C   UNL     1       9.102  10.549  18.655  0.00  0.00    +0.000 A 
ATOM      6  C   UNL     1      10.188  11.012  19.406  0.00  0.00    +0.000 A 
ATOM      7  C   UNL     1      10.504  12.371  19.449  0.00  0.00    +0.000 A 
ATOM      8  C   UNL     1       9.749  13.294  18.721  0.00  0.00    +0.000 A 
BRANCH   3  10
ATOM      9  C   UNL     1       6.830  14.386  17.810  0.00  0.00    +0.000 C 
ATOM     10  O   UNL     1       7.834  13.615  17.162  0.00  0.00    +0.000 OA
ENDBRANCH   3  10
BRANCH   8  11
ATOM     11  O   UNL     1      10.104  14.612  18.794  0.00  0.00    +0.000 OA
ATOM     12  H   UNL     1       9.335  15.136  19.067  0.00  0.00    +0.000 HD
ENDBRANCH   8  11
ENDBRANCH   1   5
BRANCH   2  13
ATOM     13  C   UNL     1       7.464   7.224  17.657  0.00  0.00    +0.000 C 
ATOM     14  C   UNL     1       6.385   6.851  16.952  0.00  0.00    +0.000 C 
BRANCH  14  15
ATOM     15  C   UNL     1       5.930   5.440  16.909  0.00  0.00    +0.000 C 
ATOM     16  O   UNL     1       6.596   4.603  16.309  0.00  0.00    +0.000 OA
ATOM     17  N   UNL     1       4.766   5.152  17.612  0.00  0.00    +0.000 N 
ATOM     18  C   UNL     1       4.409   3.753  17.844  0.00  0.00    +0.000 C 
ATOM     19  C   UNL     1       2.935   3.480  17.543  0.00  0.00    +0.000 C 
ATOM     20  C   UNL     1       2.019   4.480  18.244  0.00  0.00    +0.000 C 
ATOM     21  C   UNL     1       2.443   5.911  17.930  0.00  0.00    +0.000 C 
ATOM     22  C   UNL     1       3.911   6.139  18.275  0.00  0.00    +0.000 C 
ENDBRANCH  14  15
ENDBRANCH   2  13
TORSDOF 5
ENDMDL
MODEL 8
REMARK VINA RESULT:      -7.2      5.407      8.686
REMARK  Name = 
REMARK  6 active torsions:
REMARK  status: ('A' for Active; 'I' for Inactive)
REMARK    1  A    between atoms: C_1  and  O_2
REMARK    2  A    between atoms: O_2  and  C_3
REMARK    3  A    between atoms: C_5  and  C_6
REMARK    4  A    between atoms: C_7  and  C_8
REMARK    5  A    between atoms: C_9  and  C_10
REMARK    6  A    between atoms: C_20  and  O_21
REMARK                            x       y       z     vdW  Elec       q    Type
REMARK                         _______ _______ _______ _____ _____    ______ ____
ROOT
ATOM      1  C   UNL     1       2.903   6.872  18.556  0.00  0.00    +0.000 C 
ATOM      2  C   UNL     1       2.385   7.979  18.002  0.00  0.00    +0.000 C 
ENDROOT
BRANCH   1   5
ATOM      3  C   UNL     1       6.041   5.654  16.788  0.00  0.00    +0.000 A 
ATOM      4  C   UNL     1       5.121   6.463  17.486  0.00  0.00    +0.000 A 
ATOM      5  C   UNL     1       3.853   5.989  17.851  0.00  0.00    +0.000 A 
ATOM      6  C   UNL     1       3.501   4.689  17.473  0.00  0.00    +0.000 A 
ATOM      7  C   UNL     1       4.400   3.872  16.786  0.00  0.00    +0.000 A 
ATOM      8  C   UNL     1       5.668   4.350  16.445  0.00  0.00    +0.000 A 
BRANCH   3  10
ATOM      9  C   UNL     1       7.668   7.288  17.438  0.00  0.00    +0.000 C 
ATOM     10  O   UNL     1       7.230   6.287  16.528  0.00  0.00    +0.000 OA
ENDBRANCH   3  10
BRANCH   8  11
ATOM     11  O   UNL     1       6.508   3.510  15.768  0.00  0.00    +0.000 OA
ATOM     12  H   UNL     1       7.340   3.972  15.581  0.00  0.00    +0.000 HD
ENDBRANCH   8  11
ENDBRANCH   1   5
BRANCH   2  13
ATOM     13  C   UNL     1       1.505   8.912  18.674  0.00  0.00    +0.000 C 
ATOM     14  C   UNL     1       0.877   9.884  17.994  0.00  0.00    +0.000 C 
BRANCH  14  15
ATOM     15  C   UNL     1       0.005  10.873  18.673  0.00  0.00    +0.000 C 
ATOM     16  O   UNL     1       0.447  11.536  19.606  0.00  0.00    +0.000 OA
ATOM     17  N   UNL     1      -1.278  11.011  18.158  0.00  0.00    +0.000 N 
ATOM     18  C   UNL     1      -2.095  12.144  18.590  0.00  0.00    +0.000 C 
ATOM     19  C   UNL     1      -3.518  11.721  18.952  0.00  0.00    +0.000 C 
ATOM     20  C   UNL     1      -4.157  10.879  17.849  0.00  0.00    +0.000 C 
ATOM     21  C   UNL     1      -3.256   9.707  17.477  0.00  0.00    +0.000 C 
ATOM     22  C   UNL     1      -1.858  10.185  17.097  0.00  0.00    +0.000 C 
ENDBRANCH  14  15
ENDBRANCH   2  13
TORSDOF 5
ENDMDL
MODEL 9
REMARK VINA RESULT:      -7.2      6.459      9.535
REMARK  Name = 
REMARK  6 active torsions:
REMARK  status: ('A' for Active; 'I' for Inactive)
REMARK    1  A    between atoms: C_1  and  O_2
REMARK    2  A    between atoms: O_2  and  C_3
REMARK    3  A    between atoms: C_5  and  C_6
REMARK    4  A    between atoms: C_7  and  C_8
REMARK    5  A    between atoms: C_9  and  C_10
REMARK    6  A    between atoms: C_20  and  O_21
REMARK                            x       y       z     vdW  Elec       q    Type
REMARK                         _______ _______ _______ _____ _____    ______ ____
ROOT
ATOM      1  C   UNL     1       2.658   7.302  18.137  0.00  0.00    +0.000 C 
ATOM      2  C   UNL     1       2.626   8.552  17.647  0.00  0.00    +0.000 C 
ENDROOT
BRANCH   1   5
ATOM      3  C   UNL     1       3.999   3.856  17.247  0.00  0.00    +0.000 A 
ATOM      4  C   UNL     1       3.182   4.893  17.745  0.00  0.00    +0.000 A 
ATOM      5  C   UNL     1       3.521   6.242  17.578  0.00  0.00    +0.000 A 
ATOM      6  C   UNL     1       4.722   6.544  16.927  0.00  0.00    +0.000 A 
ATOM      7  C   UNL     1       5.541   5.532  16.424  0.00  0.00    +0.000 A 
ATOM      8  C   UNL     1       5.181   4.192  16.581  0.00  0.00    +0.000 A 
BRANCH   3  10
ATOM      9  C   UNL     1       2.285   2.504  18.235  0.00  0.00    +0.000 C 
ATOM     10  O   UNL     1       3.497   2.605  17.499  0.00  0.00    +0.000 OA
ENDBRANCH   3  10
BRANCH   8  11
ATOM     11  O   UNL     1       6.021   3.240  16.072  0.00  0.00    +0.000 OA
ATOM     12  H   UNL     1       5.989   2.451  16.635  0.00  0.00    +0.000 HD
ENDBRANCH   8  11
ENDBRANCH   1   5
BRANCH   2  13
ATOM     13  C   UNL     1       1.852   9.642  18.200  0.00  0.00    +0.000 C 
ATOM     14  C   UNL     1       0.569   9.471  18.556  0.00  0.00    +0.000 C 
BRANCH  14  15
ATOM     15  C   UNL     1      -0.250  10.587  19.086  0.00  0.00    +0.000 C 
ATOM     16  O   UNL     1       0.149  11.229  20.053  0.00  0.00    +0.000 OA
ATOM     17  N   UNL     1      -1.427  10.861  18.401  0.00  0.00    +0.000 N 
ATOM     18  C   UNL     1      -2.141  12.104  18.691  0.00  0.00    +0.000 C 
ATOM     19  C   UNL     1      -3.641  11.876  18.869  0.00  0.00    +0.000 C 
ATOM     20  C   UNL     1      -4.234  11.074  17.712  0.00  0.00    +0.000 C 
ATOM     21  C   UNL     1      -3.450   9.784  17.494  0.00  0.00    +0.000 C 
ATOM     22  C   UNL     1      -1.965  10.070  17.292  0.00  0.00    +0.000 C 
ENDBRANCH  14  15
ENDBRANCH   2  13
TORSDOF 5
ENDMDL
