MODEL 1
REMARK VINA RESULT:      -7.4      0.000      0.000
REMARK  Name = 
REMARK  9 active torsions:
REMARK  status: ('A' for Active; 'I' for Inactive)
REMARK    1  A    between atoms: C_2  and  C_3
REMARK    2  A    between atoms: C_8  and  C_9
REMARK    3  A    between atoms: C_9  and  C_10
REMARK    4  A    between atoms: C_9  and  C_12
REMARK    5  A    between atoms: C_12  and  C_13
REMARK    6  A    between atoms: C_13  and  C_14
REMARK    7  A    between atoms: C_14  and  N_15
REMARK    8  A    between atoms: C_18  and  O_19
REMARK    9  A    between atoms: C_18  and  C_20
REMARK                            x       y       z     vdW  Elec       q    Type
REMARK                         _______ _______ _______ _____ _____    ______ ____
ROOT
ATOM      1  N   UNL     1       0.882  10.166  18.793  0.00  0.00    +0.000 NA
ATOM      2  C   UNL     1       1.057  11.619  18.896  0.00  0.00    +0.000 C 
ATOM      3  C   UNL     1      -0.127  12.235  19.644  0.00  0.00    +0.000 C 
ATOM      4  C   UNL     1      -0.364  11.565  21.012  0.00  0.00    +0.000 C 
ATOM      5  C   UNL     1      -0.340  10.038  20.893  0.00  0.00    +0.000 C 
ATOM      6  C   UNL     1       0.889   9.564  20.134  0.00  0.00    +0.000 C 
ENDROOT
BRANCH   4   7
ATOM      7  C   UNL     1      -1.687  12.023  21.640  0.00  0.00    +0.000 A 
ATOM      8  C   UNL     1      -2.694  12.592  20.837  0.00  0.00    +0.000 A 
ATOM      9  C   UNL     1      -3.915  12.996  21.383  0.00  0.00    +0.000 A 
ATOM     10  C   UNL     1      -4.152  12.837  22.747  0.00  0.00    +0.000 A 
ATOM     11 CL   UNL     1      -5.650  13.324  23.422  0.00  0.00    +0.000 Cl
ATOM     12  C   UNL     1      -3.172  12.270  23.559  0.00  0.00    +0.000 A 
ATOM     13  C   UNL     1      -1.953  11.860  23.010  0.00  0.00    +0.000 A 
ENDBRANCH   4   7
BRANCH   4  14
ATOM     14  O   UNL     1       0.741  11.930  21.864  0.00  0.00    +0.000 OA
ATOM     15  H   UNL     1       0.422  11.877  22.783  0.00  0.00    +0.000 HD
ENDBRANCH   4  14
BRANCH   1  16
ATOM     16  C   UNL     1       1.881   9.577  17.895  0.00  0.00    +0.000 C 
BRANCH  16  17
ATOM     17  C   UNL     1       2.416   8.242  18.420  0.00  0.00    +0.000 C 
BRANCH  17  18
ATOM     18  C   UNL     1       2.843   7.304  17.272  0.00  0.00    +0.000 C 
BRANCH  18  19
ATOM     19  C   UNL     1       4.139   6.536  17.531  0.00  0.00    +0.000 C 
BRANCH  19  25
ATOM     20  C   UNL     1       4.729   4.403  18.920  0.00  0.00    +0.000 A 
ATOM     21  C   UNL     1       4.388   3.114  19.373  0.00  0.00    +0.000 A 
ATOM     22  C   UNL     1       3.209   2.497  18.975  0.00  0.00    +0.000 A 
ATOM     23  C   UNL     1       2.344   3.163  18.114  0.00  0.00    +0.000 A 
ATOM     24  C   UNL     1       2.670   4.439  17.670  0.00  0.00    +0.000 A 
ATOM     25  C   UNL     1       3.864   5.100  18.049  0.00  0.00    +0.000 A 
BRANCH  20  27
ATOM     26  N   UNL     1       6.988   5.386  19.746  0.00  0.00    +0.000 NA
ATOM     27  C   UNL     1       5.976   4.952  19.373  0.00  0.00    +0.000 C 
ENDBRANCH  20  27
ENDBRANCH  19  25
BRANCH  19  28
ATOM     28  C   UNL     1       4.980   6.460  16.267  0.00  0.00    +0.000 C 
ATOM     29  N   UNL     1       5.678   6.397  15.219  0.00  0.00    +0.000 NA
ENDBRANCH  19  28
ENDBRANCH  18  19
ENDBRANCH  17  18
ENDBRANCH  16  17
ENDBRANCH   1  16
TORSDOF 9
ENDMDL
MODEL 2
REMARK VINA RESULT:      -7.4      1.338      2.113
REMARK  Name = 
REMARK  9 active torsions:
REMARK  status: ('A' for Active; 'I' for Inactive)
REMARK    1  A    between atoms: C_2  and  C_3
REMARK    2  A    between atoms: C_8  and  C_9
REMARK    3  A    between atoms: C_9  and  C_10
REMARK    4  A    between atoms: C_9  and  C_12
REMARK    5  A    between atoms: C_12  and  C_13
REMARK    6  A    between atoms: C_13  and  C_14
REMARK    7  A    between atoms: C_14  and  N_15
REMARK    8  A    between atoms: C_18  and  O_19
REMARK    9  A    between atoms: C_18  and  C_20
REMARK                            x       y       z     vdW  Elec       q    Type
REMARK                         _______ _______ _______ _____ _____    ______ ____
ROOT
ATOM      1  N   UNL     1       0.913   8.827  20.574  0.00  0.00    +0.000 NA
ATOM      2  C   UNL     1       0.939   9.995  19.687  0.00  0.00    +0.000 C 
ATOM      3  C   UNL     1      -0.273  10.886  19.962  0.00  0.00    +0.000 C 
ATOM      4  C   UNL     1      -0.387  11.272  21.450  0.00  0.00    +0.000 C 
ATOM      5  C   UNL     1      -0.208  10.048  22.355  0.00  0.00    +0.000 C 
ATOM      6  C   UNL     1       1.033   9.260  21.974  0.00  0.00    +0.000 C 
ENDROOT
BRANCH   4   7
ATOM      7  C   UNL     1      -1.726  11.958  21.752  0.00  0.00    +0.000 A 
ATOM      8  C   UNL     1      -2.468  12.555  20.714  0.00  0.00    +0.000 A 
ATOM      9  C   UNL     1      -3.699  13.165  20.962  0.00  0.00    +0.000 A 
ATOM     10  C   UNL     1      -4.214  13.191  22.257  0.00  0.00    +0.000 A 
ATOM     11 CL   UNL     1      -5.727  13.934  22.566  0.00  0.00    +0.000 Cl
ATOM     12  C   UNL     1      -3.500  12.601  23.297  0.00  0.00    +0.000 A 
ATOM     13  C   UNL     1      -2.271  11.984  23.047  0.00  0.00    +0.000 A 
ENDBRANCH   4   7
BRANCH   4  14
ATOM     14  O   UNL     1       0.705  12.166  21.745  0.00  0.00    +0.000 OA
ATOM     15  H   UNL     1       0.533  12.547  22.625  0.00  0.00    +0.000 HD
ENDBRANCH   4  14
BRANCH   1  16
ATOM     16  C   UNL     1       1.933   7.848  20.187  0.00  0.00    +0.000 C 
BRANCH  16  17
ATOM     17  C   UNL     1       2.263   7.914  18.693  0.00  0.00    +0.000 C 
BRANCH  17  18
ATOM     18  C   UNL     1       3.272   6.823  18.280  0.00  0.00    +0.000 C 
BRANCH  18  19
ATOM     19  C   UNL     1       3.524   5.756  19.346  0.00  0.00    +0.000 C 
BRANCH  19  25
ATOM     20  C   UNL     1       2.931   3.597  17.999  0.00  0.00    +0.000 A 
ATOM     21  C   UNL     1       2.156   2.431  17.851  0.00  0.00    +0.000 A 
ATOM     22  C   UNL     1       1.146   2.116  18.752  0.00  0.00    +0.000 A 
ATOM     23  C   UNL     1       0.894   2.964  19.823  0.00  0.00    +0.000 A 
ATOM     24  C   UNL     1       1.661   4.114  19.981  0.00  0.00    +0.000 A 
ATOM     25  C   UNL     1       2.696   4.472  19.083  0.00  0.00    +0.000 A 
BRANCH  20  27
ATOM     26  N   UNL     1       4.760   4.061  16.213  0.00  0.00    +0.000 NA
ATOM     27  C   UNL     1       3.941   3.847  17.010  0.00  0.00    +0.000 C 
ENDBRANCH  20  27
ENDBRANCH  19  25
BRANCH  19  28
ATOM     28  C   UNL     1       4.999   5.398  19.410  0.00  0.00    +0.000 C 
ATOM     29  N   UNL     1       6.223   5.100  19.463  0.00  0.00    +0.000 NA
ENDBRANCH  19  28
ENDBRANCH  18  19
ENDBRANCH  17  18
ENDBRANCH  16  17
ENDBRANCH   1  16
TORSDOF 9
ENDMDL
MODEL 3
REMARK VINA RESULT:      -7.3      0.980      1.140
REMARK  Name = 
REMARK  9 active torsions:
REMARK  status: ('A' for Active; 'I' for Inactive)
REMARK    1  A    between atoms: C_2  and  C_3
REMARK    2  A    between atoms: C_8  and  C_9
REMARK    3  A    between atoms: C_9  and  C_10
REMARK    4  A    between atoms: C_9  and  C_12
REMARK    5  A    between atoms: C_12  and  C_13
REMARK    6  A    between atoms: C_13  and  C_14
REMARK    7  A    between atoms: C_14  and  N_15
REMARK    8  A    between atoms: C_18  and  O_19
REMARK    9  A    between atoms: C_18  and  C_20
REMARK                            x       y       z     vdW  Elec       q    Type
REMARK                         _______ _______ _______ _____ _____    ______ ____
ROOT
ATOM      1  N   UNL     1       0.508   9.026  20.702  0.00  0.00    +0.000 NA
ATOM      2  C   UNL     1       0.304  10.146  19.777  0.00  0.00    +0.000 C 
ATOM      3  C   UNL     1      -0.859  11.015  20.258  0.00  0.00    +0.000 C 
ATOM      4  C   UNL     1      -0.678  11.474  21.719  0.00  0.00    +0.000 C 
ATOM      5  C   UNL     1      -0.268  10.305  22.621  0.00  0.00    +0.000 C 
ATOM      6  C   UNL     1       0.898   9.534  22.026  0.00  0.00    +0.000 C 
ENDROOT
BRANCH   4   7
ATOM      7  C   UNL     1      -1.951  12.136  22.262  0.00  0.00    +0.000 A 
ATOM      8  C   UNL     1      -2.628  13.106  21.496  0.00  0.00    +0.000 A 
ATOM      9  C   UNL     1      -3.801  13.705  21.960  0.00  0.00    +0.000 A 
ATOM     10  C   UNL     1      -4.321  13.345  23.202  0.00  0.00    +0.000 A 
ATOM     11 CL   UNL     1      -5.764  14.074  23.774  0.00  0.00    +0.000 Cl
ATOM     12  C   UNL     1      -3.672  12.383  23.972  0.00  0.00    +0.000 A 
ATOM     13  C   UNL     1      -2.502  11.779  23.504  0.00  0.00    +0.000 A 
ENDBRANCH   4   7
BRANCH   4  14
ATOM     14  O   UNL     1       0.415  12.414  21.739  0.00  0.00    +0.000 OA
ATOM     15  H   UNL     1       0.670  12.536  22.672  0.00  0.00    +0.000 HD
ENDBRANCH   4  14
BRANCH   1  16
ATOM     16  C   UNL     1       1.464   8.057  20.156  0.00  0.00    +0.000 C 
BRANCH  16  17
ATOM     17  C   UNL     1       2.162   8.578  18.896  0.00  0.00    +0.000 C 
BRANCH  17  18
ATOM     18  C   UNL     1       2.341   7.470  17.840  0.00  0.00    +0.000 C 
BRANCH  18  19
ATOM     19  C   UNL     1       3.612   6.636  18.004  0.00  0.00    +0.000 C 
BRANCH  19  25
ATOM     20  C   UNL     1       4.187   4.264  18.937  0.00  0.00    +0.000 A 
ATOM     21  C   UNL     1       3.804   2.934  19.196  0.00  0.00    +0.000 A 
ATOM     22  C   UNL     1       2.553   2.457  18.825  0.00  0.00    +0.000 A 
ATOM     23  C   UNL     1       1.657   3.307  18.189  0.00  0.00    +0.000 A 
ATOM     24  C   UNL     1       2.024   4.625  17.937  0.00  0.00    +0.000 A 
ATOM     25  C   UNL     1       3.291   5.147  18.295  0.00  0.00    +0.000 A 
BRANCH  20  27
ATOM     26  N   UNL     1       6.573   4.994  19.663  0.00  0.00    +0.000 NA
ATOM     27  C   UNL     1       5.505   4.661  19.341  0.00  0.00    +0.000 C 
ENDBRANCH  20  27
ENDBRANCH  19  25
BRANCH  19  28
ATOM     28  C   UNL     1       4.480   6.729  16.760  0.00  0.00    +0.000 C 
ATOM     29  N   UNL     1       5.200   6.805  15.728  0.00  0.00    +0.000 NA
ENDBRANCH  19  28
ENDBRANCH  18  19
ENDBRANCH  17  18
ENDBRANCH  16  17
ENDBRANCH   1  16
TORSDOF 9
ENDMDL
MODEL 4
REMARK VINA RESULT:      -7.3      2.556      4.271
REMARK  Name = 
REMARK  9 active torsions:
REMARK  status: ('A' for Active; 'I' for Inactive)
REMARK    1  A    between atoms: C_2  and  C_3
REMARK    2  A    between atoms: C_8  and  C_9
REMARK    3  A    between atoms: C_9  and  C_10
REMARK    4  A    between atoms: C_9  and  C_12
REMARK    5  A    between atoms: C_12  and  C_13
REMARK    6  A    between atoms: C_13  and  C_14
REMARK    7  A    between atoms: C_14  and  N_15
REMARK    8  A    between atoms: C_18  and  O_19
REMARK    9  A    between atoms: C_18  and  C_20
REMARK                            x       y       z     vdW  Elec       q    Type
REMARK                         _______ _______ _______ _____ _____    ______ ____
ROOT
ATOM      1  N   UNL     1       1.942   7.503  19.402  0.00  0.00    +0.000 NA
ATOM      2  C   UNL     1       2.261   8.332  18.234  0.00  0.00    +0.000 C 
ATOM      3  C   UNL     1       1.009   9.070  17.760  0.00  0.00    +0.000 C 
ATOM      4  C   UNL     1       0.341   9.873  18.894  0.00  0.00    +0.000 C 
ATOM      5  C   UNL     1       0.206   9.028  20.166  0.00  0.00    +0.000 C 
ATOM      6  C   UNL     1       1.522   8.358  20.523  0.00  0.00    +0.000 C 
ENDROOT
BRANCH   4   7
ATOM      7  C   UNL     1      -1.033  10.408  18.470  0.00  0.00    +0.000 A 
ATOM      8  C   UNL     1      -1.674  11.402  19.235  0.00  0.00    +0.000 A 
ATOM      9  C   UNL     1      -2.915  11.920  18.856  0.00  0.00    +0.000 A 
ATOM     10  C   UNL     1      -3.540  11.452  17.702  0.00  0.00    +0.000 A 
ATOM     11 CL   UNL     1      -5.060  12.089  17.229  0.00  0.00    +0.000 Cl
ATOM     12  C   UNL     1      -2.920  10.475  16.926  0.00  0.00    +0.000 A 
ATOM     13  C   UNL     1      -1.675   9.962  17.302  0.00  0.00    +0.000 A 
ENDBRANCH   4   7
BRANCH   4  14
ATOM     14  O   UNL     1       1.220  10.969  19.217  0.00  0.00    +0.000 OA
ATOM     15  H   UNL     1       1.771  11.134  18.431  0.00  0.00    +0.000 HD
ENDBRANCH   4  14
BRANCH   1  16
ATOM     16  C   UNL     1       3.060   6.618  19.744  0.00  0.00    +0.000 C 
BRANCH  16  17
ATOM     17  C   UNL     1       2.709   5.140  19.553  0.00  0.00    +0.000 C 
BRANCH  17  18
ATOM     18  C   UNL     1       3.106   4.632  18.153  0.00  0.00    +0.000 C 
BRANCH  18  19
ATOM     19  C   UNL     1       4.414   3.841  18.113  0.00  0.00    +0.000 C 
BRANCH  19  25
ATOM     20  C   UNL     1       6.189   5.304  16.875  0.00  0.00    +0.000 A 
ATOM     21  C   UNL     1       7.295   6.175  16.925  0.00  0.00    +0.000 A 
ATOM     22  C   UNL     1       7.885   6.526  18.133  0.00  0.00    +0.000 A 
ATOM     23  C   UNL     1       7.374   6.013  19.319  0.00  0.00    +0.000 A 
ATOM     24  C   UNL     1       6.277   5.160  19.279  0.00  0.00    +0.000 A 
ATOM     25  C   UNL     1       5.651   4.774  18.069  0.00  0.00    +0.000 A 
BRANCH  20  27
ATOM     26  N   UNL     1       5.240   4.728  14.527  0.00  0.00    +0.000 NA
ATOM     27  C   UNL     1       5.659   4.986  15.581  0.00  0.00    +0.000 C 
ENDBRANCH  20  27
ENDBRANCH  19  25
BRANCH  19  28
ATOM     28  C   UNL     1       4.522   2.921  19.318  0.00  0.00    +0.000 C 
ATOM     29  N   UNL     1       4.613   2.158  20.318  0.00  0.00    +0.000 NA
ENDBRANCH  19  28
ENDBRANCH  18  19
ENDBRANCH  17  18
ENDBRANCH  16  17
ENDBRANCH   1  16
TORSDOF 9
ENDMDL
MODEL 5
REMARK VINA RESULT:      -7.2      3.247      4.591
REMARK  Name = 
REMARK  9 active torsions:
REMARK  status: ('A' for Active; 'I' for Inactive)
REMARK    1  A    between atoms: C_2  and  C_3
REMARK    2  A    between atoms: C_8  and  C_9
REMARK    3  A    between atoms: C_9  and  C_10
REMARK    4  A    between atoms: C_9  and  C_12
REMARK    5  A    between atoms: C_12  and  C_13
REMARK    6  A    between atoms: C_13  and  C_14
REMARK    7  A    between atoms: C_14  and  N_15
REMARK    8  A    between atoms: C_18  and  O_19
REMARK    9  A    between atoms: C_18  and  C_20
REMARK                            x       y       z     vdW  Elec       q    Type
REMARK                         _______ _______ _______ _____ _____    ______ ____
ROOT
ATOM      1  N   UNL     1       2.132   8.333  19.325  0.00  0.00    +0.000 NA
ATOM      2  C   UNL     1       0.970   8.750  20.118  0.00  0.00    +0.000 C 
ATOM      3  C   UNL     1       0.878  10.276  20.148  0.00  0.00    +0.000 C 
ATOM      4  C   UNL     1       0.883  10.888  18.733  0.00  0.00    +0.000 C 
ATOM      5  C   UNL     1       1.993  10.278  17.869  0.00  0.00    +0.000 C 
ATOM      6  C   UNL     1       1.964   8.760  17.928  0.00  0.00    +0.000 C 
ENDROOT
BRANCH   4   7
ATOM      7  C   UNL     1       1.033  12.414  18.780  0.00  0.00    +0.000 A 
ATOM      8  C   UNL     1       2.294  13.010  18.584  0.00  0.00    +0.000 A 
ATOM      9  C   UNL     1       2.451  14.398  18.601  0.00  0.00    +0.000 A 
ATOM     10  C   UNL     1       1.345  15.219  18.815  0.00  0.00    +0.000 A 
ATOM     11 CL   UNL     1       1.530  16.923  18.830  0.00  0.00    +0.000 Cl
ATOM     12  C   UNL     1       0.087  14.651  19.003  0.00  0.00    +0.000 A 
ATOM     13  C   UNL     1      -0.070  13.262  18.979  0.00  0.00    +0.000 A 
ENDBRANCH   4   7
BRANCH   4  14
ATOM     14  O   UNL     1      -0.367  10.533  18.109  0.00  0.00    +0.000 OA
ATOM     15  H   UNL     1      -1.001  11.244  18.315  0.00  0.00    +0.000 HD
ENDBRANCH   4  14
BRANCH   1  16
ATOM     16  C   UNL     1       2.375   6.894  19.460  0.00  0.00    +0.000 C 
BRANCH  16  17
ATOM     17  C   UNL     1       2.792   6.249  18.136  0.00  0.00    +0.000 C 
BRANCH  17  18
ATOM     18  C   UNL     1       2.521   4.732  18.126  0.00  0.00    +0.000 C 
BRANCH  18  19
ATOM     19  C   UNL     1       3.626   3.895  17.481  0.00  0.00    +0.000 C 
BRANCH  19  25
ATOM     20  C   UNL     1       5.954   4.793  16.704  0.00  0.00    +0.000 A 
ATOM     21  C   UNL     1       7.197   5.377  17.015  0.00  0.00    +0.000 A 
ATOM     22  C   UNL     1       7.548   5.674  18.325  0.00  0.00    +0.000 A 
ATOM     23  C   UNL     1       6.657   5.393  19.354  0.00  0.00    +0.000 A 
ATOM     24  C   UNL     1       5.424   4.823  19.054  0.00  0.00    +0.000 A 
ATOM     25  C   UNL     1       5.031   4.502  17.732  0.00  0.00    +0.000 A 
BRANCH  20  27
ATOM     26  N   UNL     1       5.478   4.266  14.205  0.00  0.00    +0.000 NA
ATOM     27  C   UNL     1       5.687   4.507  15.323  0.00  0.00    +0.000 C 
ENDBRANCH  20  27
ENDBRANCH  19  25
BRANCH  19  28
ATOM     28  C   UNL     1       3.595   2.468  18.003  0.00  0.00    +0.000 C 
ATOM     29  N   UNL     1       3.569   1.284  18.436  0.00  0.00    +0.000 NA
ENDBRANCH  19  28
ENDBRANCH  18  19
ENDBRANCH  17  18
ENDBRANCH  16  17
ENDBRANCH   1  16
TORSDOF 9
ENDMDL
MODEL 6
REMARK VINA RESULT:      -7.2      2.084      3.449
REMARK  Name = 
REMARK  9 active torsions:
REMARK  status: ('A' for Active; 'I' for Inactive)
REMARK    1  A    between atoms: C_2  and  C_3
REMARK    2  A    between atoms: C_8  and  C_9
REMARK    3  A    between atoms: C_9  and  C_10
REMARK    4  A    between atoms: C_9  and  C_12
REMARK    5  A    between atoms: C_12  and  C_13
REMARK    6  A    between atoms: C_13  and  C_14
REMARK    7  A    between atoms: C_14  and  N_15
REMARK    8  A    between atoms: C_18  and  O_19
REMARK    9  A    between atoms: C_18  and  C_20
REMARK                            x       y       z     vdW  Elec       q    Type
REMARK                         _______ _______ _______ _____ _____    ______ ____
ROOT
ATOM      1  N   UNL     1       1.506   8.122  19.220  0.00  0.00    +0.000 NA
ATOM      2  C   UNL     1       1.642   9.135  18.167  0.00  0.00    +0.000 C 
ATOM      3  C   UNL     1       0.370   9.979  18.088  0.00  0.00    +0.000 C 
ATOM      4  C   UNL     1      -0.012  10.587  19.452  0.00  0.00    +0.000 C 
ATOM      5  C   UNL     1       0.052   9.535  20.565  0.00  0.00    +0.000 C 
ATOM      6  C   UNL     1       1.368   8.776  20.529  0.00  0.00    +0.000 C 
ENDROOT
BRANCH   4   7
ATOM      7  C   UNL     1      -1.406  11.227  19.413  0.00  0.00    +0.000 A 
ATOM      8  C   UNL     1      -2.302  10.910  18.373  0.00  0.00    +0.000 A 
ATOM      9  C   UNL     1      -3.585  11.463  18.329  0.00  0.00    +0.000 A 
ATOM     10  C   UNL     1      -3.996  12.345  19.327  0.00  0.00    +0.000 A 
ATOM     11 CL   UNL     1      -5.570  13.021  19.281  0.00  0.00    +0.000 Cl
ATOM     12  C   UNL     1      -3.128  12.665  20.368  0.00  0.00    +0.000 A 
ATOM     13  C   UNL     1      -1.848  12.106  20.416  0.00  0.00    +0.000 A 
ENDBRANCH   4   7
BRANCH   4  14
ATOM     14  O   UNL     1       0.980  11.584  19.769  0.00  0.00    +0.000 OA
ATOM     15  H   UNL     1       1.533  11.699  18.975  0.00  0.00    +0.000 HD
ENDBRANCH   4  14
BRANCH   1  16
ATOM     16  C   UNL     1       2.611   7.160  19.173  0.00  0.00    +0.000 C 
BRANCH  16  17
ATOM     17  C   UNL     1       2.534   6.246  17.946  0.00  0.00    +0.000 C 
BRANCH  17  18
ATOM     18  C   UNL     1       2.591   4.756  18.336  0.00  0.00    +0.000 C 
BRANCH  18  19
ATOM     19  C   UNL     1       3.663   3.949  17.602  0.00  0.00    +0.000 C 
BRANCH  19  25
ATOM     20  C   UNL     1       5.979   4.824  16.766  0.00  0.00    +0.000 A 
ATOM     21  C   UNL     1       7.235   5.396  17.045  0.00  0.00    +0.000 A 
ATOM     22  C   UNL     1       7.623   5.688  18.346  0.00  0.00    +0.000 A 
ATOM     23  C   UNL     1       6.756   5.414  19.397  0.00  0.00    +0.000 A 
ATOM     24  C   UNL     1       5.510   4.858  19.129  0.00  0.00    +0.000 A 
ATOM     25  C   UNL     1       5.079   4.542  17.818  0.00  0.00    +0.000 A 
BRANCH  20  27
ATOM     26  N   UNL     1       5.427   4.303  14.281  0.00  0.00    +0.000 NA
ATOM     27  C   UNL     1       5.673   4.543  15.392  0.00  0.00    +0.000 C 
ENDBRANCH  20  27
ENDBRANCH  19  25
BRANCH  19  28
ATOM     28  C   UNL     1       3.650   2.500  18.057  0.00  0.00    +0.000 C 
ATOM     29  N   UNL     1       3.640   1.296  18.433  0.00  0.00    +0.000 NA
ENDBRANCH  19  28
ENDBRANCH  18  19
ENDBRANCH  17  18
ENDBRANCH  16  17
ENDBRANCH   1  16
TORSDOF 9
ENDMDL
MODEL 7
REMARK VINA RESULT:      -7.2      2.540      3.376
REMARK  Name = 
REMARK  9 active torsions:
REMARK  status: ('A' for Active; 'I' for Inactive)
REMARK    1  A    between atoms: C_2  and  C_3
REMARK    2  A    between atoms: C_8  and  C_9
REMARK    3  A    between atoms: C_9  and  C_10
REMARK    4  A    between atoms: C_9  and  C_12
REMARK    5  A    between atoms: C_12  and  C_13
REMARK    6  A    between atoms: C_13  and  C_14
REMARK    7  A    between atoms: C_14  and  N_15
REMARK    8  A    between atoms: C_18  and  O_19
REMARK    9  A    between atoms: C_18  and  C_20
REMARK                            x       y       z     vdW  Elec       q    Type
REMARK                         _______ _______ _______ _____ _____    ______ ____
ROOT
ATOM      1  N   UNL     1       1.857   7.778  19.276  0.00  0.00    +0.000 NA
ATOM      2  C   UNL     1       2.142   8.652  18.132  0.00  0.00    +0.000 C 
ATOM      3  C   UNL     1       0.858   9.345  17.673  0.00  0.00    +0.000 C 
ATOM      4  C   UNL     1       0.151  10.085  18.826  0.00  0.00    +0.000 C 
ATOM      5  C   UNL     1       0.052   9.200  20.074  0.00  0.00    +0.000 C 
ATOM      6  C   UNL     1       1.396   8.581  20.417  0.00  0.00    +0.000 C 
ENDROOT
BRANCH   4   7
ATOM      7  C   UNL     1      -1.244  10.569  18.412  0.00  0.00    +0.000 A 
ATOM      8  C   UNL     1      -1.953  11.472  19.228  0.00  0.00    +0.000 A 
ATOM      9  C   UNL     1      -3.216  11.944  18.860  0.00  0.00    +0.000 A 
ATOM     10  C   UNL     1      -3.794  11.520  17.665  0.00  0.00    +0.000 A 
ATOM     11 CL   UNL     1      -5.340  12.100  17.205  0.00  0.00    +0.000 Cl
ATOM     12  C   UNL     1      -3.107  10.633  16.839  0.00  0.00    +0.000 A 
ATOM     13  C   UNL     1      -1.841  10.168  17.205  0.00  0.00    +0.000 A 
ENDBRANCH   4   7
BRANCH   4  14
ATOM     14  O   UNL     1       0.979  11.211  19.184  0.00  0.00    +0.000 OA
ATOM     15  H   UNL     1       1.159  11.141  20.139  0.00  0.00    +0.000 HD
ENDBRANCH   4  14
BRANCH   1  16
ATOM     16  C   UNL     1       3.013   6.935  19.597  0.00  0.00    +0.000 C 
BRANCH  16  17
ATOM     17  C   UNL     1       3.791   6.516  18.346  0.00  0.00    +0.000 C 
BRANCH  17  18
ATOM     18  C   UNL     1       4.975   5.591  18.691  0.00  0.00    +0.000 C 
BRANCH  18  19
ATOM     19  C   UNL     1       4.880   4.188  18.090  0.00  0.00    +0.000 C 
BRANCH  19  25
ATOM     20  C   UNL     1       3.289   2.603  19.427  0.00  0.00    +0.000 A 
ATOM     21  C   UNL     1       2.002   2.077  19.648  0.00  0.00    +0.000 A 
ATOM     22  C   UNL     1       0.925   2.442  18.850  0.00  0.00    +0.000 A 
ATOM     23  C   UNL     1       1.117   3.348  17.813  0.00  0.00    +0.000 A 
ATOM     24  C   UNL     1       2.384   3.879  17.594  0.00  0.00    +0.000 A 
ATOM     25  C   UNL     1       3.507   3.529  18.382  0.00  0.00    +0.000 A 
BRANCH  20  27
ATOM     26  N   UNL     1       5.188   1.791  21.004  0.00  0.00    +0.000 NA
ATOM     27  C   UNL     1       4.342   2.154  20.292  0.00  0.00    +0.000 C 
ENDBRANCH  20  27
ENDBRANCH  19  25
BRANCH  19  28
ATOM     28  C   UNL     1       5.107   4.230  16.588  0.00  0.00    +0.000 C 
ATOM     29  N   UNL     1       5.295   4.266  15.342  0.00  0.00    +0.000 NA
ENDBRANCH  19  28
ENDBRANCH  18  19
ENDBRANCH  17  18
ENDBRANCH  16  17
ENDBRANCH   1  16
TORSDOF 9
ENDMDL
MODEL 8
REMARK VINA RESULT:      -7.2      3.282      4.489
REMARK  Name = 
REMARK  9 active torsions:
REMARK  status: ('A' for Active; 'I' for Inactive)
REMARK    1  A    between atoms: C_2  and  C_3
REMARK    2  A    between atoms: C_8  and  C_9
REMARK    3  A    between atoms: C_9  and  C_10
REMARK    4  A    between atoms: C_9  and  C_12
REMARK    5  A    between atoms: C_12  and  C_13
REMARK    6  A    between atoms: C_13  and  C_14
REMARK    7  A    between atoms: C_14  and  N_15
REMARK    8  A    between atoms: C_18  and  O_19
REMARK    9  A    between atoms: C_18  and  C_20
REMARK                            x       y       z     vdW  Elec       q    Type
REMARK                         _______ _______ _______ _____ _____    ______ ____
ROOT
ATOM      1  N   UNL     1       1.884   8.603  19.663  0.00  0.00    +0.000 NA
ATOM      2  C   UNL     1       0.715   9.188  20.329  0.00  0.00    +0.000 C 
ATOM      3  C   UNL     1       0.755  10.712  20.213  0.00  0.00    +0.000 C 
ATOM      4  C   UNL     1       0.903  11.181  18.752  0.00  0.00    +0.000 C 
ATOM      5  C   UNL     1       2.008  10.402  18.029  0.00  0.00    +0.000 C 
ATOM      6  C   UNL     1       1.842   8.905  18.224  0.00  0.00    +0.000 C 
ENDROOT
BRANCH   4   7
ATOM      7  C   UNL     1       1.183  12.688  18.670  0.00  0.00    +0.000 A 
ATOM      8  C   UNL     1       0.179  13.615  19.013  0.00  0.00    +0.000 A 
ATOM      9  C   UNL     1       0.418  14.991  18.968  0.00  0.00    +0.000 A 
ATOM     10  C   UNL     1       1.669  15.466  18.579  0.00  0.00    +0.000 A 
ATOM     11 CL   UNL     1       1.970  17.153  18.528  0.00  0.00    +0.000 Cl
ATOM     12  C   UNL     1       2.678  14.567  18.243  0.00  0.00    +0.000 A 
ATOM     13  C   UNL     1       2.441  13.190  18.295  0.00  0.00    +0.000 A 
ENDBRANCH   4   7
BRANCH   4  14
ATOM     14  O   UNL     1      -0.331  10.870  18.075  0.00  0.00    +0.000 OA
ATOM     15  H   UNL     1      -1.021  11.438  18.464  0.00  0.00    +0.000 HD
ENDBRANCH   4  14
BRANCH   1  16
ATOM     16  C   UNL     1       1.990   7.169  19.945  0.00  0.00    +0.000 C 
BRANCH  16  17
ATOM     17  C   UNL     1       2.732   6.413  18.840  0.00  0.00    +0.000 C 
BRANCH  17  18
ATOM     18  C   UNL     1       3.802   5.463  19.413  0.00  0.00    +0.000 C 
BRANCH  18  19
ATOM     19  C   UNL     1       4.011   4.182  18.604  0.00  0.00    +0.000 C 
BRANCH  19  25
ATOM     20  C   UNL     1       6.366   4.813  17.664  0.00  0.00    +0.000 A 
ATOM     21  C   UNL     1       7.245   4.939  16.570  0.00  0.00    +0.000 A 
ATOM     22  C   UNL     1       6.831   4.655  15.275  0.00  0.00    +0.000 A 
ATOM     23  C   UNL     1       5.525   4.236  15.049  0.00  0.00    +0.000 A 
ATOM     24  C   UNL     1       4.654   4.101  16.124  0.00  0.00    +0.000 A 
ATOM     25  C   UNL     1       5.036   4.385  17.458  0.00  0.00    +0.000 A 
BRANCH  20  27
ATOM     26  N   UNL     1       7.289   5.425  20.014  0.00  0.00    +0.000 NA
ATOM     27  C   UNL     1       6.878   5.145  18.962  0.00  0.00    +0.000 C 
ENDBRANCH  20  27
ENDBRANCH  19  25
BRANCH  19  28
ATOM     28  C   UNL     1       4.480   3.049  19.502  0.00  0.00    +0.000 C 
ATOM     29  N   UNL     1       4.869   2.110  20.248  0.00  0.00    +0.000 NA
ENDBRANCH  19  28
ENDBRANCH  18  19
ENDBRANCH  17  18
ENDBRANCH  16  17
ENDBRANCH   1  16
TORSDOF 9
ENDMDL
MODEL 9
REMARK VINA RESULT:      -7.2      1.550      2.376
REMARK  Name = 
REMARK  9 active torsions:
REMARK  status: ('A' for Active; 'I' for Inactive)
REMARK    1  A    between atoms: C_2  and  C_3
REMARK    2  A    between atoms: C_8  and  C_9
REMARK    3  A    between atoms: C_9  and  C_10
REMARK    4  A    between atoms: C_9  and  C_12
REMARK    5  A    between atoms: C_12  and  C_13
REMARK    6  A    between atoms: C_13  and  C_14
REMARK    7  A    between atoms: C_14  and  N_15
REMARK    8  A    between atoms: C_18  and  O_19
REMARK    9  A    between atoms: C_18  and  C_20
REMARK                            x       y       z     vdW  Elec       q    Type
REMARK                         _______ _______ _______ _____ _____    ______ ____
ROOT
ATOM      1  N   UNL     1       1.002   8.476  20.483  0.00  0.00    +0.000 NA
ATOM      2  C   UNL     1       1.000   9.638  19.588  0.00  0.00    +0.000 C 
ATOM      3  C   UNL     1      -0.175  10.557  19.927  0.00  0.00    +0.000 C 
ATOM      4  C   UNL     1      -0.193  10.954  21.416  0.00  0.00    +0.000 C 
ATOM      5  C   UNL     1       0.012   9.731  22.318  0.00  0.00    +0.000 C 
ATOM      6  C   UNL     1       1.212   8.914  21.871  0.00  0.00    +0.000 C 
ENDROOT
BRANCH   4   7
ATOM      7  C   UNL     1      -1.497  11.670  21.791  0.00  0.00    +0.000 A 
ATOM      8  C   UNL     1      -1.946  11.674  23.126  0.00  0.00    +0.000 A 
ATOM      9  C   UNL     1      -3.119  12.339  23.494  0.00  0.00    +0.000 A 
ATOM     10  C   UNL     1      -3.866  13.015  22.531  0.00  0.00    +0.000 A 
ATOM     11 CL   UNL     1      -5.302  13.837  22.978  0.00  0.00    +0.000 Cl
ATOM     12  C   UNL     1      -3.436  13.030  21.206  0.00  0.00    +0.000 A 
ATOM     13  C   UNL     1      -2.259  12.370  20.840  0.00  0.00    +0.000 A 
ENDBRANCH   4   7
BRANCH   4  14
ATOM     14  O   UNL     1       0.932  11.826  21.641  0.00  0.00    +0.000 OA
ATOM     15  H   UNL     1       1.126  11.803  22.595  0.00  0.00    +0.000 HD
ENDBRANCH   4  14
BRANCH   1  16
ATOM     16  C   UNL     1       1.976   7.473  20.044  0.00  0.00    +0.000 C 
BRANCH  16  17
ATOM     17  C   UNL     1       2.395   7.670  18.585  0.00  0.00    +0.000 C 
BRANCH  17  18
ATOM     18  C   UNL     1       3.553   6.733  18.189  0.00  0.00    +0.000 C 
BRANCH  18  19
ATOM     19  C   UNL     1       3.831   5.611  19.189  0.00  0.00    +0.000 C 
BRANCH  19  25
ATOM     20  C   UNL     1       2.583   3.347  19.570  0.00  0.00    +0.000 A 
ATOM     21  C   UNL     1       2.044   2.153  19.052  0.00  0.00    +0.000 A 
ATOM     22  C   UNL     1       2.152   1.837  17.704  0.00  0.00    +0.000 A 
ATOM     23  C   UNL     1       2.800   2.716  16.844  0.00  0.00    +0.000 A 
ATOM     24  C   UNL     1       3.327   3.901  17.346  0.00  0.00    +0.000 A 
ATOM     25  C   UNL     1       3.242   4.257  18.715  0.00  0.00    +0.000 A 
BRANCH  20  27
ATOM     26  N   UNL     1       2.323   3.778  22.119  0.00  0.00    +0.000 NA
ATOM     27  C   UNL     1       2.437   3.578  20.979  0.00  0.00    +0.000 C 
ENDBRANCH  20  27
ENDBRANCH  19  25
BRANCH  19  28
ATOM     28  C   UNL     1       5.325   5.454  19.421  0.00  0.00    +0.000 C 
ATOM     29  N   UNL     1       6.564   5.326  19.613  0.00  0.00    +0.000 NA
ENDBRANCH  19  28
ENDBRANCH  18  19
ENDBRANCH  17  18
ENDBRANCH  16  17
ENDBRANCH   1  16
TORSDOF 9
ENDMDL
