MODEL 1
REMARK VINA RESULT:      -6.5      0.000      0.000
REMARK  Name = 
REMARK  7 active torsions:
REMARK  status: ('A' for Active; 'I' for Inactive)
REMARK    1  A    between atoms: C_2  and  C_3
REMARK    2  A    between atoms: C_3  and  C_17
REMARK    3  A    between atoms: C_4  and  O_5
REMARK    4  A    between atoms: C_4  and  C_6
REMARK    5  A    between atoms: C_8  and  O_9
REMARK    6  A    between atoms: C_10  and  O_11
REMARK    7  A    between atoms: C_12  and  N_13
REMARK                            x       y       z     vdW  Elec       q    Type
REMARK                         _______ _______ _______ _____ _____    ______ ____
ROOT
ATOM      1  C   UNL     1       2.939   5.742  19.237  0.00  0.00    +0.000 A 
ATOM      2  C   UNL     1       2.244   4.874  18.377  0.00  0.00    +0.000 A 
ATOM      3  C   UNL     1       2.957   3.988  17.565  0.00  0.00    +0.000 A 
ATOM      4  C   UNL     1       4.349   3.957  17.577  0.00  0.00    +0.000 A 
ATOM      5  C   UNL     1       5.030   4.834  18.415  0.00  0.00    +0.000 A 
ATOM      6  C   UNL     1       4.341   5.724  19.249  0.00  0.00    +0.000 A 
ENDROOT
BRANCH   5   7
ATOM      7  N   UNL     1       6.476   4.826  18.462  0.00  0.00    +0.000 N 
ATOM      8  O   UNL     1       7.086   4.649  17.398  0.00  0.00    +0.000 OA
ATOM      9  O   UNL     1       6.998   5.084  19.556  0.00  0.00    +0.000 OA
ENDBRANCH   5   7
BRANCH   1  11
ATOM     10  C   UNL     1       1.828   7.887  19.814  0.00  0.00    +0.000 C 
ATOM     11  C   UNL     1       2.217   6.637  20.165  0.00  0.00    +0.000 C 
BRANCH  10  12
ATOM     12  C   UNL     1       1.098   8.725  20.719  0.00  0.00    +0.000 A 
ATOM     13  N   UNL     1       1.189   8.689  22.043  0.00  0.00    +0.000 NA
ATOM     14  C   UNL     1       0.354   9.632  22.617  0.00  0.00    +0.000 A 
ATOM     15  C   UNL     1      -0.376  10.395  21.737  0.00  0.00    +0.000 A 
ATOM     16  S   UNL     1      -0.027   9.918  20.138  0.00  0.00    +0.000 S 
ENDBRANCH  10  12
BRANCH  10  18
ATOM     17  N   UNL     1       2.489   8.813  17.276  0.00  0.00    +0.000 NA
ATOM     18  C   UNL     1       2.189   8.393  18.426  0.00  0.00    +0.000 C 
ENDBRANCH  10  18
BRANCH  11  19
ATOM     19  O   UNL     1       1.964   6.044  21.386  0.00  0.00    +0.000 OA
ATOM     20  H   UNL     1       1.367   5.275  21.244  0.00  0.00    +0.000 HD
ENDBRANCH  11  19
ENDBRANCH   1  11
BRANCH   3  21
ATOM     21  O   UNL     1       2.322   3.101  16.735  0.00  0.00    +0.000 OA
ATOM     22  H   UNL     1       1.905   3.593  16.005  0.00  0.00    +0.000 HD
ENDBRANCH   3  21
BRANCH   4  23
ATOM     23  O   UNL     1       4.995   3.045  16.790  0.00  0.00    +0.000 OA
ATOM     24  H   UNL     1       5.181   3.507  15.948  0.00  0.00    +0.000 HD
ENDBRANCH   4  23
TORSDOF 7
ENDMDL
MODEL 2
REMARK VINA RESULT:      -6.4      3.809      5.429
REMARK  Name = 
REMARK  7 active torsions:
REMARK  status: ('A' for Active; 'I' for Inactive)
REMARK    1  A    between atoms: C_2  and  C_3
REMARK    2  A    between atoms: C_3  and  C_17
REMARK    3  A    between atoms: C_4  and  O_5
REMARK    4  A    between atoms: C_4  and  C_6
REMARK    5  A    between atoms: C_8  and  O_9
REMARK    6  A    between atoms: C_10  and  O_11
REMARK    7  A    between atoms: C_12  and  N_13
REMARK                            x       y       z     vdW  Elec       q    Type
REMARK                         _______ _______ _______ _____ _____    ______ ____
ROOT
ATOM      1  C   UNL     1       5.219   4.013  16.445  0.00  0.00    +0.000 A 
ATOM      2  C   UNL     1       6.147   5.004  16.808  0.00  0.00    +0.000 A 
ATOM      3  C   UNL     1       7.009   5.531  15.843  0.00  0.00    +0.000 A 
ATOM      4  C   UNL     1       6.980   5.082  14.525  0.00  0.00    +0.000 A 
ATOM      5  C   UNL     1       6.073   4.086  14.178  0.00  0.00    +0.000 A 
ATOM      6  C   UNL     1       5.188   3.548  15.122  0.00  0.00    +0.000 A 
ENDROOT
BRANCH   5   7
ATOM      7  N   UNL     1       6.006   3.599  12.817  0.00  0.00    +0.000 N 
ATOM      8  O   UNL     1       4.884   3.442  12.316  0.00  0.00    +0.000 OA
ATOM      9  O   UNL     1       7.085   3.456  12.225  0.00  0.00    +0.000 OA
ENDBRANCH   5   7
BRANCH   1  11
ATOM     10  C   UNL     1       3.362   4.291  18.070  0.00  0.00    +0.000 C 
ATOM     11  C   UNL     1       4.242   3.489  17.421  0.00  0.00    +0.000 C 
BRANCH  10  12
ATOM     12  C   UNL     1       2.399   3.756  18.987  0.00  0.00    +0.000 A 
ATOM     13  N   UNL     1       1.458   2.870  18.685  0.00  0.00    +0.000 NA
ATOM     14  C   UNL     1       0.700   2.561  19.800  0.00  0.00    +0.000 A 
ATOM     15  C   UNL     1       1.058   3.204  20.961  0.00  0.00    +0.000 A 
ATOM     16  S   UNL     1       2.376   4.242  20.658  0.00  0.00    +0.000 S 
ENDBRANCH  10  12
BRANCH  10  18
ATOM     17  N   UNL     1       3.467   7.028  17.591  0.00  0.00    +0.000 NA
ATOM     18  C   UNL     1       3.419   5.787  17.808  0.00  0.00    +0.000 C 
ENDBRANCH  10  18
BRANCH  11  19
ATOM     19  O   UNL     1       4.310   2.117  17.559  0.00  0.00    +0.000 OA
ATOM     20  H   UNL     1       4.340   1.899  18.518  0.00  0.00    +0.000 HD
ENDBRANCH  11  19
ENDBRANCH   1  11
BRANCH   3  21
ATOM     21  O   UNL     1       7.908   6.521  16.143  0.00  0.00    +0.000 OA
ATOM     22  H   UNL     1       8.435   6.248  16.915  0.00  0.00    +0.000 HD
ENDBRANCH   3  21
BRANCH   4  23
ATOM     23  O   UNL     1       7.819   5.658  13.613  0.00  0.00    +0.000 OA
ATOM     24  H   UNL     1       8.613   5.927  14.118  0.00  0.00    +0.000 HD
ENDBRANCH   4  23
TORSDOF 7
ENDMDL
MODEL 3
REMARK VINA RESULT:      -6.1      1.993      2.445
REMARK  Name = 
REMARK  7 active torsions:
REMARK  status: ('A' for Active; 'I' for Inactive)
REMARK    1  A    between atoms: C_2  and  C_3
REMARK    2  A    between atoms: C_3  and  C_17
REMARK    3  A    between atoms: C_4  and  O_5
REMARK    4  A    between atoms: C_4  and  C_6
REMARK    5  A    between atoms: C_8  and  O_9
REMARK    6  A    between atoms: C_10  and  O_11
REMARK    7  A    between atoms: C_12  and  N_13
REMARK                            x       y       z     vdW  Elec       q    Type
REMARK                         _______ _______ _______ _____ _____    ______ ____
ROOT
ATOM      1  C   UNL     1       3.451   6.464  17.763  0.00  0.00    +0.000 A 
ATOM      2  C   UNL     1       2.906   5.170  17.684  0.00  0.00    +0.000 A 
ATOM      3  C   UNL     1       3.700   4.112  17.235  0.00  0.00    +0.000 A 
ATOM      4  C   UNL     1       5.022   4.314  16.846  0.00  0.00    +0.000 A 
ATOM      5  C   UNL     1       5.547   5.600  16.907  0.00  0.00    +0.000 A 
ATOM      6  C   UNL     1       4.779   6.678  17.365  0.00  0.00    +0.000 A 
ENDROOT
BRANCH   5   7
ATOM      7  N   UNL     1       6.919   5.849  16.520  0.00  0.00    +0.000 N 
ATOM      8  O   UNL     1       7.691   6.287  17.384  0.00  0.00    +0.000 OA
ATOM      9  O   UNL     1       7.239   5.523  15.368  0.00  0.00    +0.000 OA
ENDBRANCH   5   7
BRANCH   1  11
ATOM     10  C   UNL     1       2.064   7.539  19.520  0.00  0.00    +0.000 C 
ATOM     11  C   UNL     1       2.665   7.591  18.306  0.00  0.00    +0.000 C 
BRANCH  10  12
ATOM     12  C   UNL     1       1.335   8.658  20.041  0.00  0.00    +0.000 A 
ATOM     13  N   UNL     1       0.759   9.607  19.314  0.00  0.00    +0.000 NA
ATOM     14  C   UNL     1       0.134  10.535  20.127  0.00  0.00    +0.000 A 
ATOM     15  C   UNL     1       0.224  10.300  21.479  0.00  0.00    +0.000 A 
ATOM     16  S   UNL     1       1.130   8.883  21.754  0.00  0.00    +0.000 S 
ENDBRANCH  10  12
BRANCH  10  18
ATOM     17  N   UNL     1       2.265   5.190  20.995  0.00  0.00    +0.000 NA
ATOM     18  C   UNL     1       2.174   6.255  20.326  0.00  0.00    +0.000 C 
ENDBRANCH  10  18
BRANCH  11  19
ATOM     19  O   UNL     1       2.650   8.684  17.462  0.00  0.00    +0.000 OA
ATOM     20  H   UNL     1       3.486   9.188  17.588  0.00  0.00    +0.000 HD
ENDBRANCH  11  19
ENDBRANCH   1  11
BRANCH   3  21
ATOM     21  O   UNL     1       3.222   2.829  17.171  0.00  0.00    +0.000 OA
ATOM     22  H   UNL     1       2.767   2.702  16.319  0.00  0.00    +0.000 HD
ENDBRANCH   3  21
BRANCH   4  23
ATOM     23  O   UNL     1       5.765   3.237  16.450  0.00  0.00    +0.000 OA
ATOM     24  H   UNL     1       5.308   2.453  16.816  0.00  0.00    +0.000 HD
ENDBRANCH   4  23
TORSDOF 7
ENDMDL
MODEL 4
REMARK VINA RESULT:      -6.0      3.644      4.567
REMARK  Name = 
REMARK  7 active torsions:
REMARK  status: ('A' for Active; 'I' for Inactive)
REMARK    1  A    between atoms: C_2  and  C_3
REMARK    2  A    between atoms: C_3  and  C_17
REMARK    3  A    between atoms: C_4  and  O_5
REMARK    4  A    between atoms: C_4  and  C_6
REMARK    5  A    between atoms: C_8  and  O_9
REMARK    6  A    between atoms: C_10  and  O_11
REMARK    7  A    between atoms: C_12  and  N_13
REMARK                            x       y       z     vdW  Elec       q    Type
REMARK                         _______ _______ _______ _____ _____    ______ ____
ROOT
ATOM      1  C   UNL     1       5.357   4.169  17.918  0.00  0.00    +0.000 A 
ATOM      2  C   UNL     1       5.419   3.617  16.627  0.00  0.00    +0.000 A 
ATOM      3  C   UNL     1       6.258   4.191  15.669  0.00  0.00    +0.000 A 
ATOM      4  C   UNL     1       7.027   5.315  15.961  0.00  0.00    +0.000 A 
ATOM      5  C   UNL     1       6.944   5.869  17.234  0.00  0.00    +0.000 A 
ATOM      6  C   UNL     1       6.121   5.306  18.219  0.00  0.00    +0.000 A 
ENDROOT
BRANCH   5   7
ATOM      7  N   UNL     1       7.733   7.031  17.580  0.00  0.00    +0.000 N 
ATOM      8  O   UNL     1       7.687   8.006  16.817  0.00  0.00    +0.000 OA
ATOM      9  O   UNL     1       8.333   6.993  18.664  0.00  0.00    +0.000 OA
ENDBRANCH   5   7
BRANCH   1  11
ATOM     10  C   UNL     1       3.357   4.061  19.386  0.00  0.00    +0.000 C 
ATOM     11  C   UNL     1       4.541   3.542  18.978  0.00  0.00    +0.000 C 
BRANCH  10  12
ATOM     12  C   UNL     1       2.566   3.416  20.392  0.00  0.00    +0.000 A 
ATOM     13  N   UNL     1       3.032   2.894  21.520  0.00  0.00    +0.000 NA
ATOM     14  C   UNL     1       2.003   2.353  22.271  0.00  0.00    +0.000 A 
ATOM     15  C   UNL     1       0.746   2.462  21.725  0.00  0.00    +0.000 A 
ATOM     16  S   UNL     1       0.843   3.250  20.217  0.00  0.00    +0.000 S 
ENDBRANCH  10  12
BRANCH  10  18
ATOM     17  N   UNL     1       2.485   6.434  18.229  0.00  0.00    +0.000 NA
ATOM     18  C   UNL     1       2.880   5.358  18.753  0.00  0.00    +0.000 C 
ENDBRANCH  10  18
BRANCH  11  19
ATOM     19  O   UNL     1       5.102   2.376  19.461  0.00  0.00    +0.000 OA
ATOM     20  H   UNL     1       5.185   2.449  20.438  0.00  0.00    +0.000 HD
ENDBRANCH  11  19
ENDBRANCH   1  11
BRANCH   3  21
ATOM     21  O   UNL     1       6.375   3.669  14.407  0.00  0.00    +0.000 OA
ATOM     22  H   UNL     1       6.325   2.698  14.460  0.00  0.00    +0.000 HD
ENDBRANCH   3  21
BRANCH   4  23
ATOM     23  O   UNL     1       7.858   5.814  14.998  0.00  0.00    +0.000 OA
ATOM     24  H   UNL     1       7.340   5.800  14.168  0.00  0.00    +0.000 HD
ENDBRANCH   4  23
TORSDOF 7
ENDMDL
MODEL 5
REMARK VINA RESULT:      -5.9      4.161      5.573
REMARK  Name = 
REMARK  7 active torsions:
REMARK  status: ('A' for Active; 'I' for Inactive)
REMARK    1  A    between atoms: C_2  and  C_3
REMARK    2  A    between atoms: C_3  and  C_17
REMARK    3  A    between atoms: C_4  and  O_5
REMARK    4  A    between atoms: C_4  and  C_6
REMARK    5  A    between atoms: C_8  and  O_9
REMARK    6  A    between atoms: C_10  and  O_11
REMARK    7  A    between atoms: C_12  and  N_13
REMARK                            x       y       z     vdW  Elec       q    Type
REMARK                         _______ _______ _______ _____ _____    ______ ____
ROOT
ATOM      1  C   UNL     1       4.868   4.276  16.365  0.00  0.00    +0.000 A 
ATOM      2  C   UNL     1       5.850   5.202  16.760  0.00  0.00    +0.000 A 
ATOM      3  C   UNL     1       6.829   5.603  15.848  0.00  0.00    +0.000 A 
ATOM      4  C   UNL     1       6.864   5.092  14.553  0.00  0.00    +0.000 A 
ATOM      5  C   UNL     1       5.902   4.161  14.175  0.00  0.00    +0.000 A 
ATOM      6  C   UNL     1       4.901   3.749  15.065  0.00  0.00    +0.000 A 
ENDROOT
BRANCH   5   7
ATOM      7  N   UNL     1       5.899   3.613  12.836  0.00  0.00    +0.000 N 
ATOM      8  O   UNL     1       6.987   3.269  12.353  0.00  0.00    +0.000 OA
ATOM      9  O   UNL     1       4.792   3.450  12.305  0.00  0.00    +0.000 OA
ENDBRANCH   5   7
BRANCH   1  11
ATOM     10  C   UNL     1       3.883   3.985  18.625  0.00  0.00    +0.000 C 
ATOM     11  C   UNL     1       3.774   3.888  17.278  0.00  0.00    +0.000 C 
BRANCH  10  12
ATOM     12  C   UNL     1       2.795   3.636  19.491  0.00  0.00    +0.000 A 
ATOM     13  N   UNL     1       1.522   3.956  19.293  0.00  0.00    +0.000 NA
ATOM     14  C   UNL     1       0.729   3.460  20.313  0.00  0.00    +0.000 A 
ATOM     15  C   UNL     1       1.388   2.756  21.292  0.00  0.00    +0.000 A 
ATOM     16  S   UNL     1       3.057   2.718  20.945  0.00  0.00    +0.000 S 
ENDBRANCH  10  12
BRANCH  10  18
ATOM     17  N   UNL     1       6.290   4.878  19.695  0.00  0.00    +0.000 NA
ATOM     18  C   UNL     1       5.199   4.473  19.210  0.00  0.00    +0.000 C 
ENDBRANCH  10  18
BRANCH  11  19
ATOM     19  O   UNL     1       2.646   3.461  16.605  0.00  0.00    +0.000 OA
ATOM     20  H   UNL     1       2.923   3.063  15.749  0.00  0.00    +0.000 HD
ENDBRANCH  11  19
ENDBRANCH   1  11
BRANCH   3  21
ATOM     21  O   UNL     1       7.786   6.527  16.178  0.00  0.00    +0.000 OA
ATOM     22  H   UNL     1       7.768   7.249  15.525  0.00  0.00    +0.000 HD
ENDBRANCH   3  21
BRANCH   4  23
ATOM     23  O   UNL     1       7.821   5.547  13.690  0.00  0.00    +0.000 OA
ATOM     24  H   UNL     1       8.671   5.457  14.166  0.00  0.00    +0.000 HD
ENDBRANCH   4  23
TORSDOF 7
ENDMDL
MODEL 6
REMARK VINA RESULT:      -5.9      3.806      5.357
REMARK  Name = 
REMARK  7 active torsions:
REMARK  status: ('A' for Active; 'I' for Inactive)
REMARK    1  A    between atoms: C_2  and  C_3
REMARK    2  A    between atoms: C_3  and  C_17
REMARK    3  A    between atoms: C_4  and  O_5
REMARK    4  A    between atoms: C_4  and  C_6
REMARK    5  A    between atoms: C_8  and  O_9
REMARK    6  A    between atoms: C_10  and  O_11
REMARK    7  A    between atoms: C_12  and  N_13
REMARK                            x       y       z     vdW  Elec       q    Type
REMARK                         _______ _______ _______ _____ _____    ______ ____
ROOT
ATOM      1  C   UNL     1       5.259   3.960  16.619  0.00  0.00    +0.000 A 
ATOM      2  C   UNL     1       6.209   4.954  16.908  0.00  0.00    +0.000 A 
ATOM      3  C   UNL     1       6.984   5.491  15.877  0.00  0.00    +0.000 A 
ATOM      4  C   UNL     1       6.845   5.050  14.563  0.00  0.00    +0.000 A 
ATOM      5  C   UNL     1       5.917   4.051  14.288  0.00  0.00    +0.000 A 
ATOM      6  C   UNL     1       5.118   3.503  15.301  0.00  0.00    +0.000 A 
ENDROOT
BRANCH   5   7
ATOM      7  N   UNL     1       5.737   3.572  12.935  0.00  0.00    +0.000 N 
ATOM      8  O   UNL     1       6.730   3.122  12.346  0.00  0.00    +0.000 OA
ATOM      9  O   UNL     1       4.578   3.570  12.496  0.00  0.00    +0.000 OA
ENDBRANCH   5   7
BRANCH   1  11
ATOM     10  C   UNL     1       3.533   4.216  18.386  0.00  0.00    +0.000 C 
ATOM     11  C   UNL     1       4.370   3.425  17.671  0.00  0.00    +0.000 C 
BRANCH  10  12
ATOM     12  C   UNL     1       2.655   3.670  19.379  0.00  0.00    +0.000 A 
ATOM     13  N   UNL     1       3.035   3.144  20.537  0.00  0.00    +0.000 NA
ATOM     14  C   UNL     1       1.938   2.715  21.263  0.00  0.00    +0.000 A 
ATOM     15  C   UNL     1       0.715   2.913  20.668  0.00  0.00    +0.000 A 
ATOM     16  S   UNL     1       0.931   3.646  19.144  0.00  0.00    +0.000 S 
ENDBRANCH  10  12
BRANCH  10  18
ATOM     17  N   UNL     1       3.559   6.953  17.894  0.00  0.00    +0.000 NA
ATOM     18  C   UNL     1       3.547   5.713  18.117  0.00  0.00    +0.000 C 
ENDBRANCH  10  18
BRANCH  11  19
ATOM     19  O   UNL     1       4.470   2.054  17.805  0.00  0.00    +0.000 OA
ATOM     20  H   UNL     1       5.333   1.765  17.434  0.00  0.00    +0.000 HD
ENDBRANCH  11  19
ENDBRANCH   1  11
BRANCH   3  21
ATOM     21  O   UNL     1       7.900   6.484  16.106  0.00  0.00    +0.000 OA
ATOM     22  H   UNL     1       7.573   7.314  15.715  0.00  0.00    +0.000 HD
ENDBRANCH   3  21
BRANCH   4  23
ATOM     23  O   UNL     1       7.601   5.636  13.587  0.00  0.00    +0.000 OA
ATOM     24  H   UNL     1       7.653   6.583  13.827  0.00  0.00    +0.000 HD
ENDBRANCH   4  23
TORSDOF 7
ENDMDL
MODEL 7
REMARK VINA RESULT:      -5.8      3.562      4.987
REMARK  Name = 
REMARK  7 active torsions:
REMARK  status: ('A' for Active; 'I' for Inactive)
REMARK    1  A    between atoms: C_2  and  C_3
REMARK    2  A    between atoms: C_3  and  C_17
REMARK    3  A    between atoms: C_4  and  O_5
REMARK    4  A    between atoms: C_4  and  C_6
REMARK    5  A    between atoms: C_8  and  O_9
REMARK    6  A    between atoms: C_10  and  O_11
REMARK    7  A    between atoms: C_12  and  N_13
REMARK                            x       y       z     vdW  Elec       q    Type
REMARK                         _______ _______ _______ _____ _____    ______ ____
ROOT
ATOM      1  C   UNL     1       5.730   4.716  18.570  0.00  0.00    +0.000 A 
ATOM      2  C   UNL     1       6.644   5.589  19.184  0.00  0.00    +0.000 A 
ATOM      3  C   UNL     1       7.491   6.372  18.396  0.00  0.00    +0.000 A 
ATOM      4  C   UNL     1       7.460   6.294  17.006  0.00  0.00    +0.000 A 
ATOM      5  C   UNL     1       6.568   5.413  16.405  0.00  0.00    +0.000 A 
ATOM      6  C   UNL     1       5.698   4.625  17.171  0.00  0.00    +0.000 A 
ENDROOT
BRANCH   5   7
ATOM      7  N   UNL     1       6.500   5.310  14.963  0.00  0.00    +0.000 N 
ATOM      8  O   UNL     1       7.566   5.349  14.332  0.00  0.00    +0.000 OA
ATOM      9  O   UNL     1       5.381   5.102  14.473  0.00  0.00    +0.000 OA
ENDBRANCH   5   7
BRANCH   1  11
ATOM     10  C   UNL     1       3.533   4.396  19.680  0.00  0.00    +0.000 C 
ATOM     11  C   UNL     1       4.768   3.932  19.370  0.00  0.00    +0.000 C 
BRANCH  10  12
ATOM     12  C   UNL     1       2.602   3.602  20.429  0.00  0.00    +0.000 A 
ATOM     13  N   UNL     1       2.809   3.123  21.649  0.00  0.00    +0.000 NA
ATOM     14  C   UNL     1       1.709   2.404  22.085  0.00  0.00    +0.000 A 
ATOM     15  C   UNL     1       0.656   2.334  21.205  0.00  0.00    +0.000 A 
ATOM     16  S   UNL     1       1.047   3.178  19.775  0.00  0.00    +0.000 S 
ENDBRANCH  10  12
BRANCH  10  18
ATOM     17  N   UNL     1       2.829   6.950  18.835  0.00  0.00    +0.000 NA
ATOM     18  C   UNL     1       3.148   5.792  19.218  0.00  0.00    +0.000 C 
ENDBRANCH  10  18
BRANCH  11  19
ATOM     19  O   UNL     1       5.257   2.689  19.722  0.00  0.00    +0.000 OA
ATOM     20  H   UNL     1       5.798   2.784  20.538  0.00  0.00    +0.000 HD
ENDBRANCH  11  19
ENDBRANCH   1  11
BRANCH   3  21
ATOM     21  O   UNL     1       8.375   7.260  18.950  0.00  0.00    +0.000 OA
ATOM     22  H   UNL     1       9.187   7.277  18.412  0.00  0.00    +0.000 HD
ENDBRANCH   3  21
BRANCH   4  23
ATOM     23  O   UNL     1       8.284   7.110  16.281  0.00  0.00    +0.000 OA
ATOM     24  H   UNL     1       7.937   7.090  15.367  0.00  0.00    +0.000 HD
ENDBRANCH   4  23
TORSDOF 7
ENDMDL
MODEL 8
REMARK VINA RESULT:      -5.8      2.116      3.209
REMARK  Name = 
REMARK  7 active torsions:
REMARK  status: ('A' for Active; 'I' for Inactive)
REMARK    1  A    between atoms: C_2  and  C_3
REMARK    2  A    between atoms: C_3  and  C_17
REMARK    3  A    between atoms: C_4  and  O_5
REMARK    4  A    between atoms: C_4  and  C_6
REMARK    5  A    between atoms: C_8  and  O_9
REMARK    6  A    between atoms: C_10  and  O_11
REMARK    7  A    between atoms: C_12  and  N_13
REMARK                            x       y       z     vdW  Elec       q    Type
REMARK                         _______ _______ _______ _____ _____    ______ ____
ROOT
ATOM      1  C   UNL     1       3.457   6.596  17.792  0.00  0.00    +0.000 A 
ATOM      2  C   UNL     1       4.716   6.825  17.210  0.00  0.00    +0.000 A 
ATOM      3  C   UNL     1       5.440   5.753  16.683  0.00  0.00    +0.000 A 
ATOM      4  C   UNL     1       4.946   4.452  16.737  0.00  0.00    +0.000 A 
ATOM      5  C   UNL     1       3.709   4.230  17.332  0.00  0.00    +0.000 A 
ATOM      6  C   UNL     1       2.955   5.288  17.858  0.00  0.00    +0.000 A 
ENDROOT
BRANCH   5   7
ATOM      7  N   UNL     1       3.158   2.894  17.400  0.00  0.00    +0.000 N 
ATOM      8  O   UNL     1       3.884   1.993  17.842  0.00  0.00    +0.000 OA
ATOM      9  O   UNL     1       1.965   2.769  17.087  0.00  0.00    +0.000 OA
ENDBRANCH   5   7
BRANCH   1  11
ATOM     10  C   UNL     1       2.001   7.678  19.488  0.00  0.00    +0.000 C 
ATOM     11  C   UNL     1       2.631   7.716  18.288  0.00  0.00    +0.000 C 
BRANCH  10  12
ATOM     12  C   UNL     1       1.233   8.791  19.964  0.00  0.00    +0.000 A 
ATOM     13  N   UNL     1       0.646   9.704  19.200  0.00  0.00    +0.000 NA
ATOM     14  C   UNL     1      -0.019  10.637  19.975  0.00  0.00    +0.000 A 
ATOM     15  C   UNL     1       0.051  10.442  21.334  0.00  0.00    +0.000 A 
ATOM     16  S   UNL     1       0.989   9.057  21.666  0.00  0.00    +0.000 S 
ENDBRANCH  10  12
BRANCH  10  18
ATOM     17  N   UNL     1       2.221   5.371  21.024  0.00  0.00    +0.000 NA
ATOM     18  C   UNL     1       2.121   6.417  20.328  0.00  0.00    +0.000 C 
ENDBRANCH  10  18
BRANCH  11  19
ATOM     19  O   UNL     1       2.611   8.789  17.418  0.00  0.00    +0.000 OA
ATOM     20  H   UNL     1       2.150   9.539  17.857  0.00  0.00    +0.000 HD
ENDBRANCH  11  19
ENDBRANCH   1  11
BRANCH   3  21
ATOM     21  O   UNL     1       6.657   5.932  16.078  0.00  0.00    +0.000 OA
ATOM     22  H   UNL     1       6.553   5.813  15.117  0.00  0.00    +0.000 HD
ENDBRANCH   3  21
BRANCH   4  23
ATOM     23  O   UNL     1       5.678   3.445  16.173  0.00  0.00    +0.000 OA
ATOM     24  H   UNL     1       6.126   2.995  16.918  0.00  0.00    +0.000 HD
ENDBRANCH   4  23
TORSDOF 7
ENDMDL
MODEL 9
REMARK VINA RESULT:      -5.7      3.558      4.573
REMARK  Name = 
REMARK  7 active torsions:
REMARK  status: ('A' for Active; 'I' for Inactive)
REMARK    1  A    between atoms: C_2  and  C_3
REMARK    2  A    between atoms: C_3  and  C_17
REMARK    3  A    between atoms: C_4  and  O_5
REMARK    4  A    between atoms: C_4  and  C_6
REMARK    5  A    between atoms: C_8  and  O_9
REMARK    6  A    between atoms: C_10  and  O_11
REMARK    7  A    between atoms: C_12  and  N_13
REMARK                            x       y       z     vdW  Elec       q    Type
REMARK                         _______ _______ _______ _____ _____    ______ ____
ROOT
ATOM      1  C   UNL     1       5.162   4.183  17.481  0.00  0.00    +0.000 A 
ATOM      2  C   UNL     1       5.318   3.677  16.179  0.00  0.00    +0.000 A 
ATOM      3  C   UNL     1       6.282   4.231  15.333  0.00  0.00    +0.000 A 
ATOM      4  C   UNL     1       7.087   5.289  15.748  0.00  0.00    +0.000 A 
ATOM      5  C   UNL     1       6.913   5.797  17.031  0.00  0.00    +0.000 A 
ATOM      6  C   UNL     1       5.962   5.254  17.905  0.00  0.00    +0.000 A 
ENDROOT
BRANCH   5   7
ATOM      7  N   UNL     1       7.735   6.891  17.502  0.00  0.00    +0.000 N 
ATOM      8  O   UNL     1       7.827   7.894  16.782  0.00  0.00    +0.000 OA
ATOM      9  O   UNL     1       8.219   6.772  18.637  0.00  0.00    +0.000 OA
ENDBRANCH   5   7
BRANCH   1  11
ATOM     10  C   UNL     1       3.134   4.242  18.913  0.00  0.00    +0.000 C 
ATOM     11  C   UNL     1       4.207   3.571  18.428  0.00  0.00    +0.000 C 
BRANCH  10  12
ATOM     12  C   UNL     1       2.201   3.617  19.804  0.00  0.00    +0.000 A 
ATOM     13  N   UNL     1       1.017   3.130  19.458  0.00  0.00    +0.000 NA
ATOM     14  C   UNL     1       0.370   2.590  20.556  0.00  0.00    +0.000 A 
ATOM     15  C   UNL     1       1.056   2.658  21.745  0.00  0.00    +0.000 A 
ATOM     16  S   UNL     1       2.555   3.433  21.497  0.00  0.00    +0.000 S 
ENDBRANCH  10  12
BRANCH  10  18
ATOM     17  N   UNL     1       2.775   6.891  18.146  0.00  0.00    +0.000 NA
ATOM     18  C   UNL     1       2.938   5.691  18.493  0.00  0.00    +0.000 C 
ENDBRANCH  10  18
BRANCH  11  19
ATOM     19  O   UNL     1       4.516   2.257  18.720  0.00  0.00    +0.000 OA
ATOM     20  H   UNL     1       4.169   2.045  19.616  0.00  0.00    +0.000 HD
ENDBRANCH  11  19
ENDBRANCH   1  11
BRANCH   3  21
ATOM     21  O   UNL     1       6.491   3.750  14.066  0.00  0.00    +0.000 OA
ATOM     22  H   UNL     1       5.635   3.683  13.607  0.00  0.00    +0.000 HD
ENDBRANCH   3  21
BRANCH   4  23
ATOM     23  O   UNL     1       8.040   5.768  14.893  0.00  0.00    +0.000 OA
ATOM     24  H   UNL     1       8.704   6.211  15.459  0.00  0.00    +0.000 HD
ENDBRANCH   4  23
TORSDOF 7
ENDMDL
