MODEL 1
REMARK VINA RESULT:      -6.8      0.000      0.000
REMARK  Name = 
REMARK  13 active torsions:
REMARK  status: ('A' for Active; 'I' for Inactive)
REMARK    1  A    between atoms: C_1  and  O_2
REMARK    2  A    between atoms: O_2  and  C_3
REMARK    3  A    between atoms: C_6  and  C_7
REMARK    4  A    between atoms: C_9  and  C_10
REMARK    5  A    between atoms: C_10  and  O_11
REMARK    6  A    between atoms: C_13  and  O_14
REMARK    7  A    between atoms: O_14  and  C_15
REMARK    8  A    between atoms: C_16  and  O_17
REMARK    9  A    between atoms: O_17  and  C_18
REMARK   10  A    between atoms: C_19  and  O_20
REMARK   11  A    between atoms: O_20  and  C_21
REMARK   12  A    between atoms: C_26  and  O_27
REMARK   13  A    between atoms: O_27  and  C_28
REMARK                            x       y       z     vdW  Elec       q    Type
REMARK                         _______ _______ _______ _____ _____    ______ ____
ROOT
ATOM      1  C   UNL     1       1.547   8.565  19.620  0.00  0.00    +0.000 A 
ATOM      2  C   UNL     1       1.369   9.398  18.541  0.00  0.00    +0.000 A 
ATOM      3  C   UNL     1       1.033  10.699  18.807  0.00  0.00    +0.000 A 
ATOM      4  C   UNL     1       0.161  10.912  19.849  0.00  0.00    +0.000 A 
ATOM      5  C   UNL     1      -0.816  11.916  19.742  0.00  0.00    +0.000 A 
ATOM      6  C   UNL     1      -1.569  12.264  20.856  0.00  0.00    +0.000 A 
ATOM      7  C   UNL     1      -1.364  11.569  22.063  0.00  0.00    +0.000 A 
ATOM      8  C   UNL     1      -0.447  10.484  22.094  0.00  0.00    +0.000 A 
ATOM      9  C   UNL     1       0.289  10.069  20.958  0.00  0.00    +0.000 A 
ATOM     10  N   UNL     1       1.080   8.937  20.858  0.00  0.00    +0.000 NA
ENDROOT
BRANCH   1  14
ATOM     11  C   UNL     1       3.467   4.748  18.737  0.00  0.00    +0.000 A 
ATOM     12  C   UNL     1       3.599   5.833  17.875  0.00  0.00    +0.000 A 
ATOM     13  C   UNL     1       3.037   7.073  18.209  0.00  0.00    +0.000 A 
ATOM     14  C   UNL     1       2.267   7.285  19.379  0.00  0.00    +0.000 A 
ATOM     15  C   UNL     1       2.178   6.197  20.239  0.00  0.00    +0.000 A 
ATOM     16  C   UNL     1       2.753   4.953  19.942  0.00  0.00    +0.000 A 
BRANCH  11  18
ATOM     17  C   UNL     1       3.143   2.581  17.799  0.00  0.00    +0.000 C 
ATOM     18  O   UNL     1       3.994   3.517  18.456  0.00  0.00    +0.000 OA
ENDBRANCH  11  18
BRANCH  16  19
ATOM     19  O   UNL     1       2.505   4.035  20.927  0.00  0.00    +0.000 OA
ATOM     20  C   UNL     1       1.265   3.357  20.967  0.00  0.00    +0.000 C 
ENDBRANCH  16  19
ENDBRANCH   1  14
BRANCH   5  21
ATOM     21  O   UNL     1      -1.078  12.589  18.562  0.00  0.00    +0.000 OA
ATOM     22  C   UNL     1      -1.866  11.870  17.602  0.00  0.00    +0.000 C 
ENDBRANCH   5  21
BRANCH   6  23
ATOM     23  O   UNL     1      -2.539  13.209  20.635  0.00  0.00    +0.000 OA
ATOM     24  C   UNL     1      -3.872  12.744  20.495  0.00  0.00    +0.000 C 
ENDBRANCH   6  23
BRANCH   7  25
ATOM     25  O   UNL     1      -2.169  11.961  23.095  0.00  0.00    +0.000 OA
ATOM     26  C   UNL     1      -1.952  13.188  23.766  0.00  0.00    +0.000 C 
ENDBRANCH   7  25
BRANCH   3  27
ATOM     27  C   UNL     1       1.969  11.805  18.377  0.00  0.00    +0.000 C 
BRANCH  27  28
ATOM     28  O   UNL     1       2.617  11.412  17.163  0.00  0.00    +0.000 OA
ATOM     29  H   UNL     1       3.581  11.430  17.317  0.00  0.00    +0.000 HD
ENDBRANCH  27  28
ENDBRANCH   3  27
TORSDOF 8
ENDMDL
MODEL 2
REMARK VINA RESULT:      -6.5      0.833      1.875
REMARK  Name = 
REMARK  13 active torsions:
REMARK  status: ('A' for Active; 'I' for Inactive)
REMARK    1  A    between atoms: C_1  and  O_2
REMARK    2  A    between atoms: O_2  and  C_3
REMARK    3  A    between atoms: C_6  and  C_7
REMARK    4  A    between atoms: C_9  and  C_10
REMARK    5  A    between atoms: C_10  and  O_11
REMARK    6  A    between atoms: C_13  and  O_14
REMARK    7  A    between atoms: O_14  and  C_15
REMARK    8  A    between atoms: C_16  and  O_17
REMARK    9  A    between atoms: O_17  and  C_18
REMARK   10  A    between atoms: C_19  and  O_20
REMARK   11  A    between atoms: O_20  and  C_21
REMARK   12  A    between atoms: C_26  and  O_27
REMARK   13  A    between atoms: O_27  and  C_28
REMARK                            x       y       z     vdW  Elec       q    Type
REMARK                         _______ _______ _______ _____ _____    ______ ____
ROOT
ATOM      1  C   UNL     1       1.495   8.622  19.583  0.00  0.00    +0.000 A 
ATOM      2  C   UNL     1       1.295   9.450  18.504  0.00  0.00    +0.000 A 
ATOM      3  C   UNL     1       0.952  10.749  18.772  0.00  0.00    +0.000 A 
ATOM      4  C   UNL     1       0.093  10.958  19.824  0.00  0.00    +0.000 A 
ATOM      5  C   UNL     1      -0.894  11.953  19.728  0.00  0.00    +0.000 A 
ATOM      6  C   UNL     1      -1.635  12.298  20.850  0.00  0.00    +0.000 A 
ATOM      7  C   UNL     1      -1.409  11.608  22.056  0.00  0.00    +0.000 A 
ATOM      8  C   UNL     1      -0.483  10.531  22.079  0.00  0.00    +0.000 A 
ATOM      9  C   UNL     1       0.242  10.118  20.934  0.00  0.00    +0.000 A 
ATOM     10  N   UNL     1       1.041   8.993  20.826  0.00  0.00    +0.000 NA
ENDROOT
BRANCH   1  14
ATOM     11  C   UNL     1       3.806   4.961  19.042  0.00  0.00    +0.000 A 
ATOM     12  C   UNL     1       2.954   5.117  20.133  0.00  0.00    +0.000 A 
ATOM     13  C   UNL     1       2.164   6.268  20.253  0.00  0.00    +0.000 A 
ATOM     14  C   UNL     1       2.222   7.347  19.336  0.00  0.00    +0.000 A 
ATOM     15  C   UNL     1       3.054   7.154  18.240  0.00  0.00    +0.000 A 
ATOM     16  C   UNL     1       3.834   5.999  18.082  0.00  0.00    +0.000 A 
BRANCH  11  18
ATOM     17  C   UNL     1       3.993   2.586  19.101  0.00  0.00    +0.000 C 
ATOM     18  O   UNL     1       4.598   3.857  18.881  0.00  0.00    +0.000 OA
ENDBRANCH  11  18
BRANCH  16  19
ATOM     19  O   UNL     1       4.590   6.055  16.941  0.00  0.00    +0.000 OA
ATOM     20  C   UNL     1       5.913   6.551  16.991  0.00  0.00    +0.000 C 
ENDBRANCH  16  19
ENDBRANCH   1  14
BRANCH   5  21
ATOM     21  O   UNL     1      -1.178  12.621  18.549  0.00  0.00    +0.000 OA
ATOM     22  C   UNL     1      -1.901  11.864  17.568  0.00  0.00    +0.000 C 
ENDBRANCH   5  21
BRANCH   6  23
ATOM     23  O   UNL     1      -2.617  13.234  20.639  0.00  0.00    +0.000 OA
ATOM     24  C   UNL     1      -3.941  12.754  20.477  0.00  0.00    +0.000 C 
ENDBRANCH   6  23
BRANCH   7  25
ATOM     25  O   UNL     1      -2.204  11.996  23.098  0.00  0.00    +0.000 OA
ATOM     26  C   UNL     1      -1.982  13.221  23.769  0.00  0.00    +0.000 C 
ENDBRANCH   7  25
BRANCH   3  27
ATOM     27  C   UNL     1       1.873  11.861  18.326  0.00  0.00    +0.000 C 
BRANCH  27  28
ATOM     28  O   UNL     1       2.594  11.426  17.169  0.00  0.00    +0.000 OA
ATOM     29  H   UNL     1       2.008  11.526  16.395  0.00  0.00    +0.000 HD
ENDBRANCH  27  28
ENDBRANCH   3  27
TORSDOF 8
ENDMDL
MODEL 3
REMARK VINA RESULT:      -6.4      1.148      1.897
REMARK  Name = 
REMARK  13 active torsions:
REMARK  status: ('A' for Active; 'I' for Inactive)
REMARK    1  A    between atoms: C_1  and  O_2
REMARK    2  A    between atoms: O_2  and  C_3
REMARK    3  A    between atoms: C_6  and  C_7
REMARK    4  A    between atoms: C_9  and  C_10
REMARK    5  A    between atoms: C_10  and  O_11
REMARK    6  A    between atoms: C_13  and  O_14
REMARK    7  A    between atoms: O_14  and  C_15
REMARK    8  A    between atoms: C_16  and  O_17
REMARK    9  A    between atoms: O_17  and  C_18
REMARK   10  A    between atoms: C_19  and  O_20
REMARK   11  A    between atoms: O_20  and  C_21
REMARK   12  A    between atoms: C_26  and  O_27
REMARK   13  A    between atoms: O_27  and  C_28
REMARK                            x       y       z     vdW  Elec       q    Type
REMARK                         _______ _______ _______ _____ _____    ______ ____
ROOT
ATOM      1  C   UNL     1       1.695   8.072  19.766  0.00  0.00    +0.000 A 
ATOM      2  C   UNL     1       1.453   8.740  18.590  0.00  0.00    +0.000 A 
ATOM      3  C   UNL     1       1.241  10.091  18.672  0.00  0.00    +0.000 A 
ATOM      4  C   UNL     1       0.511  10.538  19.748  0.00  0.00    +0.000 A 
ATOM      5  C   UNL     1      -0.400  11.593  19.579  0.00  0.00    +0.000 A 
ATOM      6  C   UNL     1      -0.995  12.174  20.691  0.00  0.00    +0.000 A 
ATOM      7  C   UNL     1      -0.703  11.660  21.968  0.00  0.00    +0.000 A 
ATOM      8  C   UNL     1       0.135  10.517  22.084  0.00  0.00    +0.000 A 
ATOM      9  C   UNL     1       0.706   9.869  20.962  0.00  0.00    +0.000 A 
ATOM     10  N   UNL     1       1.400   8.671  20.968  0.00  0.00    +0.000 NA
ENDROOT
BRANCH   1  14
ATOM     11  C   UNL     1       3.588   4.142  19.692  0.00  0.00    +0.000 A 
ATOM     12  C   UNL     1       2.543   4.418  20.570  0.00  0.00    +0.000 A 
ATOM     13  C   UNL     1       1.897   5.662  20.530  0.00  0.00    +0.000 A 
ATOM     14  C   UNL     1       2.292   6.713  19.666  0.00  0.00    +0.000 A 
ATOM     15  C   UNL     1       3.315   6.402  18.778  0.00  0.00    +0.000 A 
ATOM     16  C   UNL     1       3.959   5.156  18.778  0.00  0.00    +0.000 A 
BRANCH  11  18
ATOM     17  C   UNL     1       3.665   1.879  18.949  0.00  0.00    +0.000 C 
ATOM     18  O   UNL     1       4.250   2.945  19.693  0.00  0.00    +0.000 OA
ENDBRANCH  11  18
BRANCH  16  19
ATOM     19  O   UNL     1       4.949   5.102  17.834  0.00  0.00    +0.000 OA
ATOM     20  C   UNL     1       4.672   4.587  16.546  0.00  0.00    +0.000 C 
ENDBRANCH  16  19
ENDBRANCH   1  14
BRANCH   5  21
ATOM     21  O   UNL     1      -0.748  12.096  18.337  0.00  0.00    +0.000 OA
ATOM     22  C   UNL     1      -1.867  11.459  17.704  0.00  0.00    +0.000 C 
ENDBRANCH   5  21
BRANCH   6  23
ATOM     23  O   UNL     1      -1.917  13.154  20.418  0.00  0.00    +0.000 OA
ATOM     24  C   UNL     1      -1.482  14.499  20.537  0.00  0.00    +0.000 C 
ENDBRANCH   6  23
BRANCH   7  25
ATOM     25  O   UNL     1      -1.355  12.275  22.999  0.00  0.00    +0.000 OA
ATOM     26  C   UNL     1      -2.661  11.881  23.375  0.00  0.00    +0.000 C 
ENDBRANCH   7  25
BRANCH   3  27
ATOM     27  C   UNL     1       2.196  11.031  17.974  0.00  0.00    +0.000 C 
BRANCH  27  28
ATOM     28  O   UNL     1       2.272  12.249  18.721  0.00  0.00    +0.000 OA
ATOM     29  H   UNL     1       2.537  12.026  19.633  0.00  0.00    +0.000 HD
ENDBRANCH  27  28
ENDBRANCH   3  27
TORSDOF 8
ENDMDL
MODEL 4
REMARK VINA RESULT:      -6.4      1.769      8.886
REMARK  Name = 
REMARK  13 active torsions:
REMARK  status: ('A' for Active; 'I' for Inactive)
REMARK    1  A    between atoms: C_1  and  O_2
REMARK    2  A    between atoms: O_2  and  C_3
REMARK    3  A    between atoms: C_6  and  C_7
REMARK    4  A    between atoms: C_9  and  C_10
REMARK    5  A    between atoms: C_10  and  O_11
REMARK    6  A    between atoms: C_13  and  O_14
REMARK    7  A    between atoms: O_14  and  C_15
REMARK    8  A    between atoms: C_16  and  O_17
REMARK    9  A    between atoms: O_17  and  C_18
REMARK   10  A    between atoms: C_19  and  O_20
REMARK   11  A    between atoms: O_20  and  C_21
REMARK   12  A    between atoms: C_26  and  O_27
REMARK   13  A    between atoms: O_27  and  C_28
REMARK                            x       y       z     vdW  Elec       q    Type
REMARK                         _______ _______ _______ _____ _____    ______ ____
ROOT
ATOM      1  C   UNL     1       1.695   7.325  20.183  0.00  0.00    +0.000 A 
ATOM      2  C   UNL     1       1.199   6.174  20.745  0.00  0.00    +0.000 A 
ATOM      3  C   UNL     1       1.953   5.038  20.608  0.00  0.00    +0.000 A 
ATOM      4  C   UNL     1       2.592   4.862  19.404  0.00  0.00    +0.000 A 
ATOM      5  C   UNL     1       2.683   3.574  18.849  0.00  0.00    +0.000 A 
ATOM      6  C   UNL     1       3.488   3.360  17.738  0.00  0.00    +0.000 A 
ATOM      7  C   UNL     1       4.164   4.452  17.163  0.00  0.00    +0.000 A 
ATOM      8  C   UNL     1       3.952   5.756  17.687  0.00  0.00    +0.000 A 
ATOM      9  C   UNL     1       3.090   6.012  18.782  0.00  0.00    +0.000 A 
ATOM     10  N   UNL     1       2.707   7.255  19.255  0.00  0.00    +0.000 NA
ENDROOT
BRANCH   1  14
ATOM     11  C   UNL     1      -0.278  10.974  21.535  0.00  0.00    +0.000 A 
ATOM     12  C   UNL     1       0.123   9.997  22.443  0.00  0.00    +0.000 A 
ATOM     13  C   UNL     1       0.821   8.865  21.999  0.00  0.00    +0.000 A 
ATOM     14  C   UNL     1       1.102   8.613  20.634  0.00  0.00    +0.000 A 
ATOM     15  C   UNL     1       0.721   9.618  19.752  0.00  0.00    +0.000 A 
ATOM     16  C   UNL     1       0.046  10.773  20.172  0.00  0.00    +0.000 A 
BRANCH  11  18
ATOM     17  C   UNL     1      -0.207  13.292  22.084  0.00  0.00    +0.000 C 
ATOM     18  O   UNL     1      -0.963  12.095  21.917  0.00  0.00    +0.000 OA
ENDBRANCH  11  18
BRANCH  16  19
ATOM     19  O   UNL     1      -0.247  11.597  19.119  0.00  0.00    +0.000 OA
ATOM     20  C   UNL     1      -1.484  11.474  18.445  0.00  0.00    +0.000 C 
ENDBRANCH  16  19
ENDBRANCH   1  14
BRANCH   5  21
ATOM     21  O   UNL     1       1.998   2.484  19.357  0.00  0.00    +0.000 OA
ATOM     22  C   UNL     1       0.660   2.313  18.867  0.00  0.00    +0.000 C 
ENDBRANCH   5  21
BRANCH   6  23
ATOM     23  O   UNL     1       3.460   2.083  17.232  0.00  0.00    +0.000 OA
ATOM     24  C   UNL     1       4.105   1.075  17.994  0.00  0.00    +0.000 C 
ENDBRANCH   6  23
BRANCH   7  25
ATOM     25  O   UNL     1       4.908   4.150  16.058  0.00  0.00    +0.000 OA
ATOM     26  C   UNL     1       6.322   4.194  16.095  0.00  0.00    +0.000 C 
ENDBRANCH   7  25
BRANCH   3  27
ATOM     27  C   UNL     1       2.488   4.356  21.846  0.00  0.00    +0.000 C 
BRANCH  27  28
ATOM     28  O   UNL     1       1.726   3.167  22.082  0.00  0.00    +0.000 OA
ATOM     29  H   UNL     1       2.321   2.402  21.968  0.00  0.00    +0.000 HD
ENDBRANCH  27  28
ENDBRANCH   3  27
TORSDOF 8
ENDMDL
MODEL 5
REMARK VINA RESULT:      -6.3      2.017      3.436
REMARK  Name = 
REMARK  13 active torsions:
REMARK  status: ('A' for Active; 'I' for Inactive)
REMARK    1  A    between atoms: C_1  and  O_2
REMARK    2  A    between atoms: O_2  and  C_3
REMARK    3  A    between atoms: C_6  and  C_7
REMARK    4  A    between atoms: C_9  and  C_10
REMARK    5  A    between atoms: C_10  and  O_11
REMARK    6  A    between atoms: C_13  and  O_14
REMARK    7  A    between atoms: O_14  and  C_15
REMARK    8  A    between atoms: C_16  and  O_17
REMARK    9  A    between atoms: O_17  and  C_18
REMARK   10  A    between atoms: C_19  and  O_20
REMARK   11  A    between atoms: O_20  and  C_21
REMARK   12  A    between atoms: C_26  and  O_27
REMARK   13  A    between atoms: O_27  and  C_28
REMARK                            x       y       z     vdW  Elec       q    Type
REMARK                         _______ _______ _______ _____ _____    ______ ____
ROOT
ATOM      1  C   UNL     1       1.824   9.332  18.781  0.00  0.00    +0.000 A 
ATOM      2  C   UNL     1       0.634   9.465  19.455  0.00  0.00    +0.000 A 
ATOM      3  C   UNL     1      -0.085  10.610  19.229  0.00  0.00    +0.000 A 
ATOM      4  C   UNL     1       0.633  11.774  19.093  0.00  0.00    +0.000 A 
ATOM      5  C   UNL     1       0.129  12.968  19.637  0.00  0.00    +0.000 A 
ATOM      6  C   UNL     1       0.749  14.174  19.339  0.00  0.00    +0.000 A 
ATOM      7  C   UNL     1       1.900  14.169  18.531  0.00  0.00    +0.000 A 
ATOM      8  C   UNL     1       2.442  12.929  18.098  0.00  0.00    +0.000 A 
ATOM      9  C   UNL     1       1.865  11.680  18.437  0.00  0.00    +0.000 A 
ATOM     10  N   UNL     1       2.406  10.430  18.193  0.00  0.00    +0.000 NA
ENDROOT
BRANCH   1  14
ATOM     11  C   UNL     1       3.384   5.275  18.402  0.00  0.00    +0.000 A 
ATOM     12  C   UNL     1       3.679   6.248  17.451  0.00  0.00    +0.000 A 
ATOM     13  C   UNL     1       3.230   7.565  17.625  0.00  0.00    +0.000 A 
ATOM     14  C   UNL     1       2.419   7.970  18.714  0.00  0.00    +0.000 A 
ATOM     15  C   UNL     1       2.167   6.989  19.666  0.00  0.00    +0.000 A 
ATOM     16  C   UNL     1       2.626   5.671  19.529  0.00  0.00    +0.000 A 
BRANCH  11  18
ATOM     17  C   UNL     1       2.988   3.114  17.479  0.00  0.00    +0.000 C 
ATOM     18  O   UNL     1       3.796   3.977  18.276  0.00  0.00    +0.000 OA
ENDBRANCH  11  18
BRANCH  16  19
ATOM     19  O   UNL     1       2.225   4.888  20.578  0.00  0.00    +0.000 OA
ATOM     20  C   UNL     1       1.029   4.139  20.487  0.00  0.00    +0.000 C 
ENDBRANCH  16  19
ENDBRANCH   1  14
BRANCH   5  21
ATOM     21  O   UNL     1      -0.973  13.008  20.473  0.00  0.00    +0.000 OA
ATOM     22  C   UNL     1      -0.708  12.742  21.858  0.00  0.00    +0.000 C 
ENDBRANCH   5  21
BRANCH   6  23
ATOM     23  O   UNL     1       0.220  15.275  19.968  0.00  0.00    +0.000 OA
ATOM     24  C   UNL     1      -0.601  16.129  19.189  0.00  0.00    +0.000 C 
ENDBRANCH   6  23
BRANCH   7  25
ATOM     25  O   UNL     1       2.457  15.398  18.316  0.00  0.00    +0.000 OA
ATOM     26  C   UNL     1       3.527  15.566  17.405  0.00  0.00    +0.000 C 
ENDBRANCH   7  25
BRANCH   3  27
ATOM     27  C   UNL     1      -1.464  10.506  18.620  0.00  0.00    +0.000 C 
BRANCH  27  28
ATOM     28  O   UNL     1      -1.363  10.728  17.210  0.00  0.00    +0.000 OA
ATOM     29  H   UNL     1      -0.811  11.520  17.070  0.00  0.00    +0.000 HD
ENDBRANCH  27  28
ENDBRANCH   3  27
TORSDOF 8
ENDMDL
MODEL 6
REMARK VINA RESULT:      -6.3      1.724      3.344
REMARK  Name = 
REMARK  13 active torsions:
REMARK  status: ('A' for Active; 'I' for Inactive)
REMARK    1  A    between atoms: C_1  and  O_2
REMARK    2  A    between atoms: O_2  and  C_3
REMARK    3  A    between atoms: C_6  and  C_7
REMARK    4  A    between atoms: C_9  and  C_10
REMARK    5  A    between atoms: C_10  and  O_11
REMARK    6  A    between atoms: C_13  and  O_14
REMARK    7  A    between atoms: O_14  and  C_15
REMARK    8  A    between atoms: C_16  and  O_17
REMARK    9  A    between atoms: O_17  and  C_18
REMARK   10  A    between atoms: C_19  and  O_20
REMARK   11  A    between atoms: O_20  and  C_21
REMARK   12  A    between atoms: C_26  and  O_27
REMARK   13  A    between atoms: O_27  and  C_28
REMARK                            x       y       z     vdW  Elec       q    Type
REMARK                         _______ _______ _______ _____ _____    ______ ____
ROOT
ATOM      1  C   UNL     1       1.934   7.775  19.783  0.00  0.00    +0.000 A 
ATOM      2  C   UNL     1       1.433   7.948  21.051  0.00  0.00    +0.000 A 
ATOM      3  C   UNL     1       0.542   8.973  21.234  0.00  0.00    +0.000 A 
ATOM      4  C   UNL     1       0.791  10.138  20.549  0.00  0.00    +0.000 A 
ATOM      5  C   UNL     1       0.536  11.374  21.167  0.00  0.00    +0.000 A 
ATOM      6  C   UNL     1       0.601  12.543  20.420  0.00  0.00    +0.000 A 
ATOM      7  C   UNL     1       0.966  12.467  19.063  0.00  0.00    +0.000 A 
ATOM      8  C   UNL     1       1.327  11.209  18.509  0.00  0.00    +0.000 A 
ATOM      9  C   UNL     1       1.327  10.010  19.263  0.00  0.00    +0.000 A 
ATOM     10  N   UNL     1       1.808   8.779  18.853  0.00  0.00    +0.000 NA
ENDROOT
BRANCH   1  14
ATOM     11  C   UNL     1       3.645   3.900  18.735  0.00  0.00    +0.000 A 
ATOM     12  C   UNL     1       3.761   4.991  17.878  0.00  0.00    +0.000 A 
ATOM     13  C   UNL     1       3.270   6.247  18.261  0.00  0.00    +0.000 A 
ATOM     14  C   UNL     1       2.587   6.472  19.482  0.00  0.00    +0.000 A 
ATOM     15  C   UNL     1       2.513   5.377  20.334  0.00  0.00    +0.000 A 
ATOM     16  C   UNL     1       3.020   4.117  19.986  0.00  0.00    +0.000 A 
BRANCH  11  18
ATOM     17  C   UNL     1       3.145   1.709  17.944  0.00  0.00    +0.000 C 
ATOM     18  O   UNL     1       4.106   2.655  18.406  0.00  0.00    +0.000 OA
ENDBRANCH  11  18
BRANCH  16  19
ATOM     19  O   UNL     1       2.802   3.196  20.976  0.00  0.00    +0.000 OA
ATOM     20  C   UNL     1       1.482   2.830  21.326  0.00  0.00    +0.000 C 
ENDBRANCH  16  19
ENDBRANCH   1  14
BRANCH   5  21
ATOM     21  O   UNL     1       0.220  11.494  22.509  0.00  0.00    +0.000 OA
ATOM     22  C   UNL     1      -1.150  11.810  22.795  0.00  0.00    +0.000 C 
ENDBRANCH   5  21
BRANCH   6  23
ATOM     23  O   UNL     1       0.399  13.702  21.128  0.00  0.00    +0.000 OA
ATOM     24  C   UNL     1      -0.728  14.486  20.771  0.00  0.00    +0.000 C 
ENDBRANCH   6  23
BRANCH   7  25
ATOM     25  O   UNL     1       1.031  13.669  18.417  0.00  0.00    +0.000 OA
ATOM     26  C   UNL     1       2.254  14.372  18.305  0.00  0.00    +0.000 C 
ENDBRANCH   7  25
BRANCH   3  27
ATOM     27  C   UNL     1      -0.866   8.653  21.681  0.00  0.00    +0.000 C 
BRANCH  27  28
ATOM     28  O   UNL     1      -0.899   8.621  23.112  0.00  0.00    +0.000 OA
ATOM     29  H   UNL     1      -1.228   7.744  23.385  0.00  0.00    +0.000 HD
ENDBRANCH  27  28
ENDBRANCH   3  27
TORSDOF 8
ENDMDL
MODEL 7
REMARK VINA RESULT:      -6.3      1.965      8.823
REMARK  Name = 
REMARK  13 active torsions:
REMARK  status: ('A' for Active; 'I' for Inactive)
REMARK    1  A    between atoms: C_1  and  O_2
REMARK    2  A    between atoms: O_2  and  C_3
REMARK    3  A    between atoms: C_6  and  C_7
REMARK    4  A    between atoms: C_9  and  C_10
REMARK    5  A    between atoms: C_10  and  O_11
REMARK    6  A    between atoms: C_13  and  O_14
REMARK    7  A    between atoms: O_14  and  C_15
REMARK    8  A    between atoms: C_16  and  O_17
REMARK    9  A    between atoms: O_17  and  C_18
REMARK   10  A    between atoms: C_19  and  O_20
REMARK   11  A    between atoms: O_20  and  C_21
REMARK   12  A    between atoms: C_26  and  O_27
REMARK   13  A    between atoms: O_27  and  C_28
REMARK                            x       y       z     vdW  Elec       q    Type
REMARK                         _______ _______ _______ _____ _____    ______ ____
ROOT
ATOM      1  C   UNL     1       1.975   7.335  19.688  0.00  0.00    +0.000 A 
ATOM      2  C   UNL     1       1.381   6.264  20.312  0.00  0.00    +0.000 A 
ATOM      3  C   UNL     1       2.092   5.093  20.351  0.00  0.00    +0.000 A 
ATOM      4  C   UNL     1       2.821   4.775  19.230  0.00  0.00    +0.000 A 
ATOM      5  C   UNL     1       2.900   3.436  18.811  0.00  0.00    +0.000 A 
ATOM      6  C   UNL     1       3.784   3.083  17.800  0.00  0.00    +0.000 A 
ATOM      7  C   UNL     1       4.555   4.087  17.186  0.00  0.00    +0.000 A 
ATOM      8  C   UNL     1       4.359   5.444  17.562  0.00  0.00    +0.000 A 
ATOM      9  C   UNL     1       3.421   5.838  18.547  0.00  0.00    +0.000 A 
ATOM     10  N   UNL     1       3.057   7.135  18.864  0.00  0.00    +0.000 NA
ENDROOT
BRANCH   1  14
ATOM     11  C   UNL     1       0.552  11.382  20.482  0.00  0.00    +0.000 A 
ATOM     12  C   UNL     1       0.918  10.990  19.197  0.00  0.00    +0.000 A 
ATOM     13  C   UNL     1       1.303   9.666  18.946  0.00  0.00    +0.000 A 
ATOM     14  C   UNL     1       1.405   8.682  19.960  0.00  0.00    +0.000 A 
ATOM     15  C   UNL     1       1.003   9.089  21.227  0.00  0.00    +0.000 A 
ATOM     16  C   UNL     1       0.587  10.400  21.500  0.00  0.00    +0.000 A 
BRANCH  11  18
ATOM     17  C   UNL     1      -0.795  13.267  19.922  0.00  0.00    +0.000 C 
ATOM     18  O   UNL     1       0.171  12.662  20.778  0.00  0.00    +0.000 OA
ENDBRANCH  11  18
BRANCH  16  19
ATOM     19  O   UNL     1       0.271  10.563  22.822  0.00  0.00    +0.000 OA
ATOM     20  C   UNL     1      -1.078  10.498  23.241  0.00  0.00    +0.000 C 
ENDBRANCH  16  19
ENDBRANCH   1  14
BRANCH   5  21
ATOM     21  O   UNL     1       2.125   2.428  19.359  0.00  0.00    +0.000 OA
ATOM     22  C   UNL     1       0.799   2.308  18.823  0.00  0.00    +0.000 C 
ENDBRANCH   5  21
BRANCH   6  23
ATOM     23  O   UNL     1       3.741   1.765  17.419  0.00  0.00    +0.000 OA
ATOM     24  C   UNL     1       4.241   0.811  18.341  0.00  0.00    +0.000 C 
ENDBRANCH   6  23
BRANCH   7  25
ATOM     25  O   UNL     1       5.375   3.650  16.184  0.00  0.00    +0.000 OA
ATOM     26  C   UNL     1       5.511   4.382  14.981  0.00  0.00    +0.000 C 
ENDBRANCH   7  25
BRANCH   3  27
ATOM     27  C   UNL     1       2.489   4.517  21.691  0.00  0.00    +0.000 C 
BRANCH  27  28
ATOM     28  O   UNL     1       1.675   3.371  21.959  0.00  0.00    +0.000 OA
ATOM     29  H   UNL     1       2.233   2.703  22.400  0.00  0.00    +0.000 HD
ENDBRANCH  27  28
ENDBRANCH   3  27
TORSDOF 8
ENDMDL
MODEL 8
REMARK VINA RESULT:      -6.2      2.114      3.826
REMARK  Name = 
REMARK  13 active torsions:
REMARK  status: ('A' for Active; 'I' for Inactive)
REMARK    1  A    between atoms: C_1  and  O_2
REMARK    2  A    between atoms: O_2  and  C_3
REMARK    3  A    between atoms: C_6  and  C_7
REMARK    4  A    between atoms: C_9  and  C_10
REMARK    5  A    between atoms: C_10  and  O_11
REMARK    6  A    between atoms: C_13  and  O_14
REMARK    7  A    between atoms: O_14  and  C_15
REMARK    8  A    between atoms: C_16  and  O_17
REMARK    9  A    between atoms: O_17  and  C_18
REMARK   10  A    between atoms: C_19  and  O_20
REMARK   11  A    between atoms: O_20  and  C_21
REMARK   12  A    between atoms: C_26  and  O_27
REMARK   13  A    between atoms: O_27  and  C_28
REMARK                            x       y       z     vdW  Elec       q    Type
REMARK                         _______ _______ _______ _____ _____    ______ ____
ROOT
ATOM      1  C   UNL     1       2.044   7.717  19.283  0.00  0.00    +0.000 A 
ATOM      2  C   UNL     1       1.565   7.790  20.569  0.00  0.00    +0.000 A 
ATOM      3  C   UNL     1       0.698   8.813  20.854  0.00  0.00    +0.000 A 
ATOM      4  C   UNL     1       0.961  10.028  20.267  0.00  0.00    +0.000 A 
ATOM      5  C   UNL     1       0.741  11.211  20.993  0.00  0.00    +0.000 A 
ATOM      6  C   UNL     1       0.820  12.438  20.347  0.00  0.00    +0.000 A 
ATOM      7  C   UNL     1       1.162  12.471  18.983  0.00  0.00    +0.000 A 
ATOM      8  C   UNL     1       1.489  11.259  18.317  0.00  0.00    +0.000 A 
ATOM      9  C   UNL     1       1.476  10.000  18.967  0.00  0.00    +0.000 A 
ATOM     10  N   UNL     1       1.924   8.799  18.444  0.00  0.00    +0.000 NA
ENDROOT
BRANCH   1  14
ATOM     11  C   UNL     1       3.729   3.830  18.241  0.00  0.00    +0.000 A 
ATOM     12  C   UNL     1       2.437   4.178  17.854  0.00  0.00    +0.000 A 
ATOM     13  C   UNL     1       1.938   5.458  18.134  0.00  0.00    +0.000 A 
ATOM     14  C   UNL     1       2.665   6.432  18.861  0.00  0.00    +0.000 A 
ATOM     15  C   UNL     1       3.962   6.073  19.206  0.00  0.00    +0.000 A 
ATOM     16  C   UNL     1       4.496   4.809  18.915  0.00  0.00    +0.000 A 
BRANCH  11  18
ATOM     17  C   UNL     1       3.525   1.465  18.461  0.00  0.00    +0.000 C 
ATOM     18  O   UNL     1       4.261   2.594  17.994  0.00  0.00    +0.000 OA
ENDBRANCH  11  18
BRANCH  16  19
ATOM     19  O   UNL     1       5.777   4.685  19.381  0.00  0.00    +0.000 OA
ATOM     20  C   UNL     1       6.865   5.114  18.586  0.00  0.00    +0.000 C 
ENDBRANCH  16  19
ENDBRANCH   1  14
BRANCH   5  21
ATOM     21  O   UNL     1       0.448  11.221  22.345  0.00  0.00    +0.000 OA
ATOM     22  C   UNL     1      -0.870  11.676  22.688  0.00  0.00    +0.000 C 
ENDBRANCH   5  21
BRANCH   6  23
ATOM     23  O   UNL     1       0.652  13.536  21.155  0.00  0.00    +0.000 OA
ATOM     24  C   UNL     1       1.824  14.234  21.543  0.00  0.00    +0.000 C 
ENDBRANCH   6  23
BRANCH   7  25
ATOM     25  O   UNL     1       1.243  13.723  18.441  0.00  0.00    +0.000 OA
ATOM     26  C   UNL     1       2.487  14.265  18.039  0.00  0.00    +0.000 C 
ENDBRANCH   7  25
BRANCH   3  27
ATOM     27  C   UNL     1      -0.709   8.484  21.295  0.00  0.00    +0.000 C 
BRANCH  27  28
ATOM     28  O   UNL     1      -0.741   8.420  22.725  0.00  0.00    +0.000 OA
ATOM     29  H   UNL     1      -1.670   8.502  23.009  0.00  0.00    +0.000 HD
ENDBRANCH  27  28
ENDBRANCH   3  27
TORSDOF 8
ENDMDL
MODEL 9
REMARK VINA RESULT:      -6.2      1.882      3.402
REMARK  Name = 
REMARK  13 active torsions:
REMARK  status: ('A' for Active; 'I' for Inactive)
REMARK    1  A    between atoms: C_1  and  O_2
REMARK    2  A    between atoms: O_2  and  C_3
REMARK    3  A    between atoms: C_6  and  C_7
REMARK    4  A    between atoms: C_9  and  C_10
REMARK    5  A    between atoms: C_10  and  O_11
REMARK    6  A    between atoms: C_13  and  O_14
REMARK    7  A    between atoms: O_14  and  C_15
REMARK    8  A    between atoms: C_16  and  O_17
REMARK    9  A    between atoms: O_17  and  C_18
REMARK   10  A    between atoms: C_19  and  O_20
REMARK   11  A    between atoms: O_20  and  C_21
REMARK   12  A    between atoms: C_26  and  O_27
REMARK   13  A    between atoms: O_27  and  C_28
REMARK                            x       y       z     vdW  Elec       q    Type
REMARK                         _______ _______ _______ _____ _____    ______ ____
ROOT
ATOM      1  C   UNL     1       1.919   8.242  19.280  0.00  0.00    +0.000 A 
ATOM      2  C   UNL     1       1.502   8.170  20.587  0.00  0.00    +0.000 A 
ATOM      3  C   UNL     1       0.521   9.044  20.976  0.00  0.00    +0.000 A 
ATOM      4  C   UNL     1       0.587  10.317  20.462  0.00  0.00    +0.000 A 
ATOM      5  C   UNL     1       0.248  11.412  21.274  0.00  0.00    +0.000 A 
ATOM      6  C   UNL     1       0.127  12.676  20.709  0.00  0.00    +0.000 A 
ATOM      7  C   UNL     1       0.391  12.838  19.337  0.00  0.00    +0.000 A 
ATOM      8  C   UNL     1       0.844  11.725  18.578  0.00  0.00    +0.000 A 
ATOM      9  C   UNL     1       1.033  10.439  19.141  0.00  0.00    +0.000 A 
ATOM     10  N   UNL     1       1.612   9.346  18.521  0.00  0.00    +0.000 NA
ENDROOT
BRANCH   1  14
ATOM     11  C   UNL     1       4.019   4.860  17.493  0.00  0.00    +0.000 A 
ATOM     12  C   UNL     1       4.324   6.168  17.126  0.00  0.00    +0.000 A 
ATOM     13  C   UNL     1       3.692   7.245  17.763  0.00  0.00    +0.000 A 
ATOM     14  C   UNL     1       2.685   7.083  18.746  0.00  0.00    +0.000 A 
ATOM     15  C   UNL     1       2.423   5.770  19.118  0.00  0.00    +0.000 A 
ATOM     16  C   UNL     1       3.060   4.675  18.517  0.00  0.00    +0.000 A 
BRANCH  11  18
ATOM     17  C   UNL     1       5.520   4.033  15.837  0.00  0.00    +0.000 C 
ATOM     18  O   UNL     1       4.606   3.776  16.901  0.00  0.00    +0.000 OA
ENDBRANCH  11  18
BRANCH  16  19
ATOM     19  O   UNL     1       2.613   3.487  19.031  0.00  0.00    +0.000 OA
ATOM     20  C   UNL     1       1.291   3.380  19.521  0.00  0.00    +0.000 C 
ENDBRANCH  16  19
ENDBRANCH   1  14
BRANCH   5  21
ATOM     21  O   UNL     1       0.025  11.301  22.635  0.00  0.00    +0.000 OA
ATOM     22  C   UNL     1      -1.315  11.577  23.067  0.00  0.00    +0.000 C 
ENDBRANCH   5  21
BRANCH   6  23
ATOM     23  O   UNL     1      -0.146  13.689  21.595  0.00  0.00    +0.000 OA
ATOM     24  C   UNL     1       0.940  14.515  21.982  0.00  0.00    +0.000 C 
ENDBRANCH   6  23
BRANCH   7  25
ATOM     25  O   UNL     1       0.275  14.119  18.877  0.00  0.00    +0.000 OA
ATOM     26  C   UNL     1       1.418  14.884  18.546  0.00  0.00    +0.000 C 
ENDBRANCH   7  25
BRANCH   3  27
ATOM     27  C   UNL     1      -0.805   8.498  21.455  0.00  0.00    +0.000 C 
BRANCH  27  28
ATOM     28  O   UNL     1      -0.771   8.391  22.882  0.00  0.00    +0.000 OA
ATOM     29  H   UNL     1      -0.318   9.181  23.231  0.00  0.00    +0.000 HD
ENDBRANCH  27  28
ENDBRANCH   3  27
TORSDOF 8
ENDMDL
