MODEL 1
REMARK VINA RESULT:      -6.4      0.000      0.000
REMARK  Name = 
REMARK  0 active torsions:
REMARK  status: ('A' for Active; 'I' for Inactive)
REMARK                            x       y       z     vdW  Elec       q    Type
REMARK                         _______ _______ _______ _____ _____    ______ ____
ROOT
ATOM      1  C   UNL     1       1.594   2.616  18.466  0.00  0.00    +0.000 A 
ATOM      2  C   UNL     1       1.489   3.997  18.447  0.00  0.00    +0.000 A 
ATOM      3  C   UNL     1       2.625   4.706  18.098  0.00  0.00    +0.000 A 
ATOM      4  C   UNL     1       3.806   4.042  17.787  0.00  0.00    +0.000 A 
ATOM      5  C   UNL     1       3.817   2.663  17.836  0.00  0.00    +0.000 A 
ATOM      6  N   UNL     1       2.728   1.932  18.172  0.00  0.00    +0.000 NA
ATOM      7  C   UNL     1       4.920   4.985  17.436  0.00  0.00    +0.000 C 
ATOM      8  C   UNL     1       6.135   4.844  18.356  0.00  0.00    +0.000 C 
ATOM      9  C   UNL     1       7.335   4.632  17.454  0.00  0.00    +0.000 C 
ATOM     10  C   UNL     1       6.820   4.616  16.031  0.00  0.00    +0.000 C 
ATOM     11  N   UNL     1       5.379   4.815  16.054  0.00  0.00    +0.000 NA
ATOM     12  C   UNL     1       4.232   6.375  17.561  0.00  0.00    +0.000 C 
ATOM     13  C   UNL     1       2.776   6.184  18.012  0.00  0.00    +0.000 C 
ATOM     14  H   UNL     1       4.906   4.032  15.607  0.00  0.00    +0.000 HD
ENDROOT
TORSDOF 0
ENDMDL
MODEL 2
REMARK VINA RESULT:      -6.3      1.927      4.390
REMARK  Name = 
REMARK  0 active torsions:
REMARK  status: ('A' for Active; 'I' for Inactive)
REMARK                            x       y       z     vdW  Elec       q    Type
REMARK                         _______ _______ _______ _____ _____    ______ ____
ROOT
ATOM      1  C   UNL     1       6.984   5.443  17.679  0.00  0.00    +0.000 A 
ATOM      2  C   UNL     1       6.151   6.473  17.273  0.00  0.00    +0.000 A 
ATOM      3  C   UNL     1       4.845   6.438  17.729  0.00  0.00    +0.000 A 
ATOM      4  C   UNL     1       4.411   5.408  18.554  0.00  0.00    +0.000 A 
ATOM      5  C   UNL     1       5.312   4.422  18.904  0.00  0.00    +0.000 A 
ATOM      6  N   UNL     1       6.598   4.419  18.480  0.00  0.00    +0.000 NA
ATOM      7  C   UNL     1       2.967   5.549  18.940  0.00  0.00    +0.000 C 
ATOM      8  C   UNL     1       2.113   4.356  18.505  0.00  0.00    +0.000 C 
ATOM      9  C   UNL     1       1.390   3.870  19.746  0.00  0.00    +0.000 C 
ATOM     10  C   UNL     1       1.843   4.746  20.893  0.00  0.00    +0.000 C 
ATOM     11  N   UNL     1       2.791   5.726  20.384  0.00  0.00    +0.000 NA
ATOM     12  C   UNL     1       2.559   6.870  18.226  0.00  0.00    +0.000 C 
ATOM     13  C   UNL     1       3.759   7.412  17.433  0.00  0.00    +0.000 C 
ATOM     14  H   UNL     1       3.681   5.645  20.872  0.00  0.00    +0.000 HD
ENDROOT
TORSDOF 0
ENDMDL
MODEL 3
REMARK VINA RESULT:      -6.2      1.439      4.110
REMARK  Name = 
REMARK  0 active torsions:
REMARK  status: ('A' for Active; 'I' for Inactive)
REMARK                            x       y       z     vdW  Elec       q    Type
REMARK                         _______ _______ _______ _____ _____    ______ ____
ROOT
ATOM      1  C   UNL     1       6.045   5.154  15.659  0.00  0.00    +0.000 A 
ATOM      2  C   UNL     1       5.446   6.297  16.163  0.00  0.00    +0.000 A 
ATOM      3  C   UNL     1       4.385   6.117  17.032  0.00  0.00    +0.000 A 
ATOM      4  C   UNL     1       3.957   4.839  17.371  0.00  0.00    +0.000 A 
ATOM      5  C   UNL     1       4.613   3.758  16.818  0.00  0.00    +0.000 A 
ATOM      6  N   UNL     1       5.655   3.891  15.963  0.00  0.00    +0.000 NA
ATOM      7  C   UNL     1       2.798   4.854  18.325  0.00  0.00    +0.000 C 
ATOM      8  C   UNL     1       1.557   4.151  17.769  0.00  0.00    +0.000 C 
ATOM      9  C   UNL     1       1.143   3.126  18.806  0.00  0.00    +0.000 C 
ATOM     10  C   UNL     1       2.148   3.209  19.934  0.00  0.00    +0.000 C 
ATOM     11  N   UNL     1       3.127   4.236  19.612  0.00  0.00    +0.000 NA
ATOM     12  C   UNL     1       2.572   6.377  18.550  0.00  0.00    +0.000 C 
ATOM     13  C   UNL     1       3.574   7.172  17.698  0.00  0.00    +0.000 C 
ATOM     14  H   UNL     1       4.065   3.839  19.596  0.00  0.00    +0.000 HD
ENDROOT
TORSDOF 0
ENDMDL
MODEL 4
REMARK VINA RESULT:      -6.2      1.848      2.654
REMARK  Name = 
REMARK  0 active torsions:
REMARK  status: ('A' for Active; 'I' for Inactive)
REMARK                            x       y       z     vdW  Elec       q    Type
REMARK                         _______ _______ _______ _____ _____    ______ ____
ROOT
ATOM      1  C   UNL     1       1.093   3.443  20.778  0.00  0.00    +0.000 A 
ATOM      2  C   UNL     1       1.212   2.730  19.596  0.00  0.00    +0.000 A 
ATOM      3  C   UNL     1       2.286   3.044  18.782  0.00  0.00    +0.000 A 
ATOM      4  C   UNL     1       3.190   4.032  19.152  0.00  0.00    +0.000 A 
ATOM      5  C   UNL     1       2.989   4.693  20.347  0.00  0.00    +0.000 A 
ATOM      6  N   UNL     1       1.952   4.416  21.173  0.00  0.00    +0.000 NA
ATOM      7  C   UNL     1       4.281   4.222  18.138  0.00  0.00    +0.000 C 
ATOM      8  C   UNL     1       4.330   5.644  17.573  0.00  0.00    +0.000 C 
ATOM      9  C   UNL     1       5.754   6.132  17.762  0.00  0.00    +0.000 C 
ATOM     10  C   UNL     1       6.512   5.022  18.457  0.00  0.00    +0.000 C 
ATOM     11  N   UNL     1       5.606   3.906  18.679  0.00  0.00    +0.000 NA
ATOM     12  C   UNL     1       3.921   3.161  17.058  0.00  0.00    +0.000 C 
ATOM     13  C   UNL     1       2.630   2.435  17.467  0.00  0.00    +0.000 C 
ATOM     14  H   UNL     1       5.550   3.686  19.672  0.00  0.00    +0.000 HD
ENDROOT
TORSDOF 0
ENDMDL
MODEL 5
REMARK VINA RESULT:      -6.1      1.795      4.321
REMARK  Name = 
REMARK  0 active torsions:
REMARK  status: ('A' for Active; 'I' for Inactive)
REMARK                            x       y       z     vdW  Elec       q    Type
REMARK                         _______ _______ _______ _____ _____    ______ ____
ROOT
ATOM      1  C   UNL     1       6.684   4.674  14.695  0.00  0.00    +0.000 A 
ATOM      2  C   UNL     1       7.439   5.243  15.708  0.00  0.00    +0.000 A 
ATOM      3  C   UNL     1       6.922   5.173  16.989  0.00  0.00    +0.000 A 
ATOM      4  C   UNL     1       5.700   4.556  17.226  0.00  0.00    +0.000 A 
ATOM      5  C   UNL     1       5.016   4.019  16.155  0.00  0.00    +0.000 A 
ATOM      6  N   UNL     1       5.486   4.066  14.886  0.00  0.00    +0.000 NA
ATOM      7  C   UNL     1       5.314   4.583  18.677  0.00  0.00    +0.000 C 
ATOM      8  C   UNL     1       3.985   5.300  18.929  0.00  0.00    +0.000 C 
ATOM      9  C   UNL     1       3.121   4.337  19.719  0.00  0.00    +0.000 C 
ATOM     10  C   UNL     1       3.922   3.066  19.895  0.00  0.00    +0.000 C 
ATOM     11  N   UNL     1       5.216   3.239  19.253  0.00  0.00    +0.000 NA
ATOM     12  C   UNL     1       6.522   5.314  19.330  0.00  0.00    +0.000 C 
ATOM     13  C   UNL     1       7.528   5.711  18.238  0.00  0.00    +0.000 C 
ATOM     14  H   UNL     1       5.356   2.526  18.539  0.00  0.00    +0.000 HD
ENDROOT
TORSDOF 0
ENDMDL
MODEL 6
REMARK VINA RESULT:      -6.1      1.616      3.916
REMARK  Name = 
REMARK  0 active torsions:
REMARK  status: ('A' for Active; 'I' for Inactive)
REMARK                            x       y       z     vdW  Elec       q    Type
REMARK                         _______ _______ _______ _____ _____    ______ ____
ROOT
ATOM      1  C   UNL     1       6.152   5.306  14.785  0.00  0.00    +0.000 A 
ATOM      2  C   UNL     1       5.415   6.175  15.574  0.00  0.00    +0.000 A 
ATOM      3  C   UNL     1       4.757   5.627  16.661  0.00  0.00    +0.000 A 
ATOM      4  C   UNL     1       4.843   4.267  16.929  0.00  0.00    +0.000 A 
ATOM      5  C   UNL     1       5.598   3.477  16.086  0.00  0.00    +0.000 A 
ATOM      6  N   UNL     1       6.258   3.973  15.012  0.00  0.00    +0.000 NA
ATOM      7  C   UNL     1       4.061   3.870  18.148  0.00  0.00    +0.000 C 
ATOM      8  C   UNL     1       2.978   2.830  17.850  0.00  0.00    +0.000 C 
ATOM      9  C   UNL     1       3.206   1.684  18.816  0.00  0.00    +0.000 C 
ATOM     10  C   UNL     1       4.424   2.037  19.640  0.00  0.00    +0.000 C 
ATOM     11  N   UNL     1       4.918   3.336  19.210  0.00  0.00    +0.000 NA
ATOM     12  C   UNL     1       3.472   5.229  18.623  0.00  0.00    +0.000 C 
ATOM     13  C   UNL     1       3.900   6.338  17.649  0.00  0.00    +0.000 C 
ATOM     14  H   UNL     1       5.884   3.262  18.896  0.00  0.00    +0.000 HD
ENDROOT
TORSDOF 0
ENDMDL
MODEL 7
REMARK VINA RESULT:      -6.1      1.887      2.522
REMARK  Name = 
REMARK  0 active torsions:
REMARK  status: ('A' for Active; 'I' for Inactive)
REMARK                            x       y       z     vdW  Elec       q    Type
REMARK                         _______ _______ _______ _____ _____    ______ ____
ROOT
ATOM      1  C   UNL     1       1.966   4.527  19.015  0.00  0.00    +0.000 A 
ATOM      2  C   UNL     1       2.401   3.991  17.813  0.00  0.00    +0.000 A 
ATOM      3  C   UNL     1       3.720   4.222  17.466  0.00  0.00    +0.000 A 
ATOM      4  C   UNL     1       4.552   4.961  18.297  0.00  0.00    +0.000 A 
ATOM      5  C   UNL     1       4.031   5.459  19.474  0.00  0.00    +0.000 A 
ATOM      6  N   UNL     1       2.746   5.256  19.852  0.00  0.00    +0.000 NA
ATOM      7  C   UNL     1       5.941   5.099  17.745  0.00  0.00    +0.000 C 
ATOM      8  C   UNL     1       6.356   6.556  17.528  0.00  0.00    +0.000 C 
ATOM      9  C   UNL     1       7.673   6.741  18.255  0.00  0.00    +0.000 C 
ATOM     10  C   UNL     1       8.003   5.420  18.915  0.00  0.00    +0.000 C 
ATOM     11  N   UNL     1       6.947   4.468  18.604  0.00  0.00    +0.000 NA
ATOM     12  C   UNL     1       5.853   4.296  16.415  0.00  0.00    +0.000 C 
ATOM     13  C   UNL     1       4.422   3.766  16.235  0.00  0.00    +0.000 C 
ATOM     14  H   UNL     1       6.525   4.115  19.461  0.00  0.00    +0.000 HD
ENDROOT
TORSDOF 0
ENDMDL
MODEL 8
REMARK VINA RESULT:      -6.0      1.390      4.125
REMARK  Name = 
REMARK  0 active torsions:
REMARK  status: ('A' for Active; 'I' for Inactive)
REMARK                            x       y       z     vdW  Elec       q    Type
REMARK                         _______ _______ _______ _____ _____    ______ ____
ROOT
ATOM      1  C   UNL     1       7.054   6.136  16.991  0.00  0.00    +0.000 A 
ATOM      2  C   UNL     1       5.953   6.960  17.160  0.00  0.00    +0.000 A 
ATOM      3  C   UNL     1       4.770   6.354  17.542  0.00  0.00    +0.000 A 
ATOM      4  C   UNL     1       4.712   4.980  17.742  0.00  0.00    +0.000 A 
ATOM      5  C   UNL     1       5.859   4.238  17.548  0.00  0.00    +0.000 A 
ATOM      6  N   UNL     1       7.037   4.793  17.174  0.00  0.00    +0.000 NA
ATOM      7  C   UNL     1       3.344   4.516  18.153  0.00  0.00    +0.000 C 
ATOM      8  C   UNL     1       2.743   3.497  17.182  0.00  0.00    +0.000 C 
ATOM      9  C   UNL     1       2.337   2.297  18.016  0.00  0.00    +0.000 C 
ATOM     10  C   UNL     1       2.728   2.601  19.446  0.00  0.00    +0.000 C 
ATOM     11  N   UNL     1       3.337   3.921  19.492  0.00  0.00    +0.000 NA
ATOM     12  C   UNL     1       2.540   5.847  18.198  0.00  0.00    +0.000 C 
ATOM     13  C   UNL     1       3.455   7.009  17.778  0.00  0.00    +0.000 C 
ATOM     14  H   UNL     1       4.281   3.863  19.870  0.00  0.00    +0.000 HD
ENDROOT
TORSDOF 0
ENDMDL
MODEL 9
REMARK VINA RESULT:      -6.0      1.261      4.328
REMARK  Name = 
REMARK  0 active torsions:
REMARK  status: ('A' for Active; 'I' for Inactive)
REMARK                            x       y       z     vdW  Elec       q    Type
REMARK                         _______ _______ _______ _____ _____    ______ ____
ROOT
ATOM      1  C   UNL     1       7.130   4.978  15.304  0.00  0.00    +0.000 A 
ATOM      2  C   UNL     1       7.242   5.381  16.625  0.00  0.00    +0.000 A 
ATOM      3  C   UNL     1       6.233   4.989  17.486  0.00  0.00    +0.000 A 
ATOM      4  C   UNL     1       5.166   4.226  17.027  0.00  0.00    +0.000 A 
ATOM      5  C   UNL     1       5.137   3.873  15.693  0.00  0.00    +0.000 A 
ATOM      6  N   UNL     1       6.104   4.236  14.817  0.00  0.00    +0.000 NA
ATOM      7  C   UNL     1       4.181   3.904  18.113  0.00  0.00    +0.000 C 
ATOM      8  C   UNL     1       2.772   4.425  17.815  0.00  0.00    +0.000 C 
ATOM      9  C   UNL     1       1.837   3.240  17.953  0.00  0.00    +0.000 C 
ATOM     10  C   UNL     1       2.694   2.040  18.293  0.00  0.00    +0.000 C 
ATOM     11  N   UNL     1       4.083   2.464  18.367  0.00  0.00    +0.000 NA
ATOM     12  C   UNL     1       4.820   4.585  19.357  0.00  0.00    +0.000 C 
ATOM     13  C   UNL     1       6.115   5.298  18.938  0.00  0.00    +0.000 C 
ATOM     14  H   UNL     1       4.651   1.938  17.705  0.00  0.00    +0.000 HD
ENDROOT
TORSDOF 0
ENDMDL
