MODEL 1
REMARK VINA RESULT:      -7.5      0.000      0.000
REMARK  Name = 
REMARK  7 active torsions:
REMARK  status: ('A' for Active; 'I' for Inactive)
REMARK    1  A    between atoms: N_1  and  N_2
REMARK    2  A    between atoms: C_3  and  C_4
REMARK    3  A    between atoms: C_3  and  C_15
REMARK    4  A    between atoms: C_4  and  C_5
REMARK    5  A    between atoms: C_5  and  O_6
REMARK    6  A    between atoms: C_5  and  C_7
REMARK    7  A    between atoms: C_5  and  C_11
REMARK                            x       y       z     vdW  Elec       q    Type
REMARK                         _______ _______ _______ _____ _____    ______ ____
ROOT
ATOM      1  C   UNL     1       3.263   5.060  19.173  0.00  0.00    +0.000 C 
ENDROOT
BRANCH   1   3
ATOM      2  N   UNL     1       5.582   4.949  19.786  0.00  0.00    +0.000 NA
ATOM      3  C   UNL     1       4.742   5.016  18.792  0.00  0.00    +0.000 C 
BRANCH   3   4
ATOM      4  C   UNL     1       5.058   5.013  17.320  0.00  0.00    +0.000 A 
ATOM      5  C   UNL     1       5.042   6.198  16.580  0.00  0.00    +0.000 A 
ATOM      6  C   UNL     1       5.334   6.198  15.212  0.00  0.00    +0.000 A 
ATOM      7  C   UNL     1       5.682   5.008  14.577  0.00  0.00    +0.000 A 
ATOM      8  C   UNL     1       5.732   3.823  15.305  0.00  0.00    +0.000 A 
ATOM      9  C   UNL     1       5.414   3.822  16.667  0.00  0.00    +0.000 A 
ENDBRANCH   3   4
BRANCH   2  10
ATOM     10  N   UNL     1       6.901   5.002  19.549  0.00  0.00    +0.000 N 
ATOM     11  H   UNL     1       7.407   5.210  20.414  0.00  0.00    +0.000 HD
ATOM     12  H   UNL     1       7.158   5.737  18.883  0.00  0.00    +0.000 HD
ENDBRANCH   2  10
ENDBRANCH   1   3
BRANCH   1  13
ATOM     13  C   UNL     1       2.568   3.697  19.455  0.00  0.00    +0.000 C 
BRANCH  13  14
ATOM     14  C   UNL     1       1.659   3.769  20.696  0.00  0.00    +0.000 C 
ATOM     15  F   UNL     1       0.649   4.659  20.530  0.00  0.00    +0.000 F 
ATOM     16  F   UNL     1       1.092   2.604  21.064  0.00  0.00    +0.000 F 
ATOM     17  F   UNL     1       2.362   4.174  21.787  0.00  0.00    +0.000 F 
ENDBRANCH  13  14
BRANCH  13  18
ATOM     18  C   UNL     1       1.724   3.342  18.212  0.00  0.00    +0.000 C 
ATOM     19  F   UNL     1       1.303   4.457  17.557  0.00  0.00    +0.000 F 
ATOM     20  F   UNL     1       2.456   2.643  17.305  0.00  0.00    +0.000 F 
ATOM     21  F   UNL     1       0.614   2.618  18.443  0.00  0.00    +0.000 F 
ENDBRANCH  13  18
BRANCH  13  22
ATOM     22  O   UNL     1       3.646   2.724  19.645  0.00  0.00    +0.000 OA
ATOM     23  H   UNL     1       3.996   2.536  18.742  0.00  0.00    +0.000 HD
ENDBRANCH  13  22
ENDBRANCH   1  13
TORSDOF 7
ENDMDL
MODEL 2
REMARK VINA RESULT:      -7.5      0.235      1.331
REMARK  Name = 
REMARK  7 active torsions:
REMARK  status: ('A' for Active; 'I' for Inactive)
REMARK    1  A    between atoms: N_1  and  N_2
REMARK    2  A    between atoms: C_3  and  C_4
REMARK    3  A    between atoms: C_3  and  C_15
REMARK    4  A    between atoms: C_4  and  C_5
REMARK    5  A    between atoms: C_5  and  O_6
REMARK    6  A    between atoms: C_5  and  C_7
REMARK    7  A    between atoms: C_5  and  C_11
REMARK                            x       y       z     vdW  Elec       q    Type
REMARK                         _______ _______ _______ _____ _____    ______ ____
ROOT
ATOM      1  C   UNL     1       3.095   5.052  18.951  0.00  0.00    +0.000 C 
ENDROOT
BRANCH   1   3
ATOM      2  N   UNL     1       5.368   5.115  19.720  0.00  0.00    +0.000 NA
ATOM      3  C   UNL     1       4.596   5.075  18.671  0.00  0.00    +0.000 C 
BRANCH   3   4
ATOM      4  C   UNL     1       5.013   5.006  17.225  0.00  0.00    +0.000 A 
ATOM      5  C   UNL     1       5.366   3.789  16.638  0.00  0.00    +0.000 A 
ATOM      6  C   UNL     1       5.755   3.722  15.296  0.00  0.00    +0.000 A 
ATOM      7  C   UNL     1       5.758   4.876  14.516  0.00  0.00    +0.000 A 
ATOM      8  C   UNL     1       5.380   6.092  15.077  0.00  0.00    +0.000 A 
ATOM      9  C   UNL     1       5.018   6.161  16.426  0.00  0.00    +0.000 A 
ENDBRANCH   3   4
BRANCH   2  10
ATOM     10  N   UNL     1       6.696   5.234  19.567  0.00  0.00    +0.000 N 
ATOM     11  H   UNL     1       6.909   5.965  18.883  0.00  0.00    +0.000 HD
ATOM     12  H   UNL     1       7.135   4.378  19.217  0.00  0.00    +0.000 HD
ENDBRANCH   2  10
ENDBRANCH   1   3
BRANCH   1  13
ATOM     13  C   UNL     1       2.480   3.690  19.383  0.00  0.00    +0.000 C 
BRANCH  13  14
ATOM     14  C   UNL     1       1.637   3.829  20.664  0.00  0.00    +0.000 C 
ATOM     15  F   UNL     1       2.279   4.553  21.614  0.00  0.00    +0.000 F 
ATOM     16  F   UNL     1       0.425   4.395  20.499  0.00  0.00    +0.000 F 
ATOM     17  F   UNL     1       1.380   2.610  21.208  0.00  0.00    +0.000 F 
ENDBRANCH  13  14
BRANCH  13  18
ATOM     18  C   UNL     1       1.589   3.195  18.225  0.00  0.00    +0.000 C 
ATOM     19  F   UNL     1       1.020   4.232  17.552  0.00  0.00    +0.000 F 
ATOM     20  F   UNL     1       2.317   2.518  17.299  0.00  0.00    +0.000 F 
ATOM     21  F   UNL     1       0.570   2.387  18.570  0.00  0.00    +0.000 F 
ENDBRANCH  13  18
BRANCH  13  22
ATOM     22  O   UNL     1       3.611   2.783  19.591  0.00  0.00    +0.000 OA
ATOM     23  H   UNL     1       3.261   1.878  19.415  0.00  0.00    +0.000 HD
ENDBRANCH  13  22
ENDBRANCH   1  13
TORSDOF 7
ENDMDL
MODEL 3
REMARK VINA RESULT:      -7.4      0.161      1.386
REMARK  Name = 
REMARK  7 active torsions:
REMARK  status: ('A' for Active; 'I' for Inactive)
REMARK    1  A    between atoms: N_1  and  N_2
REMARK    2  A    between atoms: C_3  and  C_4
REMARK    3  A    between atoms: C_3  and  C_15
REMARK    4  A    between atoms: C_4  and  C_5
REMARK    5  A    between atoms: C_5  and  O_6
REMARK    6  A    between atoms: C_5  and  C_7
REMARK    7  A    between atoms: C_5  and  C_11
REMARK                            x       y       z     vdW  Elec       q    Type
REMARK                         _______ _______ _______ _____ _____    ______ ____
ROOT
ATOM      1  C   UNL     1       3.228   4.935  19.145  0.00  0.00    +0.000 C 
ENDROOT
BRANCH   1   3
ATOM      2  N   UNL     1       5.539   4.874  19.796  0.00  0.00    +0.000 NA
ATOM      3  C   UNL     1       4.714   4.937  18.789  0.00  0.00    +0.000 C 
BRANCH   3   4
ATOM      4  C   UNL     1       5.055   4.968  17.322  0.00  0.00    +0.000 A 
ATOM      5  C   UNL     1       5.367   3.794  16.633  0.00  0.00    +0.000 A 
ATOM      6  C   UNL     1       5.686   3.820  15.271  0.00  0.00    +0.000 A 
ATOM      7  C   UNL     1       5.658   5.026  14.576  0.00  0.00    +0.000 A 
ATOM      8  C   UNL     1       5.320   6.201  15.239  0.00  0.00    +0.000 A 
ATOM      9  C   UNL     1       5.028   6.176  16.607  0.00  0.00    +0.000 A 
ENDBRANCH   3   4
BRANCH   2  10
ATOM     10  N   UNL     1       6.860   4.966  19.582  0.00  0.00    +0.000 N 
ATOM     11  H   UNL     1       7.370   4.825  20.459  0.00  0.00    +0.000 HD
ATOM     12  H   UNL     1       7.145   5.884  19.229  0.00  0.00    +0.000 HD
ENDBRANCH   2  10
ENDBRANCH   1   3
BRANCH   1  13
ATOM     13  C   UNL     1       2.577   3.554  19.442  0.00  0.00    +0.000 C 
BRANCH  13  14
ATOM     14  C   UNL     1       1.660   3.612  20.677  0.00  0.00    +0.000 C 
ATOM     15  F   UNL     1       0.547   4.351  20.444  0.00  0.00    +0.000 F 
ATOM     16  F   UNL     1       1.243   2.419  21.143  0.00  0.00    +0.000 F 
ATOM     17  F   UNL     1       2.301   4.191  21.727  0.00  0.00    +0.000 F 
ENDBRANCH  13  14
BRANCH  13  18
ATOM     18  C   UNL     1       1.752   3.155  18.200  0.00  0.00    +0.000 C 
ATOM     19  F   UNL     1       0.723   2.327  18.528  0.00  0.00    +0.000 F 
ATOM     20  F   UNL     1       1.174   4.240  17.623  0.00  0.00    +0.000 F 
ATOM     21  F   UNL     1       2.427   2.522  17.224  0.00  0.00    +0.000 F 
ENDBRANCH  13  18
BRANCH  13  22
ATOM     22  O   UNL     1       3.686   2.620  19.650  0.00  0.00    +0.000 OA
ATOM     23  H   UNL     1       3.438   2.086  20.441  0.00  0.00    +0.000 HD
ENDBRANCH  13  22
ENDBRANCH   1  13
TORSDOF 7
ENDMDL
MODEL 4
REMARK VINA RESULT:      -7.4      0.123      1.217
REMARK  Name = 
REMARK  7 active torsions:
REMARK  status: ('A' for Active; 'I' for Inactive)
REMARK    1  A    between atoms: N_1  and  N_2
REMARK    2  A    between atoms: C_3  and  C_4
REMARK    3  A    between atoms: C_3  and  C_15
REMARK    4  A    between atoms: C_4  and  C_5
REMARK    5  A    between atoms: C_5  and  O_6
REMARK    6  A    between atoms: C_5  and  C_7
REMARK    7  A    between atoms: C_5  and  C_11
REMARK                            x       y       z     vdW  Elec       q    Type
REMARK                         _______ _______ _______ _____ _____    ______ ____
ROOT
ATOM      1  C   UNL     1       3.232   4.993  19.157  0.00  0.00    +0.000 C 
ENDROOT
BRANCH   1   3
ATOM      2  N   UNL     1       5.551   4.932  19.777  0.00  0.00    +0.000 NA
ATOM      3  C   UNL     1       4.713   4.987  18.780  0.00  0.00    +0.000 C 
BRANCH   3   4
ATOM      4  C   UNL     1       5.034   5.002  17.309  0.00  0.00    +0.000 A 
ATOM      5  C   UNL     1       5.050   6.199  16.591  0.00  0.00    +0.000 A 
ATOM      6  C   UNL     1       5.346   6.216  15.223  0.00  0.00    +0.000 A 
ATOM      7  C   UNL     1       5.668   5.030  14.569  0.00  0.00    +0.000 A 
ATOM      8  C   UNL     1       5.687   3.831  15.276  0.00  0.00    +0.000 A 
ATOM      9  C   UNL     1       5.364   3.814  16.637  0.00  0.00    +0.000 A 
ENDBRANCH   3   4
BRANCH   2  10
ATOM     10  N   UNL     1       6.870   5.018  19.545  0.00  0.00    +0.000 N 
ATOM     11  H   UNL     1       7.081   5.872  19.020  0.00  0.00    +0.000 HD
ATOM     12  H   UNL     1       7.228   4.241  18.983  0.00  0.00    +0.000 HD
ENDBRANCH   2  10
ENDBRANCH   1   3
BRANCH   1  13
ATOM     13  C   UNL     1       2.568   3.613  19.425  0.00  0.00    +0.000 C 
BRANCH  13  14
ATOM     14  C   UNL     1       1.662   3.651  20.669  0.00  0.00    +0.000 C 
ATOM     15  F   UNL     1       1.247   2.411  21.028  0.00  0.00    +0.000 F 
ATOM     16  F   UNL     1       2.210   4.208  21.766  0.00  0.00    +0.000 F 
ATOM     17  F   UNL     1       0.542   4.384  20.429  0.00  0.00    +0.000 F 
ENDBRANCH  13  14
BRANCH  13  18
ATOM     18  C   UNL     1       1.729   3.252  18.181  0.00  0.00    +0.000 C 
ATOM     19  F   UNL     1       0.653   2.487  18.507  0.00  0.00    +0.000 F 
ATOM     20  F   UNL     1       1.217   4.365  17.594  0.00  0.00    +0.000 F 
ATOM     21  F   UNL     1       2.373   2.576  17.213  0.00  0.00    +0.000 F 
ENDBRANCH  13  18
BRANCH  13  22
ATOM     22  O   UNL     1       3.668   2.662  19.601  0.00  0.00    +0.000 OA
ATOM     23  H   UNL     1       3.343   1.808  19.230  0.00  0.00    +0.000 HD
ENDBRANCH  13  22
ENDBRANCH   1  13
TORSDOF 7
ENDMDL
MODEL 5
REMARK VINA RESULT:      -7.4      0.244      1.612
REMARK  Name = 
REMARK  7 active torsions:
REMARK  status: ('A' for Active; 'I' for Inactive)
REMARK    1  A    between atoms: N_1  and  N_2
REMARK    2  A    between atoms: C_3  and  C_4
REMARK    3  A    between atoms: C_3  and  C_15
REMARK    4  A    between atoms: C_4  and  C_5
REMARK    5  A    between atoms: C_5  and  O_6
REMARK    6  A    between atoms: C_5  and  C_7
REMARK    7  A    between atoms: C_5  and  C_11
REMARK                            x       y       z     vdW  Elec       q    Type
REMARK                         _______ _______ _______ _____ _____    ______ ____
ROOT
ATOM      1  C   UNL     1       3.276   4.902  19.167  0.00  0.00    +0.000 C 
ENDROOT
BRANCH   1   3
ATOM      2  N   UNL     1       5.593   4.854  19.796  0.00  0.00    +0.000 NA
ATOM      3  C   UNL     1       4.758   4.927  18.798  0.00  0.00    +0.000 C 
BRANCH   3   4
ATOM      4  C   UNL     1       5.086   4.989  17.329  0.00  0.00    +0.000 A 
ATOM      5  C   UNL     1       5.420   3.833  16.620  0.00  0.00    +0.000 A 
ATOM      6  C   UNL     1       5.726   3.887  15.256  0.00  0.00    +0.000 A 
ATOM      7  C   UNL     1       5.664   5.103  14.579  0.00  0.00    +0.000 A 
ATOM      8  C   UNL     1       5.302   6.260  15.263  0.00  0.00    +0.000 A 
ATOM      9  C   UNL     1       5.023   6.207  16.633  0.00  0.00    +0.000 A 
ENDBRANCH   3   4
BRANCH   2  10
ATOM     10  N   UNL     1       6.911   4.965  19.573  0.00  0.00    +0.000 N 
ATOM     11  H   UNL     1       7.234   5.903  19.824  0.00  0.00    +0.000 HD
ATOM     12  H   UNL     1       7.162   4.828  18.590  0.00  0.00    +0.000 HD
ENDBRANCH   2  10
ENDBRANCH   1   3
BRANCH   1  13
ATOM     13  C   UNL     1       2.635   3.507  19.415  0.00  0.00    +0.000 C 
BRANCH  13  14
ATOM     14  C   UNL     1       1.777   3.495  20.693  0.00  0.00    +0.000 C 
ATOM     15  F   UNL     1       1.483   2.233  21.092  0.00  0.00    +0.000 F 
ATOM     16  F   UNL     1       2.317   4.121  21.757  0.00  0.00    +0.000 F 
ATOM     17  F   UNL     1       0.591   4.125  20.484  0.00  0.00    +0.000 F 
ENDBRANCH  13  14
BRANCH  13  18
ATOM     18  C   UNL     1       1.753   3.177  18.193  0.00  0.00    +0.000 C 
ATOM     19  F   UNL     1       2.483   2.642  17.178  0.00  0.00    +0.000 F 
ATOM     20  F   UNL     1       0.817   2.241  18.500  0.00  0.00    +0.000 F 
ATOM     21  F   UNL     1       1.088   4.214  17.651  0.00  0.00    +0.000 F 
ENDBRANCH  13  18
BRANCH  13  22
ATOM     22  O   UNL     1       3.750   2.562  19.519  0.00  0.00    +0.000 OA
ATOM     23  H   UNL     1       3.647   2.125  20.397  0.00  0.00    +0.000 HD
ENDBRANCH  13  22
ENDBRANCH   1  13
TORSDOF 7
ENDMDL
MODEL 6
REMARK VINA RESULT:      -7.2      1.105      2.579
REMARK  Name = 
REMARK  7 active torsions:
REMARK  status: ('A' for Active; 'I' for Inactive)
REMARK    1  A    between atoms: N_1  and  N_2
REMARK    2  A    between atoms: C_3  and  C_4
REMARK    3  A    between atoms: C_3  and  C_15
REMARK    4  A    between atoms: C_4  and  C_5
REMARK    5  A    between atoms: C_5  and  O_6
REMARK    6  A    between atoms: C_5  and  C_7
REMARK    7  A    between atoms: C_5  and  C_11
REMARK                            x       y       z     vdW  Elec       q    Type
REMARK                         _______ _______ _______ _____ _____    ______ ____
ROOT
ATOM      1  C   UNL     1       4.231   3.368  19.181  0.00  0.00    +0.000 C 
ENDROOT
BRANCH   1   3
ATOM      2  N   UNL     1       6.192   4.624  19.767  0.00  0.00    +0.000 NA
ATOM      3  C   UNL     1       5.394   4.281  18.795  0.00  0.00    +0.000 C 
BRANCH   3   4
ATOM      4  C   UNL     1       5.510   4.645  17.339  0.00  0.00    +0.000 A 
ATOM      5  C   UNL     1       5.950   3.710  16.399  0.00  0.00    +0.000 A 
ATOM      6  C   UNL     1       6.061   4.045  15.045  0.00  0.00    +0.000 A 
ATOM      7  C   UNL     1       5.694   5.317  14.614  0.00  0.00    +0.000 A 
ATOM      8  C   UNL     1       5.224   6.252  15.532  0.00  0.00    +0.000 A 
ATOM      9  C   UNL     1       5.140   5.922  16.889  0.00  0.00    +0.000 A 
ENDBRANCH   3   4
BRANCH   2  10
ATOM     10  N   UNL     1       7.183   5.498  19.538  0.00  0.00    +0.000 N 
ATOM     11  H   UNL     1       7.936   5.049  19.009  0.00  0.00    +0.000 HD
ATOM     12  H   UNL     1       7.610   5.853  20.399  0.00  0.00    +0.000 HD
ENDBRANCH   2  10
ENDBRANCH   1   3
BRANCH   1  13
ATOM     13  C   UNL     1       2.878   4.056  19.521  0.00  0.00    +0.000 C 
BRANCH  13  14
ATOM     14  C   UNL     1       2.014   4.263  18.264  0.00  0.00    +0.000 C 
ATOM     15  F   UNL     1       2.502   3.578  17.200  0.00  0.00    +0.000 F 
ATOM     16  F   UNL     1       0.719   3.913  18.389  0.00  0.00    +0.000 F 
ATOM     17  F   UNL     1       1.987   5.574  17.907  0.00  0.00    +0.000 F 
ENDBRANCH  13  14
BRANCH  13  18
ATOM     18  C   UNL     1       2.133   3.145  20.520  0.00  0.00    +0.000 C 
ATOM     19  F   UNL     1       2.922   2.810  21.576  0.00  0.00    +0.000 F 
ATOM     20  F   UNL     1       1.059   3.780  21.057  0.00  0.00    +0.000 F 
ATOM     21  F   UNL     1       1.677   1.980  20.026  0.00  0.00    +0.000 F 
ENDBRANCH  13  18
BRANCH  13  22
ATOM     22  O   UNL     1       3.221   5.337  20.144  0.00  0.00    +0.000 OA
ATOM     23  H   UNL     1       2.991   6.026  19.477  0.00  0.00    +0.000 HD
ENDBRANCH  13  22
ENDBRANCH   1  13
TORSDOF 7
ENDMDL
MODEL 7
REMARK VINA RESULT:      -7.2      1.107      2.368
REMARK  Name = 
REMARK  7 active torsions:
REMARK  status: ('A' for Active; 'I' for Inactive)
REMARK    1  A    between atoms: N_1  and  N_2
REMARK    2  A    between atoms: C_3  and  C_4
REMARK    3  A    between atoms: C_3  and  C_15
REMARK    4  A    between atoms: C_4  and  C_5
REMARK    5  A    between atoms: C_5  and  O_6
REMARK    6  A    between atoms: C_5  and  C_7
REMARK    7  A    between atoms: C_5  and  C_11
REMARK                            x       y       z     vdW  Elec       q    Type
REMARK                         _______ _______ _______ _____ _____    ______ ____
ROOT
ATOM      1  C   UNL     1       4.269   3.379  19.235  0.00  0.00    +0.000 C 
ENDROOT
BRANCH   1   3
ATOM      2  N   UNL     1       6.231   4.653  19.776  0.00  0.00    +0.000 NA
ATOM      3  C   UNL     1       5.410   4.308  18.824  0.00  0.00    +0.000 C 
BRANCH   3   4
ATOM      4  C   UNL     1       5.483   4.682  17.367  0.00  0.00    +0.000 A 
ATOM      5  C   UNL     1       5.122   5.961  16.937  0.00  0.00    +0.000 A 
ATOM      6  C   UNL     1       5.187   6.312  15.584  0.00  0.00    +0.000 A 
ATOM      7  C   UNL     1       5.652   5.390  14.650  0.00  0.00    +0.000 A 
ATOM      8  C   UNL     1       6.045   4.121  15.066  0.00  0.00    +0.000 A 
ATOM      9  C   UNL     1       5.953   3.764  16.415  0.00  0.00    +0.000 A 
ENDBRANCH   3   4
BRANCH   2  10
ATOM     10  N   UNL     1       7.206   5.540  19.527  0.00  0.00    +0.000 N 
ATOM     11  H   UNL     1       8.111   5.161  19.818  0.00  0.00    +0.000 HD
ATOM     12  H   UNL     1       7.085   6.419  20.037  0.00  0.00    +0.000 HD
ENDBRANCH   2  10
ENDBRANCH   1   3
BRANCH   1  13
ATOM     13  C   UNL     1       2.896   4.043  19.540  0.00  0.00    +0.000 C 
BRANCH  13  14
ATOM     14  C   UNL     1       2.046   4.202  18.266  0.00  0.00    +0.000 C 
ATOM     15  F   UNL     1       2.538   3.468  17.238  0.00  0.00    +0.000 F 
ATOM     16  F   UNL     1       0.747   3.868  18.394  0.00  0.00    +0.000 F 
ATOM     17  F   UNL     1       2.033   5.497  17.852  0.00  0.00    +0.000 F 
ENDBRANCH  13  14
BRANCH  13  18
ATOM     18  C   UNL     1       2.157   3.139  20.549  0.00  0.00    +0.000 C 
ATOM     19  F   UNL     1       2.965   2.777  21.582  0.00  0.00    +0.000 F 
ATOM     20  F   UNL     1       1.110   3.790  21.119  0.00  0.00    +0.000 F 
ATOM     21  F   UNL     1       1.665   1.988  20.057  0.00  0.00    +0.000 F 
ENDBRANCH  13  18
BRANCH  13  22
ATOM     22  O   UNL     1       3.200   5.345  20.138  0.00  0.00    +0.000 OA
ATOM     23  H   UNL     1       3.282   5.180  21.107  0.00  0.00    +0.000 HD
ENDBRANCH  13  22
ENDBRANCH   1  13
TORSDOF 7
ENDMDL
MODEL 8
REMARK VINA RESULT:      -7.1      1.086      2.568
REMARK  Name = 
REMARK  7 active torsions:
REMARK  status: ('A' for Active; 'I' for Inactive)
REMARK    1  A    between atoms: N_1  and  N_2
REMARK    2  A    between atoms: C_3  and  C_4
REMARK    3  A    between atoms: C_3  and  C_15
REMARK    4  A    between atoms: C_4  and  C_5
REMARK    5  A    between atoms: C_5  and  O_6
REMARK    6  A    between atoms: C_5  and  C_7
REMARK    7  A    between atoms: C_5  and  C_11
REMARK                            x       y       z     vdW  Elec       q    Type
REMARK                         _______ _______ _______ _____ _____    ______ ____
ROOT
ATOM      1  C   UNL     1       4.190   3.496  19.256  0.00  0.00    +0.000 C 
ENDROOT
BRANCH   1   3
ATOM      2  N   UNL     1       6.221   4.657  19.799  0.00  0.00    +0.000 NA
ATOM      3  C   UNL     1       5.391   4.346  18.843  0.00  0.00    +0.000 C 
BRANCH   3   4
ATOM      4  C   UNL     1       5.503   4.689  17.381  0.00  0.00    +0.000 A 
ATOM      5  C   UNL     1       5.924   3.736  16.451  0.00  0.00    +0.000 A 
ATOM      6  C   UNL     1       6.030   4.051  15.092  0.00  0.00    +0.000 A 
ATOM      7  C   UNL     1       5.678   5.322  14.646  0.00  0.00    +0.000 A 
ATOM      8  C   UNL     1       5.226   6.275  15.555  0.00  0.00    +0.000 A 
ATOM      9  C   UNL     1       5.147   5.965  16.917  0.00  0.00    +0.000 A 
ENDBRANCH   3   4
BRANCH   2  10
ATOM     10  N   UNL     1       7.251   5.478  19.546  0.00  0.00    +0.000 N 
ATOM     11  H   UNL     1       7.540   5.391  18.568  0.00  0.00    +0.000 HD
ATOM     12  H   UNL     1       8.078   5.266  20.110  0.00  0.00    +0.000 HD
ENDBRANCH   2  10
ENDBRANCH   1   3
BRANCH   1  13
ATOM     13  C   UNL     1       2.847   4.244  19.494  0.00  0.00    +0.000 C 
BRANCH  13  14
ATOM     14  C   UNL     1       2.043   4.395  18.190  0.00  0.00    +0.000 C 
ATOM     15  F   UNL     1       1.913   5.695  17.827  0.00  0.00    +0.000 F 
ATOM     16  F   UNL     1       2.544   3.743  17.123  0.00  0.00    +0.000 F 
ATOM     17  F   UNL     1       0.784   3.903  18.339  0.00  0.00    +0.000 F 
ENDBRANCH  13  14
BRANCH  13  18
ATOM     18  C   UNL     1       2.033   3.420  20.515  0.00  0.00    +0.000 C 
ATOM     19  F   UNL     1       1.838   2.144  20.087  0.00  0.00    +0.000 F 
ATOM     20  F   UNL     1       2.694   3.310  21.696  0.00  0.00    +0.000 F 
ATOM     21  F   UNL     1       0.809   3.893  20.809  0.00  0.00    +0.000 F 
ENDBRANCH  13  18
BRANCH  13  22
ATOM     22  O   UNL     1       3.204   5.551  20.050  0.00  0.00    +0.000 OA
ATOM     23  H   UNL     1       4.149   5.694  19.806  0.00  0.00    +0.000 HD
ENDBRANCH  13  22
ENDBRANCH   1  13
TORSDOF 7
ENDMDL
MODEL 9
REMARK VINA RESULT:      -7.0      1.066      1.185
REMARK  Name = 
REMARK  7 active torsions:
REMARK  status: ('A' for Active; 'I' for Inactive)
REMARK    1  A    between atoms: N_1  and  N_2
REMARK    2  A    between atoms: C_3  and  C_4
REMARK    3  A    between atoms: C_3  and  C_15
REMARK    4  A    between atoms: C_4  and  C_5
REMARK    5  A    between atoms: C_5  and  O_6
REMARK    6  A    between atoms: C_5  and  C_7
REMARK    7  A    between atoms: C_5  and  C_11
REMARK                            x       y       z     vdW  Elec       q    Type
REMARK                         _______ _______ _______ _____ _____    ______ ____
ROOT
ATOM      1  C   UNL     1       4.061   4.782  19.397  0.00  0.00    +0.000 C 
ENDROOT
BRANCH   1   3
ATOM      2  N   UNL     1       6.396   5.141  19.829  0.00  0.00    +0.000 NA
ATOM      3  C   UNL     1       5.485   5.033  18.903  0.00  0.00    +0.000 C 
BRANCH   3   4
ATOM      4  C   UNL     1       5.681   5.084  17.411  0.00  0.00    +0.000 A 
ATOM      5  C   UNL     1       5.070   6.077  16.641  0.00  0.00    +0.000 A 
ATOM      6  C   UNL     1       5.248   6.127  15.254  0.00  0.00    +0.000 A 
ATOM      7  C   UNL     1       6.075   5.197  14.628  0.00  0.00    +0.000 A 
ATOM      8  C   UNL     1       6.716   4.219  15.384  0.00  0.00    +0.000 A 
ATOM      9  C   UNL     1       6.514   4.156  16.766  0.00  0.00    +0.000 A 
ENDBRANCH   3   4
BRANCH   2  10
ATOM     10  N   UNL     1       7.655   5.455  19.491  0.00  0.00    +0.000 N 
ATOM     11  H   UNL     1       7.973   4.862  18.720  0.00  0.00    +0.000 HD
ATOM     12  H   UNL     1       8.321   5.313  20.256  0.00  0.00    +0.000 HD
ENDBRANCH   2  10
ENDBRANCH   1   3
BRANCH   1  13
ATOM     13  C   UNL     1       3.650   3.302  19.640  0.00  0.00    +0.000 C 
BRANCH  13  14
ATOM     14  C   UNL     1       2.692   3.168  20.837  0.00  0.00    +0.000 C 
ATOM     15  F   UNL     1       2.552   4.340  21.504  0.00  0.00    +0.000 F 
ATOM     16  F   UNL     1       1.449   2.742  20.537  0.00  0.00    +0.000 F 
ATOM     17  F   UNL     1       3.162   2.261  21.733  0.00  0.00    +0.000 F 
ENDBRANCH  13  14
BRANCH  13  18
ATOM     18  C   UNL     1       2.955   2.798  18.357  0.00  0.00    +0.000 C 
ATOM     19  F   UNL     1       2.168   3.760  17.804  0.00  0.00    +0.000 F 
ATOM     20  F   UNL     1       3.863   2.477  17.399  0.00  0.00    +0.000 F 
ATOM     21  F   UNL     1       2.161   1.722  18.503  0.00  0.00    +0.000 F 
ENDBRANCH  13  18
BRANCH  13  22
ATOM     22  O   UNL     1       4.896   2.569  19.875  0.00  0.00    +0.000 OA
ATOM     23  H   UNL     1       5.013   1.985  19.089  0.00  0.00    +0.000 HD
ENDBRANCH  13  22
ENDBRANCH   1  13
TORSDOF 7
ENDMDL
