MODEL 1
REMARK VINA RESULT:      -7.3      0.000      0.000
REMARK  Name = 
REMARK  10 active torsions:
REMARK  status: ('A' for Active; 'I' for Inactive)
REMARK    1  A    between atoms: C_1  and  O_2
REMARK    2  A    between atoms: O_2  and  C_3
REMARK    3  A    between atoms: C_8  and  C_9
REMARK    4  A    between atoms: C_9  and  N_10
REMARK    5  A    between atoms: C_11  and  C_13
REMARK    6  A    between atoms: C_13  and  N_14
REMARK    7  A    between atoms: N_14  and  C_15
REMARK    8  A    between atoms: N_14  and  S_23
REMARK    9  A    between atoms: C_15  and  C_16
REMARK   10  A    between atoms: S_23  and  C_24
REMARK                            x       y       z     vdW  Elec       q    Type
REMARK                         _______ _______ _______ _____ _____    ______ ____
ROOT
ATOM      1  C   UNL     1       3.371   3.350  20.141  0.00  0.00    +0.000 C 
ENDROOT
BRANCH   1   3
ATOM      2  N   UNL     1       2.135   5.433  20.854  0.00  0.00    +0.000 N 
ATOM      3  C   UNL     1       2.414   4.110  21.050  0.00  0.00    +0.000 C 
ATOM      4  O   UNL     1       1.805   3.508  21.939  0.00  0.00    +0.000 OA
ATOM      5  H   UNL     1       1.499   5.820  21.543  0.00  0.00    +0.000 HD
BRANCH   2   6
ATOM      6  C   UNL     1       2.931   6.381  20.116  0.00  0.00    +0.000 C 
BRANCH   6  12
ATOM      7  C   UNL     1       1.428   8.431  20.288  0.00  0.00    +0.000 A 
ATOM      8  C   UNL     1       0.884   9.559  19.665  0.00  0.00    +0.000 A 
ATOM      9  C   UNL     1       1.145   9.826  18.318  0.00  0.00    +0.000 A 
ATOM     10  C   UNL     1       1.918   8.952  17.564  0.00  0.00    +0.000 A 
ATOM     11  C   UNL     1       2.430   7.809  18.160  0.00  0.00    +0.000 A 
ATOM     12  C   UNL     1       2.195   7.539  19.522  0.00  0.00    +0.000 A 
BRANCH   7  14
ATOM     13  C   UNL     1       0.051   8.571  22.209  0.00  0.00    +0.000 C 
ATOM     14  O   UNL     1       1.274   8.133  21.618  0.00  0.00    +0.000 OA
ENDBRANCH   7  14
ENDBRANCH   6  12
ENDBRANCH   2   6
ENDBRANCH   1   3
BRANCH   1  15
ATOM     15  N   UNL     1       3.416   3.590  18.681  0.00  0.00    +0.000 NA
BRANCH  15  16
ATOM     16  S   UNL     1       1.978   3.381  17.827  0.00  0.00    +0.000 S 
ATOM     17  C   UNL     1       1.171   2.084  18.739  0.00  0.00    +0.000 C 
ATOM     18  O   UNL     1       1.195   4.589  17.999  0.00  0.00    +0.000 OA
ATOM     19  O   UNL     1       2.298   2.888  16.509  0.00  0.00    +0.000 OA
ENDBRANCH  15  16
BRANCH  15  20
ATOM     20  C   UNL     1       4.686   3.419  17.958  0.00  0.00    +0.000 C 
BRANCH  20  21
ATOM     21  C   UNL     1       5.539   4.632  17.750  0.00  0.00    +0.000 A 
ATOM     22  C   UNL     1       5.079   5.695  16.962  0.00  0.00    +0.000 A 
ATOM     23  C   UNL     1       5.806   6.883  16.897  0.00  0.00    +0.000 A 
ATOM     24  C   UNL     1       7.001   7.006  17.606  0.00  0.00    +0.000 A 
ATOM     25 CL   UNL     1       7.870   8.489  17.573  0.00  0.00    +0.000 Cl
ATOM     26  C   UNL     1       7.482   5.946  18.367  0.00  0.00    +0.000 A 
ATOM     27  C   UNL     1       6.748   4.768  18.448  0.00  0.00    +0.000 A 
ENDBRANCH  20  21
ENDBRANCH  15  20
ENDBRANCH   1  15
TORSDOF 8
ENDMDL
MODEL 2
REMARK VINA RESULT:      -7.1      5.255      7.081
REMARK  Name = 
REMARK  10 active torsions:
REMARK  status: ('A' for Active; 'I' for Inactive)
REMARK    1  A    between atoms: C_1  and  O_2
REMARK    2  A    between atoms: O_2  and  C_3
REMARK    3  A    between atoms: C_8  and  C_9
REMARK    4  A    between atoms: C_9  and  N_10
REMARK    5  A    between atoms: C_11  and  C_13
REMARK    6  A    between atoms: C_13  and  N_14
REMARK    7  A    between atoms: N_14  and  C_15
REMARK    8  A    between atoms: N_14  and  S_23
REMARK    9  A    between atoms: C_15  and  C_16
REMARK   10  A    between atoms: S_23  and  C_24
REMARK                            x       y       z     vdW  Elec       q    Type
REMARK                         _______ _______ _______ _____ _____    ______ ____
ROOT
ATOM      1  C   UNL     1       7.292   7.412  17.040  0.00  0.00    +0.000 C 
ENDROOT
BRANCH   1   3
ATOM      2  N   UNL     1       8.543   8.758  18.772  0.00  0.00    +0.000 N 
ATOM      3  C   UNL     1       8.105   7.545  18.321  0.00  0.00    +0.000 C 
ATOM      4  O   UNL     1       8.311   6.550  19.023  0.00  0.00    +0.000 OA
ATOM      5  H   UNL     1       9.090   8.701  19.625  0.00  0.00    +0.000 HD
BRANCH   2   6
ATOM      6  C   UNL     1       8.696   9.962  17.994  0.00  0.00    +0.000 C 
BRANCH   6  12
ATOM      7  C   UNL     1       8.976  12.459  18.415  0.00  0.00    +0.000 A 
ATOM      8  C   UNL     1       9.511  13.475  19.214  0.00  0.00    +0.000 A 
ATOM      9  C   UNL     1      10.322  13.169  20.309  0.00  0.00    +0.000 A 
ATOM     10  C   UNL     1      10.644  11.849  20.600  0.00  0.00    +0.000 A 
ATOM     11  C   UNL     1      10.154  10.835  19.791  0.00  0.00    +0.000 A 
ATOM     12  C   UNL     1       9.315  11.127  18.697  0.00  0.00    +0.000 A 
BRANCH   7  14
ATOM     13  C   UNL     1       7.243  13.788  17.500  0.00  0.00    +0.000 C 
ATOM     14  O   UNL     1       8.121  12.672  17.363  0.00  0.00    +0.000 OA
ENDBRANCH   7  14
ENDBRANCH   6  12
ENDBRANCH   2   6
ENDBRANCH   1   3
BRANCH   1  15
ATOM     15  N   UNL     1       6.452   6.224  16.770  0.00  0.00    +0.000 NA
BRANCH  15  16
ATOM     16  S   UNL     1       7.154   4.979  15.877  0.00  0.00    +0.000 S 
ATOM     17  C   UNL     1       5.744   4.017  15.377  0.00  0.00    +0.000 C 
ATOM     18  O   UNL     1       7.724   5.573  14.684  0.00  0.00    +0.000 OA
ATOM     19  O   UNL     1       7.965   4.182  16.766  0.00  0.00    +0.000 OA
ENDBRANCH  15  16
BRANCH  15  20
ATOM     20  C   UNL     1       4.988   6.365  16.736  0.00  0.00    +0.000 C 
BRANCH  20  21
ATOM     21  C   UNL     1       4.192   5.641  17.777  0.00  0.00    +0.000 A 
ATOM     22  C   UNL     1       4.784   5.272  18.992  0.00  0.00    +0.000 A 
ATOM     23  C   UNL     1       4.004   4.739  20.018  0.00  0.00    +0.000 A 
ATOM     24  C   UNL     1       2.634   4.560  19.826  0.00  0.00    +0.000 A 
ATOM     25 CL   UNL     1       1.660   3.957  21.108  0.00  0.00    +0.000 Cl
ATOM     26  C   UNL     1       2.041   4.894  18.613  0.00  0.00    +0.000 A 
ATOM     27  C   UNL     1       2.815   5.444  17.598  0.00  0.00    +0.000 A 
ENDBRANCH  20  21
ENDBRANCH  15  20
ENDBRANCH   1  15
TORSDOF 8
ENDMDL
MODEL 3
REMARK VINA RESULT:      -6.9      2.193      3.503
REMARK  Name = 
REMARK  10 active torsions:
REMARK  status: ('A' for Active; 'I' for Inactive)
REMARK    1  A    between atoms: C_1  and  O_2
REMARK    2  A    between atoms: O_2  and  C_3
REMARK    3  A    between atoms: C_8  and  C_9
REMARK    4  A    between atoms: C_9  and  N_10
REMARK    5  A    between atoms: C_11  and  C_13
REMARK    6  A    between atoms: C_13  and  N_14
REMARK    7  A    between atoms: N_14  and  C_15
REMARK    8  A    between atoms: N_14  and  S_23
REMARK    9  A    between atoms: C_15  and  C_16
REMARK   10  A    between atoms: S_23  and  C_24
REMARK                            x       y       z     vdW  Elec       q    Type
REMARK                         _______ _______ _______ _____ _____    ______ ____
ROOT
ATOM      1  C   UNL     1       2.150   5.910  18.444  0.00  0.00    +0.000 C 
ENDROOT
BRANCH   1   3
ATOM      2  N   UNL     1       2.211   8.163  19.584  0.00  0.00    +0.000 N 
ATOM      3  C   UNL     1       2.510   7.389  18.498  0.00  0.00    +0.000 C 
ATOM      4  O   UNL     1       3.162   7.895  17.580  0.00  0.00    +0.000 OA
ATOM      5  H   UNL     1       2.488   9.133  19.480  0.00  0.00    +0.000 HD
BRANCH   2   6
ATOM      6  C   UNL     1       1.218   7.886  20.591  0.00  0.00    +0.000 C 
BRANCH   6  12
ATOM      7  C   UNL     1      -0.025  10.102  20.409  0.00  0.00    +0.000 A 
ATOM      8  C   UNL     1      -0.761  11.106  21.047  0.00  0.00    +0.000 A 
ATOM      9  C   UNL     1      -0.985  11.059  22.426  0.00  0.00    +0.000 A 
ATOM     10  C   UNL     1      -0.448  10.032  23.192  0.00  0.00    +0.000 A 
ATOM     11  C   UNL     1       0.318   9.053  22.577  0.00  0.00    +0.000 A 
ATOM     12  C   UNL     1       0.533   9.075  21.185  0.00  0.00    +0.000 A 
BRANCH   7  14
ATOM     13  C   UNL     1      -0.937  10.383  18.242  0.00  0.00    +0.000 C 
ATOM     14  O   UNL     1       0.185  10.041  19.054  0.00  0.00    +0.000 OA
ENDBRANCH   7  14
ENDBRANCH   6  12
ENDBRANCH   2   6
ENDBRANCH   1   3
BRANCH   1  15
ATOM     15  N   UNL     1       3.001   4.877  19.076  0.00  0.00    +0.000 NA
BRANCH  15  16
ATOM     16  S   UNL     1       2.266   3.875  20.215  0.00  0.00    +0.000 S 
ATOM     17  C   UNL     1       3.451   2.561  20.398  0.00  0.00    +0.000 C 
ATOM     18  O   UNL     1       2.224   4.605  21.467  0.00  0.00    +0.000 OA
ATOM     19  O   UNL     1       1.061   3.333  19.634  0.00  0.00    +0.000 OA
ENDBRANCH  15  16
BRANCH  15  20
ATOM     20  C   UNL     1       4.453   5.094  19.174  0.00  0.00    +0.000 C 
BRANCH  20  21
ATOM     21  C   UNL     1       5.262   4.974  17.919  0.00  0.00    +0.000 A 
ATOM     22  C   UNL     1       4.900   4.055  16.927  0.00  0.00    +0.000 A 
ATOM     23  C   UNL     1       5.560   4.054  15.698  0.00  0.00    +0.000 A 
ATOM     24  C   UNL     1       6.592   4.961  15.465  0.00  0.00    +0.000 A 
ATOM     25 CL   UNL     1       7.369   5.001  13.932  0.00  0.00    +0.000 Cl
ATOM     26  C   UNL     1       6.981   5.860  16.454  0.00  0.00    +0.000 A 
ATOM     27  C   UNL     1       6.310   5.874  17.671  0.00  0.00    +0.000 A 
ENDBRANCH  20  21
ENDBRANCH  15  20
ENDBRANCH   1  15
TORSDOF 8
ENDMDL
MODEL 4
REMARK VINA RESULT:      -6.9      2.330      5.430
REMARK  Name = 
REMARK  10 active torsions:
REMARK  status: ('A' for Active; 'I' for Inactive)
REMARK    1  A    between atoms: C_1  and  O_2
REMARK    2  A    between atoms: O_2  and  C_3
REMARK    3  A    between atoms: C_8  and  C_9
REMARK    4  A    between atoms: C_9  and  N_10
REMARK    5  A    between atoms: C_11  and  C_13
REMARK    6  A    between atoms: C_13  and  N_14
REMARK    7  A    between atoms: N_14  and  C_15
REMARK    8  A    between atoms: N_14  and  S_23
REMARK    9  A    between atoms: C_15  and  C_16
REMARK   10  A    between atoms: S_23  and  C_24
REMARK                            x       y       z     vdW  Elec       q    Type
REMARK                         _______ _______ _______ _____ _____    ______ ____
ROOT
ATOM      1  C   UNL     1       3.386   4.175  20.061  0.00  0.00    +0.000 C 
ENDROOT
BRANCH   1   3
ATOM      2  N   UNL     1       5.448   3.234  18.947  0.00  0.00    +0.000 N 
ATOM      3  C   UNL     1       4.434   3.091  19.853  0.00  0.00    +0.000 C 
ATOM      4  O   UNL     1       4.429   2.087  20.572  0.00  0.00    +0.000 OA
ATOM      5  H   UNL     1       6.063   2.430  18.895  0.00  0.00    +0.000 HD
BRANCH   2   6
ATOM      6  C   UNL     1       5.474   4.133  17.821  0.00  0.00    +0.000 C 
BRANCH   6  12
ATOM      7  C   UNL     1       6.588   6.230  16.895  0.00  0.00    +0.000 A 
ATOM      8  C   UNL     1       7.466   7.298  17.105  0.00  0.00    +0.000 A 
ATOM      9  C   UNL     1       8.179   7.411  18.302  0.00  0.00    +0.000 A 
ATOM     10  C   UNL     1       8.057   6.440  19.289  0.00  0.00    +0.000 A 
ATOM     11  C   UNL     1       7.221   5.355  19.076  0.00  0.00    +0.000 A 
ATOM     12  C   UNL     1       6.478   5.240  17.884  0.00  0.00    +0.000 A 
BRANCH   7  14
ATOM     13  C   UNL     1       6.384   5.323  14.717  0.00  0.00    +0.000 C 
ATOM     14  O   UNL     1       5.804   6.081  15.778  0.00  0.00    +0.000 OA
ENDBRANCH   7  14
ENDBRANCH   6  12
ENDBRANCH   2   6
ENDBRANCH   1   3
BRANCH   1  15
ATOM     15  N   UNL     1       2.578   4.704  18.939  0.00  0.00    +0.000 NA
BRANCH  15  16
ATOM     16  S   UNL     1       1.735   3.580  18.008  0.00  0.00    +0.000 S 
ATOM     17  C   UNL     1       0.763   2.721  19.225  0.00  0.00    +0.000 C 
ATOM     18  O   UNL     1       0.821   4.321  17.161  0.00  0.00    +0.000 OA
ATOM     19  O   UNL     1       2.686   2.656  17.439  0.00  0.00    +0.000 OA
ENDBRANCH  15  16
BRANCH  15  20
ATOM     20  C   UNL     1       2.955   5.982  18.315  0.00  0.00    +0.000 C 
BRANCH  20  21
ATOM     21  C   UNL     1       2.214   7.211  18.739  0.00  0.00    +0.000 A 
ATOM     22  C   UNL     1       1.846   7.391  20.079  0.00  0.00    +0.000 A 
ATOM     23  C   UNL     1       1.296   8.602  20.498  0.00  0.00    +0.000 A 
ATOM     24  C   UNL     1       1.098   9.629  19.576  0.00  0.00    +0.000 A 
ATOM     25 CL   UNL     1       0.473  11.143  20.100  0.00  0.00    +0.000 Cl
ATOM     26  C   UNL     1       1.431   9.452  18.237  0.00  0.00    +0.000 A 
ATOM     27  C   UNL     1       1.998   8.252  17.823  0.00  0.00    +0.000 A 
ENDBRANCH  20  21
ENDBRANCH  15  20
ENDBRANCH   1  15
TORSDOF 8
ENDMDL
MODEL 5
REMARK VINA RESULT:      -6.9      2.180      3.522
REMARK  Name = 
REMARK  10 active torsions:
REMARK  status: ('A' for Active; 'I' for Inactive)
REMARK    1  A    between atoms: C_1  and  O_2
REMARK    2  A    between atoms: O_2  and  C_3
REMARK    3  A    between atoms: C_8  and  C_9
REMARK    4  A    between atoms: C_9  and  N_10
REMARK    5  A    between atoms: C_11  and  C_13
REMARK    6  A    between atoms: C_13  and  N_14
REMARK    7  A    between atoms: N_14  and  C_15
REMARK    8  A    between atoms: N_14  and  S_23
REMARK    9  A    between atoms: C_15  and  C_16
REMARK   10  A    between atoms: S_23  and  C_24
REMARK                            x       y       z     vdW  Elec       q    Type
REMARK                         _______ _______ _______ _____ _____    ______ ____
ROOT
ATOM      1  C   UNL     1       2.776   6.096  19.745  0.00  0.00    +0.000 C 
ENDROOT
BRANCH   1   3
ATOM      2  N   UNL     1       1.753   8.405  19.774  0.00  0.00    +0.000 N 
ATOM      3  C   UNL     1       2.373   7.405  19.079  0.00  0.00    +0.000 C 
ATOM      4  O   UNL     1       2.683   7.615  17.902  0.00  0.00    +0.000 OA
ATOM      5  H   UNL     1       1.522   9.212  19.205  0.00  0.00    +0.000 HD
BRANCH   2   6
ATOM      6  C   UNL     1       1.035   8.272  21.017  0.00  0.00    +0.000 C 
BRANCH   6  12
ATOM      7  C   UNL     1       0.439  10.745  20.873  0.00  0.00    +0.000 A 
ATOM      8  C   UNL     1      -0.265  11.829  21.408  0.00  0.00    +0.000 A 
ATOM      9  C   UNL     1      -1.009  11.687  22.582  0.00  0.00    +0.000 A 
ATOM     10  C   UNL     1      -1.031  10.474  23.260  0.00  0.00    +0.000 A 
ATOM     11  C   UNL     1      -0.304   9.403  22.761  0.00  0.00    +0.000 A 
ATOM     12  C   UNL     1       0.432   9.525  21.566  0.00  0.00    +0.000 A 
BRANCH   7  14
ATOM     13  C   UNL     1       1.016  11.993  18.945  0.00  0.00    +0.000 C 
ATOM     14  O   UNL     1       1.139  10.784  19.693  0.00  0.00    +0.000 OA
ENDBRANCH   7  14
ENDBRANCH   6  12
ENDBRANCH   2   6
ENDBRANCH   1   3
BRANCH   1  15
ATOM     15  N   UNL     1       3.072   4.879  18.956  0.00  0.00    +0.000 NA
BRANCH  15  16
ATOM     16  S   UNL     1       1.812   3.780  18.747  0.00  0.00    +0.000 S 
ATOM     17  C   UNL     1       2.651   2.212  18.805  0.00  0.00    +0.000 C 
ATOM     18  O   UNL     1       0.964   3.867  19.920  0.00  0.00    +0.000 OA
ATOM     19  O   UNL     1       1.265   3.962  17.423  0.00  0.00    +0.000 OA
ENDBRANCH  15  16
BRANCH  15  20
ATOM     20  C   UNL     1       4.453   4.376  18.893  0.00  0.00    +0.000 C 
BRANCH  20  21
ATOM     21  C   UNL     1       5.251   4.680  17.663  0.00  0.00    +0.000 A 
ATOM     22  C   UNL     1       6.638   4.486  17.652  0.00  0.00    +0.000 A 
ATOM     23  C   UNL     1       7.354   4.622  16.463  0.00  0.00    +0.000 A 
ATOM     24  C   UNL     1       6.688   4.964  15.287  0.00  0.00    +0.000 A 
ATOM     25 CL   UNL     1       7.559   5.075  13.809  0.00  0.00    +0.000 Cl
ATOM     26  C   UNL     1       5.316   5.188  15.292  0.00  0.00    +0.000 A 
ATOM     27  C   UNL     1       4.598   5.034  16.473  0.00  0.00    +0.000 A 
ENDBRANCH  20  21
ENDBRANCH  15  20
ENDBRANCH   1  15
TORSDOF 8
ENDMDL
MODEL 6
REMARK VINA RESULT:      -6.8      4.887      6.909
REMARK  Name = 
REMARK  10 active torsions:
REMARK  status: ('A' for Active; 'I' for Inactive)
REMARK    1  A    between atoms: C_1  and  O_2
REMARK    2  A    between atoms: O_2  and  C_3
REMARK    3  A    between atoms: C_8  and  C_9
REMARK    4  A    between atoms: C_9  and  N_10
REMARK    5  A    between atoms: C_11  and  C_13
REMARK    6  A    between atoms: C_13  and  N_14
REMARK    7  A    between atoms: N_14  and  C_15
REMARK    8  A    between atoms: N_14  and  S_23
REMARK    9  A    between atoms: C_15  and  C_16
REMARK   10  A    between atoms: S_23  and  C_24
REMARK                            x       y       z     vdW  Elec       q    Type
REMARK                         _______ _______ _______ _____ _____    ______ ____
ROOT
ATOM      1  C   UNL     1       6.912   7.154  17.586  0.00  0.00    +0.000 C 
ENDROOT
BRANCH   1   3
ATOM      2  N   UNL     1       8.623   8.366  18.993  0.00  0.00    +0.000 N 
ATOM      3  C   UNL     1       8.056   7.190  18.590  0.00  0.00    +0.000 C 
ATOM      4  O   UNL     1       8.435   6.143  19.124  0.00  0.00    +0.000 OA
ATOM      5  H   UNL     1       9.388   8.244  19.648  0.00  0.00    +0.000 HD
BRANCH   2   6
ATOM      6  C   UNL     1       8.568   9.629  18.301  0.00  0.00    +0.000 C 
BRANCH   6  12
ATOM      7  C   UNL     1       9.778  11.058  20.029  0.00  0.00    +0.000 A 
ATOM      8  C   UNL     1      10.845  11.912  20.325  0.00  0.00    +0.000 A 
ATOM      9  C   UNL     1      11.743  12.304  19.329  0.00  0.00    +0.000 A 
ATOM     10  C   UNL     1      11.568  11.880  18.017  0.00  0.00    +0.000 A 
ATOM     11  C   UNL     1      10.490  11.066  17.703  0.00  0.00    +0.000 A 
ATOM     12  C   UNL     1       9.590  10.644  18.701  0.00  0.00    +0.000 A 
BRANCH   7  14
ATOM     13  C   UNL     1       8.552  11.481  22.010  0.00  0.00    +0.000 C 
ATOM     14  O   UNL     1       8.892  10.576  20.960  0.00  0.00    +0.000 OA
ENDBRANCH   7  14
ENDBRANCH   6  12
ENDBRANCH   2   6
ENDBRANCH   1   3
BRANCH   1  15
ATOM     15  N   UNL     1       6.278   5.882  17.171  0.00  0.00    +0.000 NA
BRANCH  15  16
ATOM     16  S   UNL     1       6.357   5.488  15.534  0.00  0.00    +0.000 S 
ATOM     17  C   UNL     1       5.836   3.788  15.518  0.00  0.00    +0.000 C 
ATOM     18  O   UNL     1       5.339   6.265  14.854  0.00  0.00    +0.000 OA
ATOM     19  O   UNL     1       7.737   5.552  15.117  0.00  0.00    +0.000 OA
ENDBRANCH  15  16
BRANCH  15  20
ATOM     20  C   UNL     1       5.169   5.333  17.966  0.00  0.00    +0.000 C 
BRANCH  20  21
ATOM     21  C   UNL     1       4.016   6.237  18.273  0.00  0.00    +0.000 A 
ATOM     22  C   UNL     1       3.286   6.078  19.458  0.00  0.00    +0.000 A 
ATOM     23  C   UNL     1       2.316   7.014  19.814  0.00  0.00    +0.000 A 
ATOM     24  C   UNL     1       2.063   8.102  18.981  0.00  0.00    +0.000 A 
ATOM     25 CL   UNL     1       0.908   9.288  19.445  0.00  0.00    +0.000 Cl
ATOM     26  C   UNL     1       2.760   8.255  17.787  0.00  0.00    +0.000 A 
ATOM     27  C   UNL     1       3.741   7.333  17.441  0.00  0.00    +0.000 A 
ENDBRANCH  20  21
ENDBRANCH  15  20
ENDBRANCH   1  15
TORSDOF 8
ENDMDL
MODEL 7
REMARK VINA RESULT:      -6.8      3.976      7.880
REMARK  Name = 
REMARK  10 active torsions:
REMARK  status: ('A' for Active; 'I' for Inactive)
REMARK    1  A    between atoms: C_1  and  O_2
REMARK    2  A    between atoms: O_2  and  C_3
REMARK    3  A    between atoms: C_8  and  C_9
REMARK    4  A    between atoms: C_9  and  N_10
REMARK    5  A    between atoms: C_11  and  C_13
REMARK    6  A    between atoms: C_13  and  N_14
REMARK    7  A    between atoms: N_14  and  C_15
REMARK    8  A    between atoms: N_14  and  S_23
REMARK    9  A    between atoms: C_15  and  C_16
REMARK   10  A    between atoms: S_23  and  C_24
REMARK                            x       y       z     vdW  Elec       q    Type
REMARK                         _______ _______ _______ _____ _____    ______ ____
ROOT
ATOM      1  C   UNL     1       1.179   8.663  19.508  0.00  0.00    +0.000 C 
ENDROOT
BRANCH   1   3
ATOM      2  N   UNL     1       2.841   7.257  18.227  0.00  0.00    +0.000 N 
ATOM      3  C   UNL     1       2.150   8.429  18.358  0.00  0.00    +0.000 C 
ATOM      4  O   UNL     1       2.263   9.277  17.468  0.00  0.00    +0.000 OA
ATOM      5  H   UNL     1       3.467   7.242  17.429  0.00  0.00    +0.000 HD
BRANCH   2   6
ATOM      6  C   UNL     1       3.104   6.293  19.266  0.00  0.00    +0.000 C 
BRANCH   6  12
ATOM      7  C   UNL     1       2.438   4.085  18.182  0.00  0.00    +0.000 A 
ATOM      8  C   UNL     1       1.745   2.874  18.285  0.00  0.00    +0.000 A 
ATOM      9  C   UNL     1       0.978   2.585  19.417  0.00  0.00    +0.000 A 
ATOM     10  C   UNL     1       0.860   3.513  20.444  0.00  0.00    +0.000 A 
ATOM     11  C   UNL     1       1.510   4.734  20.336  0.00  0.00    +0.000 A 
ATOM     12  C   UNL     1       2.305   5.031  19.211  0.00  0.00    +0.000 A 
BRANCH   7  14
ATOM     13  C   UNL     1       4.516   3.740  17.102  0.00  0.00    +0.000 C 
ATOM     14  O   UNL     1       3.261   4.418  17.136  0.00  0.00    +0.000 OA
ENDBRANCH   7  14
ENDBRANCH   6  12
ENDBRANCH   2   6
ENDBRANCH   1   3
BRANCH   1  15
ATOM     15  N   UNL     1       1.047   9.986  20.159  0.00  0.00    +0.000 NA
BRANCH  15  16
ATOM     16  S   UNL     1       0.713   9.994  21.811  0.00  0.00    +0.000 S 
ATOM     17  C   UNL     1      -0.597   8.798  21.947  0.00  0.00    +0.000 C 
ATOM     18  O   UNL     1       1.874   9.450  22.487  0.00  0.00    +0.000 OA
ATOM     19  O   UNL     1       0.192  11.292  22.164  0.00  0.00    +0.000 OA
ENDBRANCH  15  16
BRANCH  15  20
ATOM     20  C   UNL     1       0.631  11.148  19.359  0.00  0.00    +0.000 C 
BRANCH  20  21
ATOM     21  C   UNL     1      -0.774  11.172  18.842  0.00  0.00    +0.000 A 
ATOM     22  C   UNL     1      -1.190  10.248  17.875  0.00  0.00    +0.000 A 
ATOM     23  C   UNL     1      -2.533  10.172  17.510  0.00  0.00    +0.000 A 
ATOM     24  C   UNL     1      -3.462  11.029  18.100  0.00  0.00    +0.000 A 
ATOM     25 CL   UNL     1      -5.127  10.900  17.695  0.00  0.00    +0.000 Cl
ATOM     26  C   UNL     1      -3.056  11.971  19.039  0.00  0.00    +0.000 A 
ATOM     27  C   UNL     1      -1.720  12.034  19.417  0.00  0.00    +0.000 A 
ENDBRANCH  20  21
ENDBRANCH  15  20
ENDBRANCH   1  15
TORSDOF 8
ENDMDL
MODEL 8
REMARK VINA RESULT:      -6.8      2.102      3.270
REMARK  Name = 
REMARK  10 active torsions:
REMARK  status: ('A' for Active; 'I' for Inactive)
REMARK    1  A    between atoms: C_1  and  O_2
REMARK    2  A    between atoms: O_2  and  C_3
REMARK    3  A    between atoms: C_8  and  C_9
REMARK    4  A    between atoms: C_9  and  N_10
REMARK    5  A    between atoms: C_11  and  C_13
REMARK    6  A    between atoms: C_13  and  N_14
REMARK    7  A    between atoms: N_14  and  C_15
REMARK    8  A    between atoms: N_14  and  S_23
REMARK    9  A    between atoms: C_15  and  C_16
REMARK   10  A    between atoms: S_23  and  C_24
REMARK                            x       y       z     vdW  Elec       q    Type
REMARK                         _______ _______ _______ _____ _____    ______ ____
ROOT
ATOM      1  C   UNL     1       1.996   5.472  18.983  0.00  0.00    +0.000 C 
ENDROOT
BRANCH   1   3
ATOM      2  N   UNL     1       2.303   7.721  20.091  0.00  0.00    +0.000 N 
ATOM      3  C   UNL     1       2.567   6.883  19.044  0.00  0.00    +0.000 C 
ATOM      4  O   UNL     1       3.356   7.262  18.175  0.00  0.00    +0.000 OA
ATOM      5  H   UNL     1       2.728   8.637  19.995  0.00  0.00    +0.000 HD
BRANCH   2   6
ATOM      6  C   UNL     1       1.203   7.621  21.017  0.00  0.00    +0.000 C 
BRANCH   6  12
ATOM      7  C   UNL     1       0.173   9.887  20.474  0.00  0.00    +0.000 A 
ATOM      8  C   UNL     1      -0.550  10.999  20.919  0.00  0.00    +0.000 A 
ATOM      9  C   UNL     1      -0.940  11.109  22.256  0.00  0.00    +0.000 A 
ATOM     10  C   UNL     1      -0.581  10.131  23.176  0.00  0.00    +0.000 A 
ATOM     11  C   UNL     1       0.170   9.044  22.757  0.00  0.00    +0.000 A 
ATOM     12  C   UNL     1       0.550   8.908  21.407  0.00  0.00    +0.000 A 
BRANCH   7  14
ATOM     13  C   UNL     1       1.307  10.712  18.567  0.00  0.00    +0.000 C 
ATOM     14  O   UNL     1       0.537   9.673  19.168  0.00  0.00    +0.000 OA
ENDBRANCH   7  14
ENDBRANCH   6  12
ENDBRANCH   2   6
ENDBRANCH   1   3
BRANCH   1  15
ATOM     15  N   UNL     1       2.862   4.276  19.072  0.00  0.00    +0.000 NA
BRANCH  15  16
ATOM     16  S   UNL     1       2.160   2.867  19.675  0.00  0.00    +0.000 S 
ATOM     17  C   UNL     1       2.327   3.073  21.434  0.00  0.00    +0.000 C 
ATOM     18  O   UNL     1       0.746   2.923  19.360  0.00  0.00    +0.000 OA
ATOM     19  O   UNL     1       2.966   1.744  19.262  0.00  0.00    +0.000 OA
ENDBRANCH  15  16
BRANCH  15  20
ATOM     20  C   UNL     1       4.317   4.444  19.213  0.00  0.00    +0.000 C 
BRANCH  20  21
ATOM     21  C   UNL     1       5.143   4.448  17.964  0.00  0.00    +0.000 A 
ATOM     22  C   UNL     1       4.622   3.941  16.767  0.00  0.00    +0.000 A 
ATOM     23  C   UNL     1       5.332   4.088  15.576  0.00  0.00    +0.000 A 
ATOM     24  C   UNL     1       6.571   4.728  15.581  0.00  0.00    +0.000 A 
ATOM     25 CL   UNL     1       7.422   4.962  14.106  0.00  0.00    +0.000 Cl
ATOM     26  C   UNL     1       7.112   5.210  16.769  0.00  0.00    +0.000 A 
ATOM     27  C   UNL     1       6.396   5.081  17.953  0.00  0.00    +0.000 A 
ENDBRANCH  20  21
ENDBRANCH  15  20
ENDBRANCH   1  15
TORSDOF 8
ENDMDL
MODEL 9
REMARK VINA RESULT:      -6.8      1.913      2.486
REMARK  Name = 
REMARK  10 active torsions:
REMARK  status: ('A' for Active; 'I' for Inactive)
REMARK    1  A    between atoms: C_1  and  O_2
REMARK    2  A    between atoms: O_2  and  C_3
REMARK    3  A    between atoms: C_8  and  C_9
REMARK    4  A    between atoms: C_9  and  N_10
REMARK    5  A    between atoms: C_11  and  C_13
REMARK    6  A    between atoms: C_13  and  N_14
REMARK    7  A    between atoms: N_14  and  C_15
REMARK    8  A    between atoms: N_14  and  S_23
REMARK    9  A    between atoms: C_15  and  C_16
REMARK   10  A    between atoms: S_23  and  C_24
REMARK                            x       y       z     vdW  Elec       q    Type
REMARK                         _______ _______ _______ _____ _____    ______ ____
ROOT
ATOM      1  C   UNL     1       2.132   5.125  19.127  0.00  0.00    +0.000 C 
ENDROOT
BRANCH   1   3
ATOM      2  N   UNL     1       1.725   6.961  20.812  0.00  0.00    +0.000 N 
ATOM      3  C   UNL     1       1.956   5.640  20.549  0.00  0.00    +0.000 C 
ATOM      4  O   UNL     1       1.936   4.844  21.492  0.00  0.00    +0.000 OA
ATOM      5  H   UNL     1       1.648   7.171  21.801  0.00  0.00    +0.000 HD
BRANCH   2   6
ATOM      6  C   UNL     1       2.013   8.075  19.942  0.00  0.00    +0.000 C 
BRANCH   6  12
ATOM      7  C   UNL     1       0.594   9.904  21.005  0.00  0.00    +0.000 A 
ATOM      8  C   UNL     1      -0.287  10.977  20.828  0.00  0.00    +0.000 A 
ATOM      9  C   UNL     1      -0.734  11.329  19.552  0.00  0.00    +0.000 A 
ATOM     10  C   UNL     1      -0.342  10.594  18.440  0.00  0.00    +0.000 A 
ATOM     11  C   UNL     1       0.499   9.504  18.607  0.00  0.00    +0.000 A 
ATOM     12  C   UNL     1       0.976   9.151  19.885  0.00  0.00    +0.000 A 
BRANCH   7  14
ATOM     13  C   UNL     1       0.199   9.430  23.291  0.00  0.00    +0.000 C 
ATOM     14  O   UNL     1       1.128   9.534  22.214  0.00  0.00    +0.000 OA
ENDBRANCH   7  14
ENDBRANCH   6  12
ENDBRANCH   2   6
ENDBRANCH   1   3
BRANCH   1  15
ATOM     15  N   UNL     1       3.313   4.327  18.728  0.00  0.00    +0.000 NA
BRANCH  15  16
ATOM     16  S   UNL     1       3.185   2.652  18.865  0.00  0.00    +0.000 S 
ATOM     17  C   UNL     1       4.315   2.283  20.188  0.00  0.00    +0.000 C 
ATOM     18  O   UNL     1       1.846   2.360  19.338  0.00  0.00    +0.000 OA
ATOM     19  O   UNL     1       3.686   2.056  17.650  0.00  0.00    +0.000 OA
ENDBRANCH  15  16
BRANCH  15  20
ATOM     20  C   UNL     1       4.653   4.931  18.799  0.00  0.00    +0.000 C 
BRANCH  20  21
ATOM     21  C   UNL     1       5.424   5.070  17.523  0.00  0.00    +0.000 A 
ATOM     22  C   UNL     1       6.697   4.500  17.398  0.00  0.00    +0.000 A 
ATOM     23  C   UNL     1       7.345   4.498  16.164  0.00  0.00    +0.000 A 
ATOM     24  C   UNL     1       6.729   5.078  15.056  0.00  0.00    +0.000 A 
ATOM     25 CL   UNL     1       7.500   5.026  13.520  0.00  0.00    +0.000 Cl
ATOM     26  C   UNL     1       5.478   5.674  15.174  0.00  0.00    +0.000 A 
ATOM     27  C   UNL     1       4.823   5.659  16.400  0.00  0.00    +0.000 A 
ENDBRANCH  20  21
ENDBRANCH  15  20
ENDBRANCH   1  15
TORSDOF 8
ENDMDL
