MODEL 1
REMARK VINA RESULT:      -8.4      0.000      0.000
REMARK  Name = 
REMARK  4 active torsions:
REMARK  status: ('A' for Active; 'I' for Inactive)
REMARK    1  A    between atoms: C_1  and  C_2
REMARK    2  A    between atoms: C_6  and  C_7
REMARK    3  A    between atoms: C_10  and  N_11
REMARK    4  A    between atoms: C_21  and  N_22
REMARK                            x       y       z     vdW  Elec       q    Type
REMARK                         _______ _______ _______ _____ _____    ______ ____
ROOT
ATOM      1  C   UNL     1       4.792   3.367  18.884  0.00  0.00    +0.000 C 
ATOM      2  C   UNL     1       4.143   4.719  18.724  0.00  0.00    +0.000 A 
ATOM      3  C   UNL     1       3.245   5.087  19.752  0.00  0.00    +0.000 A 
ATOM      4  C   UNL     1       2.685   6.362  19.713  0.00  0.00    +0.000 A 
ATOM      5  N   UNL     1       1.831   7.015  20.559  0.00  0.00    +0.000 N 
ATOM      6  C   UNL     1       1.606   8.286  20.078  0.00  0.00    +0.000 A 
ATOM      7  N   UNL     1       2.239   8.445  18.927  0.00  0.00    +0.000 NA
ATOM      8  C   UNL     1       2.939   7.278  18.709  0.00  0.00    +0.000 A 
ATOM      9  C   UNL     1       3.820   6.918  17.674  0.00  0.00    +0.000 A 
ATOM     10  C   UNL     1       4.424   5.632  17.675  0.00  0.00    +0.000 A 
ATOM     11  H   UNL     1       1.434   6.634  21.404  0.00  0.00    +0.000 HD
ENDROOT
BRANCH   6  12
ATOM     12  C   UNL     1       0.765   9.261  20.782  0.00  0.00    +0.000 A 
ATOM     13  C   UNL     1       0.486  10.516  20.221  0.00  0.00    +0.000 A 
ATOM     14  C   UNL     1      -0.296  11.458  20.904  0.00  0.00    +0.000 A 
ATOM     15  C   UNL     1      -0.821  11.167  22.169  0.00  0.00    +0.000 A 
ATOM     16  C   UNL     1      -0.563   9.906  22.728  0.00  0.00    +0.000 A 
ATOM     17  C   UNL     1       0.218   8.963  22.035  0.00  0.00    +0.000 A 
BRANCH  15  18
ATOM     18  N   UNL     1      -1.590  12.142  22.874  0.00  0.00    +0.000 N 
ATOM     19  C   UNL     1      -2.897  12.026  23.310  0.00  0.00    +0.000 A 
ATOM     20  C   UNL     1      -3.221  13.231  23.887  0.00  0.00    +0.000 A 
ATOM     21  N   UNL     1      -2.158  14.083  23.851  0.00  0.00    +0.000 NA
ATOM     22  C   UNL     1      -1.199  13.409  23.253  0.00  0.00    +0.000 A 
ENDBRANCH  15  18
ENDBRANCH   6  12
BRANCH  10  23
ATOM     23  N   UNL     1       5.324   5.331  16.604  0.00  0.00    +0.000 N 
ATOM     24  C   UNL     1       5.119   4.536  15.499  0.00  0.00    +0.000 A 
ATOM     25  C   UNL     1       6.294   4.547  14.784  0.00  0.00    +0.000 A 
ATOM     26  N   UNL     1       7.219   5.341  15.391  0.00  0.00    +0.000 NA
ATOM     27  C   UNL     1       6.614   5.808  16.462  0.00  0.00    +0.000 A 
ENDBRANCH  10  23
TORSDOF 3
ENDMDL
MODEL 2
REMARK VINA RESULT:      -8.3      0.725      1.122
REMARK  Name = 
REMARK  4 active torsions:
REMARK  status: ('A' for Active; 'I' for Inactive)
REMARK    1  A    between atoms: C_1  and  C_2
REMARK    2  A    between atoms: C_6  and  C_7
REMARK    3  A    between atoms: C_10  and  N_11
REMARK    4  A    between atoms: C_21  and  N_22
REMARK                            x       y       z     vdW  Elec       q    Type
REMARK                         _______ _______ _______ _____ _____    ______ ____
ROOT
ATOM      1  C   UNL     1       4.451   3.002  19.394  0.00  0.00    +0.000 C 
ATOM      2  C   UNL     1       3.872   4.377  19.174  0.00  0.00    +0.000 A 
ATOM      3  C   UNL     1       2.966   4.820  20.165  0.00  0.00    +0.000 A 
ATOM      4  C   UNL     1       2.469   6.119  20.071  0.00  0.00    +0.000 A 
ATOM      5  N   UNL     1       1.626   6.838  20.873  0.00  0.00    +0.000 N 
ATOM      6  C   UNL     1       1.475   8.102  20.347  0.00  0.00    +0.000 A 
ATOM      7  N   UNL     1       2.144   8.194  19.210  0.00  0.00    +0.000 NA
ATOM      8  C   UNL     1       2.793   6.988  19.047  0.00  0.00    +0.000 A 
ATOM      9  C   UNL     1       3.682   6.554  18.049  0.00  0.00    +0.000 A 
ATOM     10  C   UNL     1       4.224   5.242  18.106  0.00  0.00    +0.000 A 
ATOM     11  H   UNL     1       1.189   6.503  21.718  0.00  0.00    +0.000 HD
ENDROOT
BRANCH   6  12
ATOM     12  C   UNL     1       0.664   9.138  20.997  0.00  0.00    +0.000 A 
ATOM     13  C   UNL     1       0.355  10.337  20.338  0.00  0.00    +0.000 A 
ATOM     14  C   UNL     1      -0.398  11.338  20.967  0.00  0.00    +0.000 A 
ATOM     15  C   UNL     1      -0.863  11.164  22.276  0.00  0.00    +0.000 A 
ATOM     16  C   UNL     1      -0.575   9.959  22.935  0.00  0.00    +0.000 A 
ATOM     17  C   UNL     1       0.176   8.957  22.296  0.00  0.00    +0.000 A 
BRANCH  15  18
ATOM     18  N   UNL     1      -1.602  12.200  22.924  0.00  0.00    +0.000 N 
ATOM     19  C   UNL     1      -1.182  13.490  23.190  0.00  0.00    +0.000 A 
ATOM     20  C   UNL     1      -2.210  14.100  23.871  0.00  0.00    +0.000 A 
ATOM     21  N   UNL     1      -3.263  13.247  24.015  0.00  0.00    +0.000 NA
ATOM     22  C   UNL     1      -2.880  12.129  23.436  0.00  0.00    +0.000 A 
ENDBRANCH  15  18
ENDBRANCH   6  12
BRANCH  10  23
ATOM     23  N   UNL     1       5.136   4.864  17.070  0.00  0.00    +0.000 N 
ATOM     24  C   UNL     1       6.483   5.134  16.962  0.00  0.00    +0.000 A 
ATOM     25  C   UNL     1       6.899   4.577  15.776  0.00  0.00    +0.000 A 
ATOM     26  N   UNL     1       5.867   3.947  15.151  0.00  0.00    +0.000 NA
ATOM     27  C   UNL     1       4.834   4.118  15.947  0.00  0.00    +0.000 A 
ENDBRANCH  10  23
TORSDOF 3
ENDMDL
MODEL 3
REMARK VINA RESULT:      -8.3      0.490      1.220
REMARK  Name = 
REMARK  4 active torsions:
REMARK  status: ('A' for Active; 'I' for Inactive)
REMARK    1  A    between atoms: C_1  and  C_2
REMARK    2  A    between atoms: C_6  and  C_7
REMARK    3  A    between atoms: C_10  and  N_11
REMARK    4  A    between atoms: C_21  and  N_22
REMARK                            x       y       z     vdW  Elec       q    Type
REMARK                         _______ _______ _______ _____ _____    ______ ____
ROOT
ATOM      1  C   UNL     1       4.636   3.081  19.113  0.00  0.00    +0.000 C 
ATOM      2  C   UNL     1       4.036   4.452  18.923  0.00  0.00    +0.000 A 
ATOM      3  C   UNL     1       3.157   4.878  19.945  0.00  0.00    +0.000 A 
ATOM      4  C   UNL     1       2.644   6.172  19.878  0.00  0.00    +0.000 A 
ATOM      5  N   UNL     1       1.818   6.875  20.711  0.00  0.00    +0.000 N 
ATOM      6  C   UNL     1       1.639   8.143  20.201  0.00  0.00    +0.000 A 
ATOM      7  N   UNL     1       2.273   8.251  19.045  0.00  0.00    +0.000 NA
ATOM      8  C   UNL     1       2.928   7.053  18.852  0.00  0.00    +0.000 A 
ATOM      9  C   UNL     1       3.791   6.637  17.824  0.00  0.00    +0.000 A 
ATOM     10  C   UNL     1       4.347   5.330  17.853  0.00  0.00    +0.000 A 
ATOM     11  H   UNL     1       1.411   6.529  21.565  0.00  0.00    +0.000 HD
ENDROOT
BRANCH   6  12
ATOM     12  C   UNL     1       0.838   9.165  20.885  0.00  0.00    +0.000 A 
ATOM     13  C   UNL     1       0.438   9.000  22.219  0.00  0.00    +0.000 A 
ATOM     14  C   UNL     1      -0.349   9.964  22.864  0.00  0.00    +0.000 A 
ATOM     15  C   UNL     1      -0.755  11.121  22.190  0.00  0.00    +0.000 A 
ATOM     16  C   UNL     1      -0.342  11.303  20.862  0.00  0.00    +0.000 A 
ATOM     17  C   UNL     1       0.452  10.334  20.221  0.00  0.00    +0.000 A 
BRANCH  15  18
ATOM     18  N   UNL     1      -1.584  12.084  22.843  0.00  0.00    +0.000 N 
ATOM     19  C   UNL     1      -1.253  13.383  23.182  0.00  0.00    +0.000 A 
ATOM     20  C   UNL     1      -2.346  13.903  23.836  0.00  0.00    +0.000 A 
ATOM     21  N   UNL     1      -3.352  12.986  23.893  0.00  0.00    +0.000 NA
ATOM     22  C   UNL     1      -2.878  11.918  23.288  0.00  0.00    +0.000 A 
ENDBRANCH  15  18
ENDBRANCH   6  12
BRANCH  10  23
ATOM     23  N   UNL     1       5.232   4.970  16.787  0.00  0.00    +0.000 N 
ATOM     24  C   UNL     1       4.944   4.322  15.606  0.00  0.00    +0.000 A 
ATOM     25  C   UNL     1       6.136   4.190  14.932  0.00  0.00    +0.000 A 
ATOM     26  N   UNL     1       7.154   4.755  15.638  0.00  0.00    +0.000 NA
ATOM     27  C   UNL     1       6.588   5.225  16.729  0.00  0.00    +0.000 A 
ENDBRANCH  10  23
TORSDOF 3
ENDMDL
MODEL 4
REMARK VINA RESULT:      -8.2      0.599      1.267
REMARK  Name = 
REMARK  4 active torsions:
REMARK  status: ('A' for Active; 'I' for Inactive)
REMARK    1  A    between atoms: C_1  and  C_2
REMARK    2  A    between atoms: C_6  and  C_7
REMARK    3  A    between atoms: C_10  and  N_11
REMARK    4  A    between atoms: C_21  and  N_22
REMARK                            x       y       z     vdW  Elec       q    Type
REMARK                         _______ _______ _______ _____ _____    ______ ____
ROOT
ATOM      1  C   UNL     1       4.404   2.992  19.316  0.00  0.00    +0.000 C 
ATOM      2  C   UNL     1       3.858   4.384  19.114  0.00  0.00    +0.000 A 
ATOM      3  C   UNL     1       2.966   4.837  20.114  0.00  0.00    +0.000 A 
ATOM      4  C   UNL     1       2.501   6.148  20.037  0.00  0.00    +0.000 A 
ATOM      5  N   UNL     1       1.678   6.878  20.851  0.00  0.00    +0.000 N 
ATOM      6  C   UNL     1       1.556   8.152  20.341  0.00  0.00    +0.000 A 
ATOM      7  N   UNL     1       2.224   8.241  19.202  0.00  0.00    +0.000 NA
ATOM      8  C   UNL     1       2.843   7.022  19.023  0.00  0.00    +0.000 A 
ATOM      9  C   UNL     1       3.718   6.579  18.016  0.00  0.00    +0.000 A 
ATOM     10  C   UNL     1       4.227   5.253  18.056  0.00  0.00    +0.000 A 
ATOM     11  H   UNL     1       1.236   6.544  21.693  0.00  0.00    +0.000 HD
ENDROOT
BRANCH   6  12
ATOM     12  C   UNL     1       0.773   9.199  21.006  0.00  0.00    +0.000 A 
ATOM     13  C   UNL     1       0.241   9.002  22.289  0.00  0.00    +0.000 A 
ATOM     14  C   UNL     1      -0.529   9.993  22.915  0.00  0.00    +0.000 A 
ATOM     15  C   UNL     1      -0.786  11.209  22.272  0.00  0.00    +0.000 A 
ATOM     16  C   UNL     1      -0.239  11.421  20.997  0.00  0.00    +0.000 A 
ATOM     17  C   UNL     1       0.536  10.426  20.377  0.00  0.00    +0.000 A 
BRANCH  15  18
ATOM     18  N   UNL     1      -1.597  12.202  22.901  0.00  0.00    +0.000 N 
ATOM     19  C   UNL     1      -2.918  12.082  23.290  0.00  0.00    +0.000 A 
ATOM     20  C   UNL     1      -3.285  13.306  23.799  0.00  0.00    +0.000 A 
ATOM     21  N   UNL     1      -2.236  14.174  23.765  0.00  0.00    +0.000 NA
ATOM     22  C   UNL     1      -1.243  13.491  23.236  0.00  0.00    +0.000 A 
ENDBRANCH  15  18
ENDBRANCH   6  12
BRANCH  10  23
ATOM     23  N   UNL     1       5.127   4.866  17.012  0.00  0.00    +0.000 N 
ATOM     24  C   UNL     1       6.489   5.053  16.931  0.00  0.00    +0.000 A 
ATOM     25  C   UNL     1       6.885   4.525  15.724  0.00  0.00    +0.000 A 
ATOM     26  N   UNL     1       5.822   3.995  15.059  0.00  0.00    +0.000 NA
ATOM     27  C   UNL     1       4.792   4.195  15.852  0.00  0.00    +0.000 A 
ENDBRANCH  10  23
TORSDOF 3
ENDMDL
MODEL 5
REMARK VINA RESULT:      -8.1      0.970      1.028
REMARK  Name = 
REMARK  4 active torsions:
REMARK  status: ('A' for Active; 'I' for Inactive)
REMARK    1  A    between atoms: C_1  and  C_2
REMARK    2  A    between atoms: C_6  and  C_7
REMARK    3  A    between atoms: C_10  and  N_11
REMARK    4  A    between atoms: C_21  and  N_22
REMARK                            x       y       z     vdW  Elec       q    Type
REMARK                         _______ _______ _______ _____ _____    ______ ____
ROOT
ATOM      1  C   UNL     1       3.851   2.810  19.930  0.00  0.00    +0.000 C 
ATOM      2  C   UNL     1       3.402   4.230  19.694  0.00  0.00    +0.000 A 
ATOM      3  C   UNL     1       2.441   4.723  20.606  0.00  0.00    +0.000 A 
ATOM      4  C   UNL     1       2.055   6.058  20.501  0.00  0.00    +0.000 A 
ATOM      5  N   UNL     1       1.195   6.825  21.238  0.00  0.00    +0.000 N 
ATOM      6  C   UNL     1       1.192   8.108  20.735  0.00  0.00    +0.000 A 
ATOM      7  N   UNL     1       1.974   8.169  19.669  0.00  0.00    +0.000 NA
ATOM      8  C   UNL     1       2.542   6.920  19.536  0.00  0.00    +0.000 A 
ATOM      9  C   UNL     1       3.488   6.438  18.616  0.00  0.00    +0.000 A 
ATOM     10  C   UNL     1       3.920   5.086  18.688  0.00  0.00    +0.000 A 
ATOM     11  H   UNL     1       0.655   6.509  22.028  0.00  0.00    +0.000 HD
ENDROOT
BRANCH   6  12
ATOM     12  C   UNL     1       0.403   9.191  21.333  0.00  0.00    +0.000 A 
ATOM     13  C   UNL     1       0.140  10.372  20.624  0.00  0.00    +0.000 A 
ATOM     14  C   UNL     1      -0.592  11.418  21.204  0.00  0.00    +0.000 A 
ATOM     15  C   UNL     1      -1.081  11.307  22.511  0.00  0.00    +0.000 A 
ATOM     16  C   UNL     1      -0.839  10.120  23.219  0.00  0.00    +0.000 A 
ATOM     17  C   UNL     1      -0.109   9.073  22.630  0.00  0.00    +0.000 A 
BRANCH  15  18
ATOM     18  N   UNL     1      -1.798  12.388  23.108  0.00  0.00    +0.000 N 
ATOM     19  C   UNL     1      -3.013  12.329  23.764  0.00  0.00    +0.000 A 
ATOM     20  C   UNL     1      -3.327  13.620  24.117  0.00  0.00    +0.000 A 
ATOM     21  N   UNL     1      -2.341  14.477  23.729  0.00  0.00    +0.000 NA
ATOM     22  C   UNL     1      -1.441  13.719  23.141  0.00  0.00    +0.000 A 
ENDBRANCH  15  18
ENDBRANCH   6  12
BRANCH  10  23
ATOM     23  N   UNL     1       4.897   4.659  17.734  0.00  0.00    +0.000 N 
ATOM     24  C   UNL     1       4.706   4.055  16.511  0.00  0.00    +0.000 A 
ATOM     25  C   UNL     1       5.957   3.821  15.990  0.00  0.00    +0.000 A 
ATOM     26  N   UNL     1       6.923   4.278  16.833  0.00  0.00    +0.000 NA
ATOM     27  C   UNL     1       6.268   4.786  17.855  0.00  0.00    +0.000 A 
ENDBRANCH  10  23
TORSDOF 3
ENDMDL
MODEL 6
REMARK VINA RESULT:      -7.7      1.715      2.650
REMARK  Name = 
REMARK  4 active torsions:
REMARK  status: ('A' for Active; 'I' for Inactive)
REMARK    1  A    between atoms: C_1  and  C_2
REMARK    2  A    between atoms: C_6  and  C_7
REMARK    3  A    between atoms: C_10  and  N_11
REMARK    4  A    between atoms: C_21  and  N_22
REMARK                            x       y       z     vdW  Elec       q    Type
REMARK                         _______ _______ _______ _____ _____    ______ ____
ROOT
ATOM      1  C   UNL     1       4.346   5.459  16.859  0.00  0.00    +0.000 C 
ATOM      2  C   UNL     1       3.530   5.791  18.083  0.00  0.00    +0.000 A 
ATOM      3  C   UNL     1       3.128   7.142  18.197  0.00  0.00    +0.000 A 
ATOM      4  C   UNL     1       2.291   7.495  19.254  0.00  0.00    +0.000 A 
ATOM      5  N   UNL     1       1.713   8.683  19.608  0.00  0.00    +0.000 N 
ATOM      6  C   UNL     1       0.940   8.488  20.732  0.00  0.00    +0.000 A 
ATOM      7  N   UNL     1       1.052   7.234  21.138  0.00  0.00    +0.000 NA
ATOM      8  C   UNL     1       1.854   6.601  20.213  0.00  0.00    +0.000 A 
ATOM      9  C   UNL     1       2.258   5.258  20.118  0.00  0.00    +0.000 A 
ATOM     10  C   UNL     1       3.103   4.847  19.052  0.00  0.00    +0.000 A 
ATOM     11  H   UNL     1       1.825   9.560  19.124  0.00  0.00    +0.000 HD
ENDROOT
BRANCH   6  12
ATOM     12  C   UNL     1       0.147   9.562  21.343  0.00  0.00    +0.000 A 
ATOM     13  C   UNL     1      -0.292  10.659  20.587  0.00  0.00    +0.000 A 
ATOM     14  C   UNL     1      -1.028  11.697  21.175  0.00  0.00    +0.000 A 
ATOM     15  C   UNL     1      -1.344  11.664  22.538  0.00  0.00    +0.000 A 
ATOM     16  C   UNL     1      -0.926  10.559  23.296  0.00  0.00    +0.000 A 
ATOM     17  C   UNL     1      -0.193   9.518  22.699  0.00  0.00    +0.000 A 
BRANCH  15  18
ATOM     18  N   UNL     1      -2.066  12.740  23.139  0.00  0.00    +0.000 N 
ATOM     19  C   UNL     1      -3.428  12.820  23.354  0.00  0.00    +0.000 A 
ATOM     20  C   UNL     1      -3.662  14.057  23.907  0.00  0.00    +0.000 A 
ATOM     21  N   UNL     1      -2.494  14.739  24.068  0.00  0.00    +0.000 NA
ATOM     22  C   UNL     1      -1.560  13.932  23.613  0.00  0.00    +0.000 A 
ENDBRANCH  15  18
ENDBRANCH   6  12
BRANCH  10  23
ATOM     23  N   UNL     1       3.466   3.464  18.999  0.00  0.00    +0.000 N 
ATOM     24  C   UNL     1       2.981   2.473  18.174  0.00  0.00    +0.000 A 
ATOM     25  C   UNL     1       3.629   1.314  18.533  0.00  0.00    +0.000 A 
ATOM     26  N   UNL     1       4.519   1.550  19.536  0.00  0.00    +0.000 NA
ATOM     27  C   UNL     1       4.414   2.838  19.785  0.00  0.00    +0.000 A 
ENDBRANCH  10  23
TORSDOF 3
ENDMDL
MODEL 7
REMARK VINA RESULT:      -7.7      1.732      2.892
REMARK  Name = 
REMARK  4 active torsions:
REMARK  status: ('A' for Active; 'I' for Inactive)
REMARK    1  A    between atoms: C_1  and  C_2
REMARK    2  A    between atoms: C_6  and  C_7
REMARK    3  A    between atoms: C_10  and  N_11
REMARK    4  A    between atoms: C_21  and  N_22
REMARK                            x       y       z     vdW  Elec       q    Type
REMARK                         _______ _______ _______ _____ _____    ______ ____
ROOT
ATOM      1  C   UNL     1       4.380   5.519  16.874  0.00  0.00    +0.000 C 
ATOM      2  C   UNL     1       3.562   5.858  18.096  0.00  0.00    +0.000 A 
ATOM      3  C   UNL     1       3.163   7.210  18.203  0.00  0.00    +0.000 A 
ATOM      4  C   UNL     1       2.326   7.569  19.258  0.00  0.00    +0.000 A 
ATOM      5  N   UNL     1       1.749   8.760  19.606  0.00  0.00    +0.000 N 
ATOM      6  C   UNL     1       0.974   8.572  20.729  0.00  0.00    +0.000 A 
ATOM      7  N   UNL     1       1.084   7.320  21.141  0.00  0.00    +0.000 NA
ATOM      8  C   UNL     1       1.885   6.681  20.219  0.00  0.00    +0.000 A 
ATOM      9  C   UNL     1       2.286   5.336  20.131  0.00  0.00    +0.000 A 
ATOM     10  C   UNL     1       3.132   4.919  19.068  0.00  0.00    +0.000 A 
ATOM     11  H   UNL     1       1.864   9.634  19.118  0.00  0.00    +0.000 HD
ENDROOT
BRANCH   6  12
ATOM     12  C   UNL     1       0.183   9.650  21.334  0.00  0.00    +0.000 A 
ATOM     13  C   UNL     1      -0.338   9.527  22.630  0.00  0.00    +0.000 A 
ATOM     14  C   UNL     1      -1.115  10.546  23.200  0.00  0.00    +0.000 A 
ATOM     15  C   UNL     1      -1.390  11.717  22.484  0.00  0.00    +0.000 A 
ATOM     16  C   UNL     1      -0.855  11.856  21.195  0.00  0.00    +0.000 A 
ATOM     17  C   UNL     1      -0.072  10.833  20.632  0.00  0.00    +0.000 A 
BRANCH  15  18
ATOM     18  N   UNL     1      -2.209  12.737  23.057  0.00  0.00    +0.000 N 
ATOM     19  C   UNL     1      -2.028  14.105  22.973  0.00  0.00    +0.000 A 
ATOM     20  C   UNL     1      -3.031  14.676  23.720  0.00  0.00    +0.000 A 
ATOM     21  N   UNL     1      -3.845  13.717  24.244  0.00  0.00    +0.000 NA
ATOM     22  C   UNL     1      -3.341  12.575  23.827  0.00  0.00    +0.000 A 
ENDBRANCH  15  18
ENDBRANCH   6  12
BRANCH  10  23
ATOM     23  N   UNL     1       3.492   3.535  19.022  0.00  0.00    +0.000 N 
ATOM     24  C   UNL     1       3.019   2.545  18.189  0.00  0.00    +0.000 A 
ATOM     25  C   UNL     1       3.658   1.384  18.559  0.00  0.00    +0.000 A 
ATOM     26  N   UNL     1       4.530   1.618  19.577  0.00  0.00    +0.000 NA
ATOM     27  C   UNL     1       4.425   2.906  19.824  0.00  0.00    +0.000 A 
ENDBRANCH  10  23
TORSDOF 3
ENDMDL
MODEL 8
REMARK VINA RESULT:      -7.7      1.727      2.824
REMARK  Name = 
REMARK  4 active torsions:
REMARK  status: ('A' for Active; 'I' for Inactive)
REMARK    1  A    between atoms: C_1  and  C_2
REMARK    2  A    between atoms: C_6  and  C_7
REMARK    3  A    between atoms: C_10  and  N_11
REMARK    4  A    between atoms: C_21  and  N_22
REMARK                            x       y       z     vdW  Elec       q    Type
REMARK                         _______ _______ _______ _____ _____    ______ ____
ROOT
ATOM      1  C   UNL     1       4.275   5.443  16.819  0.00  0.00    +0.000 C 
ATOM      2  C   UNL     1       3.509   5.807  18.067  0.00  0.00    +0.000 A 
ATOM      3  C   UNL     1       3.123   7.163  18.169  0.00  0.00    +0.000 A 
ATOM      4  C   UNL     1       2.331   7.543  19.251  0.00  0.00    +0.000 A 
ATOM      5  N   UNL     1       1.775   8.743  19.603  0.00  0.00    +0.000 N 
ATOM      6  C   UNL     1       1.045   8.577  20.760  0.00  0.00    +0.000 A 
ATOM      7  N   UNL     1       1.165   7.331  21.187  0.00  0.00    +0.000 NA
ATOM      8  C   UNL     1       1.925   6.672  20.243  0.00  0.00    +0.000 A 
ATOM      9  C   UNL     1       2.314   5.324  20.160  0.00  0.00    +0.000 A 
ATOM     10  C   UNL     1       3.114   4.886  19.070  0.00  0.00    +0.000 A 
ATOM     11  H   UNL     1       1.875   9.609  19.097  0.00  0.00    +0.000 HD
ENDROOT
BRANCH   6  12
ATOM     12  C   UNL     1       0.285   9.669  21.379  0.00  0.00    +0.000 A 
ATOM     13  C   UNL     1       0.201  10.930  20.771  0.00  0.00    +0.000 A 
ATOM     14  C   UNL     1      -0.503  11.981  21.374  0.00  0.00    +0.000 A 
ATOM     15  C   UNL     1      -1.144  11.796  22.605  0.00  0.00    +0.000 A 
ATOM     16  C   UNL     1      -1.082  10.532  23.210  0.00  0.00    +0.000 A 
ATOM     17  C   UNL     1      -0.378   9.480  22.596  0.00  0.00    +0.000 A 
BRANCH  15  18
ATOM     18  N   UNL     1      -1.833  12.879  23.230  0.00  0.00    +0.000 N 
ATOM     19  C   UNL     1      -1.336  14.137  23.516  0.00  0.00    +0.000 A 
ATOM     20  C   UNL     1      -2.342  14.815  24.163  0.00  0.00    +0.000 A 
ATOM     21  N   UNL     1      -3.456  14.036  24.267  0.00  0.00    +0.000 NA
ATOM     22  C   UNL     1      -3.131  12.895  23.697  0.00  0.00    +0.000 A 
ENDBRANCH  15  18
ENDBRANCH   6  12
BRANCH  10  23
ATOM     23  N   UNL     1       3.464   3.498  19.032  0.00  0.00    +0.000 N 
ATOM     24  C   UNL     1       4.450   2.835  19.730  0.00  0.00    +0.000 A 
ATOM     25  C   UNL     1       4.399   1.522  19.324  0.00  0.00    +0.000 A 
ATOM     26  N   UNL     1       3.403   1.336  18.416  0.00  0.00    +0.000 NA
ATOM     27  C   UNL     1       2.851   2.522  18.271  0.00  0.00    +0.000 A 
ENDBRANCH  10  23
TORSDOF 3
ENDMDL
MODEL 9
REMARK VINA RESULT:      -7.7      1.401      1.783
REMARK  Name = 
REMARK  4 active torsions:
REMARK  status: ('A' for Active; 'I' for Inactive)
REMARK    1  A    between atoms: C_1  and  C_2
REMARK    2  A    between atoms: C_6  and  C_7
REMARK    3  A    between atoms: C_10  and  N_11
REMARK    4  A    between atoms: C_21  and  N_22
REMARK                            x       y       z     vdW  Elec       q    Type
REMARK                         _______ _______ _______ _____ _____    ______ ____
ROOT
ATOM      1  C   UNL     1       4.932   3.803  19.212  0.00  0.00    +0.000 C 
ATOM      2  C   UNL     1       4.257   5.059  18.721  0.00  0.00    +0.000 A 
ATOM      3  C   UNL     1       3.297   5.616  19.597  0.00  0.00    +0.000 A 
ATOM      4  C   UNL     1       2.707   6.828  19.245  0.00  0.00    +0.000 A 
ATOM      5  N   UNL     1       1.793   7.622  19.882  0.00  0.00    +0.000 N 
ATOM      6  C   UNL     1       1.561   8.744  19.116  0.00  0.00    +0.000 A 
ATOM      7  N   UNL     1       2.249   8.663  17.988  0.00  0.00    +0.000 NA
ATOM      8  C   UNL     1       2.989   7.503  18.073  0.00  0.00    +0.000 A 
ATOM      9  C   UNL     1       3.932   6.953  17.187  0.00  0.00    +0.000 A 
ATOM     10  C   UNL     1       4.568   5.723  17.506  0.00  0.00    +0.000 A 
ATOM     11  H   UNL     1       1.363   7.427  20.772  0.00  0.00    +0.000 HD
ENDROOT
BRANCH   6  12
ATOM     12  C   UNL     1       0.660   9.821  19.542  0.00  0.00    +0.000 A 
ATOM     13  C   UNL     1       0.780  10.407  20.811  0.00  0.00    +0.000 A 
ATOM     14  C   UNL     1      -0.096  11.418  21.228  0.00  0.00    +0.000 A 
ATOM     15  C   UNL     1      -1.118  11.871  20.384  0.00  0.00    +0.000 A 
ATOM     16  C   UNL     1      -1.231  11.303  19.106  0.00  0.00    +0.000 A 
ATOM     17  C   UNL     1      -0.345  10.293  18.691  0.00  0.00    +0.000 A 
BRANCH  15  18
ATOM     18  N   UNL     1      -2.028  12.878  20.827  0.00  0.00    +0.000 N 
ATOM     19  C   UNL     1      -1.728  14.029  21.532  0.00  0.00    +0.000 A 
ATOM     20  C   UNL     1      -2.926  14.657  21.777  0.00  0.00    +0.000 A 
ATOM     21  N   UNL     1      -3.957  13.955  21.229  0.00  0.00    +0.000 NA
ATOM     22  C   UNL     1      -3.396  12.908  20.663  0.00  0.00    +0.000 A 
ENDBRANCH  15  18
ENDBRANCH   6  12
BRANCH  10  23
ATOM     23  N   UNL     1       5.531   5.222  16.573  0.00  0.00    +0.000 N 
ATOM     24  C   UNL     1       5.345   4.350  15.523  0.00  0.00    +0.000 A 
ATOM     25  C   UNL     1       6.580   4.163  14.947  0.00  0.00    +0.000 A 
ATOM     26  N   UNL     1       7.526   4.906  15.584  0.00  0.00    +0.000 NA
ATOM     27  C   UNL     1       6.875   5.539  16.536  0.00  0.00    +0.000 A 
ENDBRANCH  10  23
TORSDOF 3
ENDMDL
