MODEL 1
REMARK VINA RESULT:      -8.7      0.000      0.000
REMARK  Name = 
REMARK  4 active torsions:
REMARK  status: ('A' for Active; 'I' for Inactive)
REMARK    1  A    between atoms: C_2  and  C_18
REMARK    2  A    between atoms: N_3  and  C_4
REMARK    3  A    between atoms: C_12  and  C_13
REMARK    4  A    between atoms: C_13  and  O_15
REMARK                            x       y       z     vdW  Elec       q    Type
REMARK                         _______ _______ _______ _____ _____    ______ ____
ROOT
ATOM      1  C   UNL     1       6.264   6.460  16.697  0.00  0.00    +0.000 A 
ATOM      2  C   UNL     1       7.063   5.583  15.962  0.00  0.00    +0.000 A 
ATOM      3  C   UNL     1       6.651   4.257  15.776  0.00  0.00    +0.000 A 
ATOM      4  C   UNL     1       5.421   3.819  16.275  0.00  0.00    +0.000 A 
ATOM      5  C   UNL     1       4.593   4.718  16.955  0.00  0.00    +0.000 A 
ATOM      6  C   UNL     1       3.271   4.315  17.468  0.00  0.00    +0.000 A 
ATOM      7  O   UNL     1       2.822   3.195  17.301  0.00  0.00    +0.000 OA
ATOM      8  C   UNL     1       2.511   5.347  18.209  0.00  0.00    +0.000 A 
ATOM      9  C   UNL     1       3.026   6.578  18.317  0.00  0.00    +0.000 A 
ATOM     10  O   UNL     1       4.223   6.974  17.770  0.00  0.00    +0.000 OA
ATOM     11  C   UNL     1       5.013   6.031  17.162  0.00  0.00    +0.000 A 
ENDROOT
BRANCH   1  14
ATOM     12  O   UNL     1       8.221   7.032  18.620  0.00  0.00    +0.000 OA
ATOM     13  C   UNL     1       7.722   7.936  17.956  0.00  0.00    +0.000 C 
ATOM     14  N   UNL     1       6.734   7.764  16.990  0.00  0.00    +0.000 N 
ATOM     15  H   UNL     1       6.684   8.461  16.257  0.00  0.00    +0.000 HD
BRANCH  13  16
ATOM     16  C   UNL     1       8.228   9.315  18.155  0.00  0.00    +0.000 A 
ATOM     17  C   UNL     1       7.719  10.333  17.341  0.00  0.00    +0.000 A 
ATOM     18  C   UNL     1       8.213  11.633  17.451  0.00  0.00    +0.000 A 
ATOM     19  C   UNL     1       9.232  11.932  18.368  0.00  0.00    +0.000 A 
ATOM     20  C   UNL     1       9.739  13.236  18.486  0.00  0.00    +0.000 A 
ATOM     21  C   UNL     1      10.765  13.521  19.387  0.00  0.00    +0.000 A 
ATOM     22  C   UNL     1      11.301  12.506  20.173  0.00  0.00    +0.000 A 
ATOM     23  C   UNL     1      10.807  11.203  20.067  0.00  0.00    +0.000 A 
ATOM     24  C   UNL     1       9.765  10.900  19.176  0.00  0.00    +0.000 A 
ATOM     25  C   UNL     1       9.254   9.593  19.063  0.00  0.00    +0.000 A 
ENDBRANCH  13  16
ENDBRANCH   1  14
BRANCH   9  26
ATOM     26  C   UNL     1       2.285   7.639  19.063  0.00  0.00    +0.000 C 
ATOM     27  O   UNL     1       1.825   8.640  18.534  0.00  0.00    +0.000 OA
BRANCH  26  28
ATOM     28  O   UNL     1       2.204   7.392  20.385  0.00  0.00    +0.000 OA
ATOM     29  H   UNL     1       2.087   6.444  20.600  0.00  0.00    +0.000 HD
ENDBRANCH  26  28
ENDBRANCH   9  26
TORSDOF 4
ENDMDL
MODEL 2
REMARK VINA RESULT:      -8.5      4.928      7.397
REMARK  Name = 
REMARK  4 active torsions:
REMARK  status: ('A' for Active; 'I' for Inactive)
REMARK    1  A    between atoms: C_2  and  C_18
REMARK    2  A    between atoms: N_3  and  C_4
REMARK    3  A    between atoms: C_12  and  C_13
REMARK    4  A    between atoms: C_13  and  O_15
REMARK                            x       y       z     vdW  Elec       q    Type
REMARK                         _______ _______ _______ _____ _____    ______ ____
ROOT
ATOM      1  C   UNL     1       3.249   6.679  18.468  0.00  0.00    +0.000 A 
ATOM      2  C   UNL     1       3.936   7.297  17.422  0.00  0.00    +0.000 A 
ATOM      3  C   UNL     1       4.694   6.522  16.534  0.00  0.00    +0.000 A 
ATOM      4  C   UNL     1       4.727   5.130  16.657  0.00  0.00    +0.000 A 
ATOM      5  C   UNL     1       3.986   4.509  17.667  0.00  0.00    +0.000 A 
ATOM      6  C   UNL     1       3.958   3.043  17.814  0.00  0.00    +0.000 A 
ATOM      7  O   UNL     1       4.549   2.300  17.051  0.00  0.00    +0.000 OA
ATOM      8  C   UNL     1       3.171   2.511  18.951  0.00  0.00    +0.000 A 
ATOM      9  C   UNL     1       2.495   3.366  19.726  0.00  0.00    +0.000 A 
ATOM     10  O   UNL     1       2.458   4.728  19.540  0.00  0.00    +0.000 OA
ATOM     11  C   UNL     1       3.250   5.280  18.565  0.00  0.00    +0.000 A 
ENDROOT
BRANCH   1  14
ATOM     12  O   UNL     1       1.393   8.687  17.854  0.00  0.00    +0.000 OA
ATOM     13  C   UNL     1       1.665   8.432  19.023  0.00  0.00    +0.000 C 
ATOM     14  N   UNL     1       2.582   7.468  19.437  0.00  0.00    +0.000 N 
ATOM     15  H   UNL     1       2.444   7.072  20.358  0.00  0.00    +0.000 HD
BRANCH  13  16
ATOM     16  C   UNL     1       0.942   9.165  20.089  0.00  0.00    +0.000 A 
ATOM     17  C   UNL     1       1.027   8.686  21.400  0.00  0.00    +0.000 A 
ATOM     18  C   UNL     1       0.311   9.309  22.423  0.00  0.00    +0.000 A 
ATOM     19  C   UNL     1      -0.511  10.412  22.148  0.00  0.00    +0.000 A 
ATOM     20  C   UNL     1      -1.239  11.045  23.168  0.00  0.00    +0.000 A 
ATOM     21  C   UNL     1      -2.068  12.130  22.882  0.00  0.00    +0.000 A 
ATOM     22  C   UNL     1      -2.186  12.587  21.574  0.00  0.00    +0.000 A 
ATOM     23  C   UNL     1      -1.469  11.969  20.547  0.00  0.00    +0.000 A 
ATOM     24  C   UNL     1      -0.618  10.884  20.818  0.00  0.00    +0.000 A 
ATOM     25  C   UNL     1       0.115  10.254  19.794  0.00  0.00    +0.000 A 
ENDBRANCH  13  16
ENDBRANCH   1  14
BRANCH   9  26
ATOM     26  C   UNL     1       1.697   2.861  20.883  0.00  0.00    +0.000 C 
ATOM     27  O   UNL     1       2.197   2.468  21.928  0.00  0.00    +0.000 OA
BRANCH  26  28
ATOM     28  O   UNL     1       0.371   2.851  20.644  0.00  0.00    +0.000 OA
ATOM     29  H   UNL     1      -0.110   3.585  21.078  0.00  0.00    +0.000 HD
ENDBRANCH  26  28
ENDBRANCH   9  26
TORSDOF 4
ENDMDL
MODEL 3
REMARK VINA RESULT:      -8.5      0.556      1.579
REMARK  Name = 
REMARK  4 active torsions:
REMARK  status: ('A' for Active; 'I' for Inactive)
REMARK    1  A    between atoms: C_2  and  C_18
REMARK    2  A    between atoms: N_3  and  C_4
REMARK    3  A    between atoms: C_12  and  C_13
REMARK    4  A    between atoms: C_13  and  O_15
REMARK                            x       y       z     vdW  Elec       q    Type
REMARK                         _______ _______ _______ _____ _____    ______ ____
ROOT
ATOM      1  C   UNL     1       6.217   6.422  16.653  0.00  0.00    +0.000 A 
ATOM      2  C   UNL     1       6.986   5.546  15.885  0.00  0.00    +0.000 A 
ATOM      3  C   UNL     1       6.535   4.237  15.663  0.00  0.00    +0.000 A 
ATOM      4  C   UNL     1       5.297   3.819  16.161  0.00  0.00    +0.000 A 
ATOM      5  C   UNL     1       4.501   4.720  16.875  0.00  0.00    +0.000 A 
ATOM      6  C   UNL     1       3.173   4.339  17.388  0.00  0.00    +0.000 A 
ATOM      7  O   UNL     1       2.691   3.238  17.191  0.00  0.00    +0.000 OA
ATOM      8  C   UNL     1       2.448   5.369  18.166  0.00  0.00    +0.000 A 
ATOM      9  C   UNL     1       2.998   6.581  18.306  0.00  0.00    +0.000 A 
ATOM     10  O   UNL     1       4.201   6.960  17.760  0.00  0.00    +0.000 OA
ATOM     11  C   UNL     1       4.959   6.014  17.117  0.00  0.00    +0.000 A 
ENDROOT
BRANCH   1  14
ATOM     12  O   UNL     1       8.207   6.882  18.574  0.00  0.00    +0.000 OA
ATOM     13  C   UNL     1       7.727   7.819  17.942  0.00  0.00    +0.000 C 
ATOM     14  N   UNL     1       6.727   7.703  16.980  0.00  0.00    +0.000 N 
ATOM     15  H   UNL     1       6.690   8.423  16.269  0.00  0.00    +0.000 HD
BRANCH  13  16
ATOM     16  C   UNL     1       8.273   9.177  18.177  0.00  0.00    +0.000 A 
ATOM     17  C   UNL     1       9.251   9.337  19.165  0.00  0.00    +0.000 A 
ATOM     18  C   UNL     1       9.745  10.607  19.462  0.00  0.00    +0.000 A 
ATOM     19  C   UNL     1       9.261  11.737  18.785  0.00  0.00    +0.000 A 
ATOM     20  C   UNL     1       9.749  13.020  19.078  0.00  0.00    +0.000 A 
ATOM     21  C   UNL     1       9.249  14.140  18.413  0.00  0.00    +0.000 A 
ATOM     22  C   UNL     1       8.250  13.991  17.457  0.00  0.00    +0.000 A 
ATOM     23  C   UNL     1       7.754  12.721  17.154  0.00  0.00    +0.000 A 
ATOM     24  C   UNL     1       8.255  11.580  17.802  0.00  0.00    +0.000 A 
ATOM     25  C   UNL     1       7.768  10.293  17.504  0.00  0.00    +0.000 A 
ENDBRANCH  13  16
ENDBRANCH   1  14
BRANCH   9  26
ATOM     26  C   UNL     1       2.294   7.639  19.090  0.00  0.00    +0.000 C 
ATOM     27  O   UNL     1       1.865   8.672  18.597  0.00  0.00    +0.000 OA
BRANCH  26  28
ATOM     28  O   UNL     1       2.209   7.351  20.404  0.00  0.00    +0.000 OA
ATOM     29  H   UNL     1       2.102   6.395  20.589  0.00  0.00    +0.000 HD
ENDBRANCH  26  28
ENDBRANCH   9  26
TORSDOF 4
ENDMDL
MODEL 4
REMARK VINA RESULT:      -8.5      4.869      6.938
REMARK  Name = 
REMARK  4 active torsions:
REMARK  status: ('A' for Active; 'I' for Inactive)
REMARK    1  A    between atoms: C_2  and  C_18
REMARK    2  A    between atoms: N_3  and  C_4
REMARK    3  A    between atoms: C_12  and  C_13
REMARK    4  A    between atoms: C_13  and  O_15
REMARK                            x       y       z     vdW  Elec       q    Type
REMARK                         _______ _______ _______ _____ _____    ______ ____
ROOT
ATOM      1  C   UNL     1       3.345   6.575  18.074  0.00  0.00    +0.000 A 
ATOM      2  C   UNL     1       4.269   7.084  17.160  0.00  0.00    +0.000 A 
ATOM      3  C   UNL     1       5.119   6.208  16.471  0.00  0.00    +0.000 A 
ATOM      4  C   UNL     1       5.014   4.826  16.653  0.00  0.00    +0.000 A 
ATOM      5  C   UNL     1       4.043   4.317  17.522  0.00  0.00    +0.000 A 
ATOM      6  C   UNL     1       3.867   2.867  17.720  0.00  0.00    +0.000 A 
ATOM      7  O   UNL     1       4.533   2.043  17.118  0.00  0.00    +0.000 OA
ATOM      8  C   UNL     1       2.835   2.456  18.699  0.00  0.00    +0.000 A 
ATOM      9  C   UNL     1       2.094   3.400  19.291  0.00  0.00    +0.000 A 
ATOM     10  O   UNL     1       2.205   4.748  19.046  0.00  0.00    +0.000 OA
ATOM     11  C   UNL     1       3.213   5.187  18.226  0.00  0.00    +0.000 A 
ENDROOT
BRANCH   1  14
ATOM     12  O   UNL     1       2.204   8.945  17.106  0.00  0.00    +0.000 OA
ATOM     13  C   UNL     1       2.035   8.609  18.275  0.00  0.00    +0.000 C 
ATOM     14  N   UNL     1       2.569   7.463  18.860  0.00  0.00    +0.000 N 
ATOM     15  H   UNL     1       2.072   7.081  19.655  0.00  0.00    +0.000 HD
BRANCH  13  16
ATOM     16  C   UNL     1       1.166   9.451  19.130  0.00  0.00    +0.000 A 
ATOM     17  C   UNL     1       0.761  10.698  18.641  0.00  0.00    +0.000 A 
ATOM     18  C   UNL     1      -0.004  11.549  19.438  0.00  0.00    +0.000 A 
ATOM     19  C   UNL     1      -0.366  11.173  20.740  0.00  0.00    +0.000 A 
ATOM     20  C   UNL     1      -1.133  12.022  21.553  0.00  0.00    +0.000 A 
ATOM     21  C   UNL     1      -1.473  11.648  22.853  0.00  0.00    +0.000 A 
ATOM     22  C   UNL     1      -1.041  10.426  23.358  0.00  0.00    +0.000 A 
ATOM     23  C   UNL     1      -0.277   9.569  22.562  0.00  0.00    +0.000 A 
ATOM     24  C   UNL     1       0.063   9.922  21.246  0.00  0.00    +0.000 A 
ATOM     25  C   UNL     1       0.828   9.067  20.431  0.00  0.00    +0.000 A 
ENDBRANCH  13  16
ENDBRANCH   1  14
BRANCH   9  26
ATOM     26  C   UNL     1       1.049   3.018  20.287  0.00  0.00    +0.000 C 
ATOM     27  O   UNL     1       1.247   2.981  21.493  0.00  0.00    +0.000 OA
BRANCH  26  28
ATOM     28  O   UNL     1      -0.126   2.687  19.716  0.00  0.00    +0.000 OA
ATOM     29  H   UNL     1      -0.140   2.818  18.746  0.00  0.00    +0.000 HD
ENDBRANCH  26  28
ENDBRANCH   9  26
TORSDOF 4
ENDMDL
MODEL 5
REMARK VINA RESULT:      -8.2      5.618      9.699
REMARK  Name = 
REMARK  4 active torsions:
REMARK  status: ('A' for Active; 'I' for Inactive)
REMARK    1  A    between atoms: C_2  and  C_18
REMARK    2  A    between atoms: N_3  and  C_4
REMARK    3  A    between atoms: C_12  and  C_13
REMARK    4  A    between atoms: C_13  and  O_15
REMARK                            x       y       z     vdW  Elec       q    Type
REMARK                         _______ _______ _______ _____ _____    ______ ____
ROOT
ATOM      1  C   UNL     1      -0.028  10.704  21.183  0.00  0.00    +0.000 A 
ATOM      2  C   UNL     1      -0.952  10.564  22.220  0.00  0.00    +0.000 A 
ATOM      3  C   UNL     1      -1.300  11.679  22.996  0.00  0.00    +0.000 A 
ATOM      4  C   UNL     1      -0.770  12.939  22.706  0.00  0.00    +0.000 A 
ATOM      5  C   UNL     1       0.106  13.087  21.625  0.00  0.00    +0.000 A 
ATOM      6  C   UNL     1       0.663  14.400  21.256  0.00  0.00    +0.000 A 
ATOM      7  O   UNL     1       0.367  15.422  21.849  0.00  0.00    +0.000 OA
ATOM      8  C   UNL     1       1.613  14.417  20.120  0.00  0.00    +0.000 A 
ATOM      9  C   UNL     1       1.860  13.275  19.467  0.00  0.00    +0.000 A 
ATOM     10  O   UNL     1       1.279  12.065  19.762  0.00  0.00    +0.000 OA
ATOM     11  C   UNL     1       0.472  11.975  20.868  0.00  0.00    +0.000 A 
ENDROOT
BRANCH   1  14
ATOM     12  O   UNL     1       1.789   8.832  22.207  0.00  0.00    +0.000 OA
ATOM     13  C   UNL     1       1.312   8.683  21.086  0.00  0.00    +0.000 C 
ATOM     14  N   UNL     1       0.416   9.558  20.477  0.00  0.00    +0.000 N 
ATOM     15  H   UNL     1      -0.197   9.169  19.772  0.00  0.00    +0.000 HD
BRANCH  13  16
ATOM     16  C   UNL     1       1.672   7.462  20.326  0.00  0.00    +0.000 A 
ATOM     17  C   UNL     1       2.260   7.614  19.066  0.00  0.00    +0.000 A 
ATOM     18  C   UNL     1       2.557   6.493  18.290  0.00  0.00    +0.000 A 
ATOM     19  C   UNL     1       2.259   5.204  18.757  0.00  0.00    +0.000 A 
ATOM     20  C   UNL     1       2.549   4.069  17.985  0.00  0.00    +0.000 A 
ATOM     21  C   UNL     1       2.233   2.792  18.449  0.00  0.00    +0.000 A 
ATOM     22  C   UNL     1       1.613   2.637  19.684  0.00  0.00    +0.000 A 
ATOM     23  C   UNL     1       1.317   3.756  20.466  0.00  0.00    +0.000 A 
ATOM     24  C   UNL     1       1.642   5.049  20.022  0.00  0.00    +0.000 A 
ATOM     25  C   UNL     1       1.354   6.186  20.800  0.00  0.00    +0.000 A 
ENDBRANCH  13  16
ENDBRANCH   1  14
BRANCH   9  26
ATOM     26  C   UNL     1       2.817  13.259  18.321  0.00  0.00    +0.000 C 
ATOM     27  O   UNL     1       3.739  14.053  18.200  0.00  0.00    +0.000 OA
BRANCH  26  28
ATOM     28  O   UNL     1       2.540  12.298  17.418  0.00  0.00    +0.000 OA
ATOM     29  H   UNL     1       3.169  12.271  16.668  0.00  0.00    +0.000 HD
ENDBRANCH  26  28
ENDBRANCH   9  26
TORSDOF 4
ENDMDL
MODEL 6
REMARK VINA RESULT:      -8.1      3.359      8.451
REMARK  Name = 
REMARK  4 active torsions:
REMARK  status: ('A' for Active; 'I' for Inactive)
REMARK    1  A    between atoms: C_2  and  C_18
REMARK    2  A    between atoms: N_3  and  C_4
REMARK    3  A    between atoms: C_12  and  C_13
REMARK    4  A    between atoms: C_13  and  O_15
REMARK                            x       y       z     vdW  Elec       q    Type
REMARK                         _______ _______ _______ _____ _____    ______ ____
ROOT
ATOM      1  C   UNL     1      10.192  11.091  19.163  0.00  0.00    +0.000 A 
ATOM      2  C   UNL     1      11.116  11.459  18.183  0.00  0.00    +0.000 A 
ATOM      3  C   UNL     1      11.679  12.743  18.207  0.00  0.00    +0.000 A 
ATOM      4  C   UNL     1      11.362  13.638  19.232  0.00  0.00    +0.000 A 
ATOM      5  C   UNL     1      10.485  13.242  20.247  0.00  0.00    +0.000 A 
ATOM      6  C   UNL     1      10.149  14.136  21.370  0.00  0.00    +0.000 A 
ATOM      7  O   UNL     1      10.637  15.246  21.487  0.00  0.00    +0.000 OA
ATOM      8  C   UNL     1       9.174  13.616  22.356  0.00  0.00    +0.000 A 
ATOM      9  C   UNL     1       8.711  12.369  22.211  0.00  0.00    +0.000 A 
ATOM     10  O   UNL     1       9.086  11.508  21.208  0.00  0.00    +0.000 OA
ATOM     11  C   UNL     1       9.906  11.975  20.212  0.00  0.00    +0.000 A 
ENDROOT
BRANCH   1  14
ATOM     12  O   UNL     1       8.008  10.583  17.481  0.00  0.00    +0.000 OA
ATOM     13  C   UNL     1       8.463   9.692  18.191  0.00  0.00    +0.000 C 
ATOM     14  N   UNL     1       9.531   9.841  19.072  0.00  0.00    +0.000 N 
ATOM     15  H   UNL     1      10.062   9.007  19.293  0.00  0.00    +0.000 HD
BRANCH  13  16
ATOM     16  C   UNL     1       7.870   8.337  18.085  0.00  0.00    +0.000 A 
ATOM     17  C   UNL     1       8.393   7.318  18.888  0.00  0.00    +0.000 A 
ATOM     18  C   UNL     1       7.908   6.016  18.774  0.00  0.00    +0.000 A 
ATOM     19  C   UNL     1       6.900   5.709  17.847  0.00  0.00    +0.000 A 
ATOM     20  C   UNL     1       6.406   4.402  17.720  0.00  0.00    +0.000 A 
ATOM     21  C   UNL     1       5.418   4.102  16.783  0.00  0.00    +0.000 A 
ATOM     22  C   UNL     1       4.920   5.103  15.955  0.00  0.00    +0.000 A 
ATOM     23  C   UNL     1       5.402   6.410  16.068  0.00  0.00    +0.000 A 
ATOM     24  C   UNL     1       6.386   6.733  17.016  0.00  0.00    +0.000 A 
ATOM     25  C   UNL     1       6.877   8.046  17.144  0.00  0.00    +0.000 A 
ENDBRANCH  13  16
ENDBRANCH   1  14
BRANCH   9  26
ATOM     26  C   UNL     1       7.722  11.818  23.186  0.00  0.00    +0.000 C 
ATOM     27  O   UNL     1       6.526  12.068  23.149  0.00  0.00    +0.000 OA
BRANCH  26  28
ATOM     28  O   UNL     1       8.292  11.043  24.130  0.00  0.00    +0.000 OA
ATOM     29  H   UNL     1       9.058  10.528  23.804  0.00  0.00    +0.000 HD
ENDBRANCH  26  28
ENDBRANCH   9  26
TORSDOF 4
ENDMDL
MODEL 7
REMARK VINA RESULT:      -8.0      4.926      8.396
REMARK  Name = 
REMARK  4 active torsions:
REMARK  status: ('A' for Active; 'I' for Inactive)
REMARK    1  A    between atoms: C_2  and  C_18
REMARK    2  A    between atoms: N_3  and  C_4
REMARK    3  A    between atoms: C_12  and  C_13
REMARK    4  A    between atoms: C_13  and  O_15
REMARK                            x       y       z     vdW  Elec       q    Type
REMARK                         _______ _______ _______ _____ _____    ______ ____
ROOT
ATOM      1  C   UNL     1       0.781   9.221  20.649  0.00  0.00    +0.000 A 
ATOM      2  C   UNL     1       0.056   8.612  21.674  0.00  0.00    +0.000 A 
ATOM      3  C   UNL     1      -0.569   9.403  22.649  0.00  0.00    +0.000 A 
ATOM      4  C   UNL     1      -0.515  10.798  22.573  0.00  0.00    +0.000 A 
ATOM      5  C   UNL     1       0.158  11.405  21.508  0.00  0.00    +0.000 A 
ATOM      6  C   UNL     1       0.212  12.870  21.363  0.00  0.00    +0.000 A 
ATOM      7  O   UNL     1      -0.349  13.622  22.140  0.00  0.00    +0.000 OA
ATOM      8  C   UNL     1       0.994  13.390  20.217  0.00  0.00    +0.000 A 
ATOM      9  C   UNL     1       1.544  12.520  19.362  0.00  0.00    +0.000 A 
ATOM     10  O   UNL     1       1.426  11.154  19.454  0.00  0.00    +0.000 OA
ATOM     11  C   UNL     1       0.800  10.620  20.551  0.00  0.00    +0.000 A 
ENDROOT
BRANCH   1  14
ATOM     12  O   UNL     1       1.614   6.596  21.167  0.00  0.00    +0.000 OA
ATOM     13  C   UNL     1       1.864   7.124  20.087  0.00  0.00    +0.000 C 
ATOM     14  N   UNL     1       1.512   8.424  19.734  0.00  0.00    +0.000 N 
ATOM     15  H   UNL     1       1.405   8.617  18.746  0.00  0.00    +0.000 HD
BRANCH  13  16
ATOM     16  C   UNL     1       2.556   6.316  19.054  0.00  0.00    +0.000 A 
ATOM     17  C   UNL     1       2.400   4.926  19.083  0.00  0.00    +0.000 A 
ATOM     18  C   UNL     1       3.083   4.124  18.169  0.00  0.00    +0.000 A 
ATOM     19  C   UNL     1       3.943   4.699  17.220  0.00  0.00    +0.000 A 
ATOM     20  C   UNL     1       4.639   3.902  16.297  0.00  0.00    +0.000 A 
ATOM     21  C   UNL     1       5.505   4.480  15.370  0.00  0.00    +0.000 A 
ATOM     22  C   UNL     1       5.694   5.858  15.361  0.00  0.00    +0.000 A 
ATOM     23  C   UNL     1       5.010   6.665  16.273  0.00  0.00    +0.000 A 
ATOM     24  C   UNL     1       4.122   6.103  17.205  0.00  0.00    +0.000 A 
ATOM     25  C   UNL     1       3.421   6.904  18.126  0.00  0.00    +0.000 A 
ENDBRANCH  13  16
ENDBRANCH   1  14
BRANCH   9  26
ATOM     26  C   UNL     1       2.342  13.014  18.200  0.00  0.00    +0.000 C 
ATOM     27  O   UNL     1       2.664  14.184  18.050  0.00  0.00    +0.000 OA
BRANCH  26  28
ATOM     28  O   UNL     1       2.643  12.041  17.318  0.00  0.00    +0.000 OA
ATOM     29  H   UNL     1       3.084  11.266  17.725  0.00  0.00    +0.000 HD
ENDBRANCH  26  28
ENDBRANCH   9  26
TORSDOF 4
ENDMDL
MODEL 8
REMARK VINA RESULT:      -7.9      5.103      8.539
REMARK  Name = 
REMARK  4 active torsions:
REMARK  status: ('A' for Active; 'I' for Inactive)
REMARK    1  A    between atoms: C_2  and  C_18
REMARK    2  A    between atoms: N_3  and  C_4
REMARK    3  A    between atoms: C_12  and  C_13
REMARK    4  A    between atoms: C_13  and  O_15
REMARK                            x       y       z     vdW  Elec       q    Type
REMARK                         _______ _______ _______ _____ _____    ______ ____
ROOT
ATOM      1  C   UNL     1       0.476   9.913  20.040  0.00  0.00    +0.000 A 
ATOM      2  C   UNL     1       0.882  10.219  21.340  0.00  0.00    +0.000 A 
ATOM      3  C   UNL     1       0.215  11.220  22.059  0.00  0.00    +0.000 A 
ATOM      4  C   UNL     1      -0.885  11.880  21.503  0.00  0.00    +0.000 A 
ATOM      5  C   UNL     1      -1.329  11.526  20.225  0.00  0.00    +0.000 A 
ATOM      6  C   UNL     1      -2.506  12.165  19.611  0.00  0.00    +0.000 A 
ATOM      7  O   UNL     1      -3.167  13.007  20.193  0.00  0.00    +0.000 OA
ATOM      8  C   UNL     1      -2.846  11.734  18.235  0.00  0.00    +0.000 A 
ATOM      9  C   UNL     1      -2.121  10.766  17.663  0.00  0.00    +0.000 A 
ATOM     10  O   UNL     1      -1.072  10.115  18.267  0.00  0.00    +0.000 OA
ATOM     11  C   UNL     1      -0.652  10.546  19.500  0.00  0.00    +0.000 A 
ENDROOT
BRANCH   1  14
ATOM     12  O   UNL     1       1.513   7.508  21.037  0.00  0.00    +0.000 OA
ATOM     13  C   UNL     1       1.680   7.813  19.860  0.00  0.00    +0.000 C 
ATOM     14  N   UNL     1       1.223   8.988  19.269  0.00  0.00    +0.000 N 
ATOM     15  H   UNL     1       1.060   8.964  18.270  0.00  0.00    +0.000 HD
BRANCH  13  16
ATOM     16  C   UNL     1       2.383   6.852  18.978  0.00  0.00    +0.000 A 
ATOM     17  C   UNL     1       2.189   5.484  19.199  0.00  0.00    +0.000 A 
ATOM     18  C   UNL     1       2.880   4.545  18.433  0.00  0.00    +0.000 A 
ATOM     19  C   UNL     1       3.784   4.959  17.443  0.00  0.00    +0.000 A 
ATOM     20  C   UNL     1       4.487   4.023  16.668  0.00  0.00    +0.000 A 
ATOM     21  C   UNL     1       5.397   4.443  15.698  0.00  0.00    +0.000 A 
ATOM     22  C   UNL     1       5.622   5.801  15.499  0.00  0.00    +0.000 A 
ATOM     23  C   UNL     1       4.930   6.745  16.262  0.00  0.00    +0.000 A 
ATOM     24  C   UNL     1       3.999   6.342  17.233  0.00  0.00    +0.000 A 
ATOM     25  C   UNL     1       3.291   7.281  18.006  0.00  0.00    +0.000 A 
ENDBRANCH  13  16
ENDBRANCH   1  14
BRANCH   9  26
ATOM     26  C   UNL     1      -2.436  10.314  16.275  0.00  0.00    +0.000 C 
ATOM     27  O   UNL     1      -2.637   9.146  15.975  0.00  0.00    +0.000 OA
BRANCH  26  28
ATOM     28  O   UNL     1      -2.443  11.323  15.382  0.00  0.00    +0.000 OA
ATOM     29  H   UNL     1      -1.593  11.805  15.329  0.00  0.00    +0.000 HD
ENDBRANCH  26  28
ENDBRANCH   9  26
TORSDOF 4
ENDMDL
MODEL 9
REMARK VINA RESULT:      -7.8      5.039      8.424
REMARK  Name = 
REMARK  4 active torsions:
REMARK  status: ('A' for Active; 'I' for Inactive)
REMARK    1  A    between atoms: C_2  and  C_18
REMARK    2  A    between atoms: N_3  and  C_4
REMARK    3  A    between atoms: C_12  and  C_13
REMARK    4  A    between atoms: C_13  and  O_15
REMARK                            x       y       z     vdW  Elec       q    Type
REMARK                         _______ _______ _______ _____ _____    ______ ____
ROOT
ATOM      1  C   UNL     1       0.740   9.099  20.906  0.00  0.00    +0.000 A 
ATOM      2  C   UNL     1       1.033   8.958  22.264  0.00  0.00    +0.000 A 
ATOM      3  C   UNL     1       0.396   9.784  23.201  0.00  0.00    +0.000 A 
ATOM      4  C   UNL     1      -0.566  10.712  22.792  0.00  0.00    +0.000 A 
ATOM      5  C   UNL     1      -0.903  10.804  21.438  0.00  0.00    +0.000 A 
ATOM      6  C   UNL     1      -1.937  11.740  20.962  0.00  0.00    +0.000 A 
ATOM      7  O   UNL     1      -2.570  12.453  21.721  0.00  0.00    +0.000 OA
ATOM      8  C   UNL     1      -2.170  11.775  19.500  0.00  0.00    +0.000 A 
ATOM      9  C   UNL     1      -1.488  10.931  18.716  0.00  0.00    +0.000 A 
ATOM     10  O   UNL     1      -0.580  10.004  19.170  0.00  0.00    +0.000 OA
ATOM     11  C   UNL     1      -0.254  10.001  20.502  0.00  0.00    +0.000 A 
ENDROOT
BRANCH   1  14
ATOM     12  O   UNL     1       1.386   6.386  21.187  0.00  0.00    +0.000 OA
ATOM     13  C   UNL     1       1.723   7.002  20.180  0.00  0.00    +0.000 C 
ATOM     14  N   UNL     1       1.469   8.351  19.948  0.00  0.00    +0.000 N 
ATOM     15  H   UNL     1       1.424   8.649  18.981  0.00  0.00    +0.000 HD
BRANCH  13  16
ATOM     16  C   UNL     1       2.417   6.259  19.102  0.00  0.00    +0.000 A 
ATOM     17  C   UNL     1       2.185   4.884  18.987  0.00  0.00    +0.000 A 
ATOM     18  C   UNL     1       2.866   4.135  18.027  0.00  0.00    +0.000 A 
ATOM     19  C   UNL     1       3.798   4.747  17.175  0.00  0.00    +0.000 A 
ATOM     20  C   UNL     1       4.491   4.004  16.207  0.00  0.00    +0.000 A 
ATOM     21  C   UNL     1       5.430   4.616  15.377  0.00  0.00    +0.000 A 
ATOM     22  C   UNL     1       5.693   5.976  15.512  0.00  0.00    +0.000 A 
ATOM     23  C   UNL     1       5.012   6.730  16.470  0.00  0.00    +0.000 A 
ATOM     24  C   UNL     1       4.052   6.133  17.305  0.00  0.00    +0.000 A 
ATOM     25  C   UNL     1       3.355   6.882  18.272  0.00  0.00    +0.000 A 
ENDBRANCH  13  16
ENDBRANCH   1  14
BRANCH   9  26
ATOM     26  C   UNL     1      -1.697  10.947  17.237  0.00  0.00    +0.000 C 
ATOM     27  O   UNL     1      -1.860   9.936  16.568  0.00  0.00    +0.000 OA
BRANCH  26  28
ATOM     28  O   UNL     1      -1.653  12.187  16.713  0.00  0.00    +0.000 OA
ATOM     29  H   UNL     1      -2.378  12.371  16.081  0.00  0.00    +0.000 HD
ENDBRANCH  26  28
ENDBRANCH   9  26
TORSDOF 4
ENDMDL
