MODEL 1
REMARK VINA RESULT:      -7.9      0.000      0.000
REMARK  Name = 
REMARK  10 active torsions:
REMARK  status: ('A' for Active; 'I' for Inactive)
REMARK    1  A    between atoms: C_1  and  O_2
REMARK    2  A    between atoms: O_2  and  C_3
REMARK    3  A    between atoms: C_3  and  C_4
REMARK    4  A    between atoms: C_4  and  C_5
REMARK    5  A    between atoms: C_4  and  N_6
REMARK    6  A    between atoms: C_10  and  C_11
REMARK    7  A    between atoms: C_13  and  C_14
REMARK    8  A    between atoms: N_15  and  C_16
REMARK    9  A    between atoms: C_16  and  C_17
REMARK   10  A    between atoms: C_24  and  C_25
REMARK                            x       y       z     vdW  Elec       q    Type
REMARK                         _______ _______ _______ _____ _____    ______ ____
ROOT
ATOM      1  C   UNL     1       1.820   8.078  19.673  0.00  0.00    +0.000 A 
ATOM      2  C   UNL     1       1.199   8.029  20.947  0.00  0.00    +0.000 A 
ATOM      3  C   UNL     1       0.480   9.191  21.133  0.00  0.00    +0.000 A 
ATOM      4  C   UNL     1      -0.423   9.557  22.259  0.00  0.00    +0.000 C 
ATOM      5  N   UNL     1       0.668   9.977  20.009  0.00  0.00    +0.000 N 
ATOM      6  C   UNL     1       1.556   9.347  19.151  0.00  0.00    +0.000 A 
ATOM      7  C   UNL     1       2.028   9.942  17.864  0.00  0.00    +0.000 C 
ENDROOT
BRANCH   1  12
ATOM      8  N   UNL     1       4.876   4.232  16.902  0.00  0.00    +0.000 N 
ATOM      9  C   UNL     1       4.172   5.145  17.643  0.00  0.00    +0.000 C 
ATOM     10  N   UNL     1       4.025   6.384  17.294  0.00  0.00    +0.000 NA
ATOM     11  N   UNL     1       3.411   7.333  18.109  0.00  0.00    +0.000 NA
ATOM     12  C   UNL     1       2.538   6.985  19.003  0.00  0.00    +0.000 C 
ATOM     13  C   UNL     1       2.143   5.564  19.290  0.00  0.00    +0.000 C 
ATOM     14  S   UNL     1       3.554   4.464  19.124  0.00  0.00    +0.000 S 
ATOM     15  H   UNL     1       5.042   3.368  17.405  0.00  0.00    +0.000 HD
BRANCH   8  16
ATOM     16  C   UNL     1       6.005   4.676  16.077  0.00  0.00    +0.000 C 
ATOM     17  C   UNL     1       6.069   3.816  14.813  0.00  0.00    +0.000 C 
BRANCH  16  18
ATOM     18  C   UNL     1       7.316   4.583  16.884  0.00  0.00    +0.000 C 
BRANCH  18  20
ATOM     19  C   UNL     1       7.593   5.911  18.803  0.00  0.00    +0.000 C 
ATOM     20  O   UNL     1       7.699   5.864  17.385  0.00  0.00    +0.000 OA
ENDBRANCH  18  20
ENDBRANCH  16  18
ENDBRANCH   8  16
ENDBRANCH   1  12
BRANCH   5  21
ATOM     21  C   UNL     1      -0.057  11.226  19.740  0.00  0.00    +0.000 C 
BRANCH  21  22
ATOM     22  C   UNL     1      -1.359  11.033  18.980  0.00  0.00    +0.000 A 
ATOM     23  C   UNL     1      -1.522  10.022  18.012  0.00  0.00    +0.000 A 
ATOM     24  C   UNL     1      -2.754   9.798  17.395  0.00  0.00    +0.000 A 
ATOM     25  C   UNL     1      -3.847  10.595  17.710  0.00  0.00    +0.000 A 
ATOM     26  C   UNL     1      -3.697  11.641  18.618  0.00  0.00    +0.000 A 
ATOM     27  C   UNL     1      -2.463  11.866  19.240  0.00  0.00    +0.000 A 
ATOM     28 CL   UNL     1      -2.355  13.200  20.335  0.00  0.00    +0.000 Cl
ENDBRANCH  21  22
ENDBRANCH   5  21
TORSDOF 6
ENDMDL
MODEL 2
REMARK VINA RESULT:      -7.6      1.661      2.394
REMARK  Name = 
REMARK  10 active torsions:
REMARK  status: ('A' for Active; 'I' for Inactive)
REMARK    1  A    between atoms: C_1  and  O_2
REMARK    2  A    between atoms: O_2  and  C_3
REMARK    3  A    between atoms: C_3  and  C_4
REMARK    4  A    between atoms: C_4  and  C_5
REMARK    5  A    between atoms: C_4  and  N_6
REMARK    6  A    between atoms: C_10  and  C_11
REMARK    7  A    between atoms: C_13  and  C_14
REMARK    8  A    between atoms: N_15  and  C_16
REMARK    9  A    between atoms: C_16  and  C_17
REMARK   10  A    between atoms: C_24  and  C_25
REMARK                            x       y       z     vdW  Elec       q    Type
REMARK                         _______ _______ _______ _____ _____    ______ ____
ROOT
ATOM      1  C   UNL     1       1.764   8.023  20.001  0.00  0.00    +0.000 A 
ATOM      2  C   UNL     1       1.576   8.088  21.405  0.00  0.00    +0.000 A 
ATOM      3  C   UNL     1       0.683   9.100  21.685  0.00  0.00    +0.000 A 
ATOM      4  C   UNL     1       0.089   9.483  22.995  0.00  0.00    +0.000 C 
ATOM      5  N   UNL     1       0.335   9.688  20.480  0.00  0.00    +0.000 N 
ATOM      6  C   UNL     1       1.058   9.098  19.455  0.00  0.00    +0.000 A 
ATOM      7  C   UNL     1       0.970   9.527  18.026  0.00  0.00    +0.000 C 
ENDROOT
BRANCH   1  12
ATOM      8  N   UNL     1       4.827   4.423  16.925  0.00  0.00    +0.000 N 
ATOM      9  C   UNL     1       4.130   5.280  17.736  0.00  0.00    +0.000 C 
ATOM     10  N   UNL     1       3.837   6.497  17.400  0.00  0.00    +0.000 NA
ATOM     11  N   UNL     1       3.235   7.399  18.274  0.00  0.00    +0.000 NA
ATOM     12  C   UNL     1       2.499   6.988  19.260  0.00  0.00    +0.000 C 
ATOM     13  C   UNL     1       2.264   5.542  19.593  0.00  0.00    +0.000 C 
ATOM     14  S   UNL     1       3.740   4.567  19.277  0.00  0.00    +0.000 S 
ATOM     15  H   UNL     1       5.122   3.582  17.409  0.00  0.00    +0.000 HD
BRANCH   8  16
ATOM     16  C   UNL     1       5.816   4.952  15.979  0.00  0.00    +0.000 C 
ATOM     17  C   UNL     1       6.039   3.929  14.863  0.00  0.00    +0.000 C 
BRANCH  16  18
ATOM     18  C   UNL     1       7.132   5.272  16.717  0.00  0.00    +0.000 C 
BRANCH  18  20
ATOM     19  C   UNL     1       7.530   7.427  17.562  0.00  0.00    +0.000 C 
ATOM     20  O   UNL     1       7.581   6.593  16.412  0.00  0.00    +0.000 OA
ENDBRANCH  18  20
ENDBRANCH  16  18
ENDBRANCH   8  16
ENDBRANCH   1  12
BRANCH   5  21
ATOM     21  C   UNL     1      -0.720  10.699  20.325  0.00  0.00    +0.000 C 
BRANCH  21  22
ATOM     22  C   UNL     1      -0.199  12.103  20.070  0.00  0.00    +0.000 A 
ATOM     23  C   UNL     1       0.646  12.767  20.981  0.00  0.00    +0.000 A 
ATOM     24  C   UNL     1       1.193  14.018  20.686  0.00  0.00    +0.000 A 
ATOM     25  C   UNL     1       0.889  14.646  19.485  0.00  0.00    +0.000 A 
ATOM     26  C   UNL     1       0.007  14.038  18.594  0.00  0.00    +0.000 A 
ATOM     27  C   UNL     1      -0.540  12.783  18.887  0.00  0.00    +0.000 A 
ATOM     28 CL   UNL     1      -1.645  12.110  17.739  0.00  0.00    +0.000 Cl
ENDBRANCH  21  22
ENDBRANCH   5  21
TORSDOF 6
ENDMDL
MODEL 3
REMARK VINA RESULT:      -7.5      4.595      8.979
REMARK  Name = 
REMARK  10 active torsions:
REMARK  status: ('A' for Active; 'I' for Inactive)
REMARK    1  A    between atoms: C_1  and  O_2
REMARK    2  A    between atoms: O_2  and  C_3
REMARK    3  A    between atoms: C_3  and  C_4
REMARK    4  A    between atoms: C_4  and  C_5
REMARK    5  A    between atoms: C_4  and  N_6
REMARK    6  A    between atoms: C_10  and  C_11
REMARK    7  A    between atoms: C_13  and  C_14
REMARK    8  A    between atoms: N_15  and  C_16
REMARK    9  A    between atoms: C_16  and  C_17
REMARK   10  A    between atoms: C_24  and  C_25
REMARK                            x       y       z     vdW  Elec       q    Type
REMARK                         _______ _______ _______ _____ _____    ______ ____
ROOT
ATOM      1  C   UNL     1       1.578   8.814  18.602  0.00  0.00    +0.000 A 
ATOM      2  C   UNL     1       2.480   8.605  17.528  0.00  0.00    +0.000 A 
ATOM      3  C   UNL     1       3.288   7.530  17.831  0.00  0.00    +0.000 A 
ATOM      4  C   UNL     1       4.310   6.863  16.979  0.00  0.00    +0.000 C 
ATOM      5  N   UNL     1       2.925   7.085  19.091  0.00  0.00    +0.000 N 
ATOM      6  C   UNL     1       1.944   7.917  19.608  0.00  0.00    +0.000 A 
ATOM      7  C   UNL     1       1.361   7.760  20.975  0.00  0.00    +0.000 C 
ENDROOT
BRANCH   1  12
ATOM      8  N   UNL     1      -3.067  12.010  18.477  0.00  0.00    +0.000 N 
ATOM      9  C   UNL     1      -1.950  11.223  18.587  0.00  0.00    +0.000 C 
ATOM     10  N   UNL     1      -1.697  10.232  17.792  0.00  0.00    +0.000 NA
ATOM     11  N   UNL     1      -0.624   9.364  17.982  0.00  0.00    +0.000 NA
ATOM     12  C   UNL     1       0.438   9.742  18.624  0.00  0.00    +0.000 C 
ATOM     13  C   UNL     1       0.606  11.092  19.260  0.00  0.00    +0.000 C 
ATOM     14  S   UNL     1      -0.953  11.671  19.943  0.00  0.00    +0.000 S 
ATOM     15  H   UNL     1      -3.197  12.615  19.280  0.00  0.00    +0.000 HD
BRANCH   8  16
ATOM     16  C   UNL     1      -4.310  11.444  17.941  0.00  0.00    +0.000 C 
ATOM     17  C   UNL     1      -4.273  11.511  16.414  0.00  0.00    +0.000 C 
BRANCH  16  18
ATOM     18  C   UNL     1      -5.524  12.211  18.506  0.00  0.00    +0.000 C 
BRANCH  18  20
ATOM     19  C   UNL     1      -6.730  10.246  18.958  0.00  0.00    +0.000 C 
ATOM     20  O   UNL     1      -6.736  11.492  18.272  0.00  0.00    +0.000 OA
ENDBRANCH  18  20
ENDBRANCH  16  18
ENDBRANCH   8  16
ENDBRANCH   1  12
BRANCH   5  21
ATOM     21  C   UNL     1       3.434   5.855  19.714  0.00  0.00    +0.000 C 
BRANCH  21  22
ATOM     22  C   UNL     1       2.584   4.625  19.438  0.00  0.00    +0.000 A 
ATOM     23  C   UNL     1       1.367   4.388  20.104  0.00  0.00    +0.000 A 
ATOM     24  C   UNL     1       0.553   3.304  19.768  0.00  0.00    +0.000 A 
ATOM     25  C   UNL     1       0.949   2.417  18.776  0.00  0.00    +0.000 A 
ATOM     26  C   UNL     1       2.178   2.593  18.144  0.00  0.00    +0.000 A 
ATOM     27  C   UNL     1       2.994   3.681  18.479  0.00  0.00    +0.000 A 
ATOM     28 CL   UNL     1       4.514   3.814  17.665  0.00  0.00    +0.000 Cl
ENDBRANCH  21  22
ENDBRANCH   5  21
TORSDOF 6
ENDMDL
MODEL 4
REMARK VINA RESULT:      -7.5      1.664      2.651
REMARK  Name = 
REMARK  10 active torsions:
REMARK  status: ('A' for Active; 'I' for Inactive)
REMARK    1  A    between atoms: C_1  and  O_2
REMARK    2  A    between atoms: O_2  and  C_3
REMARK    3  A    between atoms: C_3  and  C_4
REMARK    4  A    between atoms: C_4  and  C_5
REMARK    5  A    between atoms: C_4  and  N_6
REMARK    6  A    between atoms: C_10  and  C_11
REMARK    7  A    between atoms: C_13  and  C_14
REMARK    8  A    between atoms: N_15  and  C_16
REMARK    9  A    between atoms: C_16  and  C_17
REMARK   10  A    between atoms: C_24  and  C_25
REMARK                            x       y       z     vdW  Elec       q    Type
REMARK                         _______ _______ _______ _____ _____    ______ ____
ROOT
ATOM      1  C   UNL     1       1.856   7.916  19.808  0.00  0.00    +0.000 A 
ATOM      2  C   UNL     1       1.484   7.843  21.175  0.00  0.00    +0.000 A 
ATOM      3  C   UNL     1       0.679   8.922  21.472  0.00  0.00    +0.000 A 
ATOM      4  C   UNL     1      -0.044   9.225  22.738  0.00  0.00    +0.000 C 
ATOM      5  N   UNL     1       0.569   9.684  20.321  0.00  0.00    +0.000 N 
ATOM      6  C   UNL     1       1.356   9.128  19.325  0.00  0.00    +0.000 A 
ATOM      7  C   UNL     1       1.516   9.726  17.965  0.00  0.00    +0.000 C 
ENDROOT
BRANCH   1  12
ATOM      8  N   UNL     1       4.834   4.342  16.621  0.00  0.00    +0.000 N 
ATOM      9  C   UNL     1       4.158   5.189  17.459  0.00  0.00    +0.000 C 
ATOM     10  N   UNL     1       3.897   6.424  17.163  0.00  0.00    +0.000 NA
ATOM     11  N   UNL     1       3.316   7.312  18.066  0.00  0.00    +0.000 NA
ATOM     12  C   UNL     1       2.566   6.887  19.036  0.00  0.00    +0.000 C 
ATOM     13  C   UNL     1       2.293   5.438  19.320  0.00  0.00    +0.000 C 
ATOM     14  S   UNL     1       3.745   4.437  18.975  0.00  0.00    +0.000 S 
ATOM     15  H   UNL     1       5.107   3.478  17.078  0.00  0.00    +0.000 HD
BRANCH   8  16
ATOM     16  C   UNL     1       5.840   4.876  15.695  0.00  0.00    +0.000 C 
ATOM     17  C   UNL     1       5.984   3.922  14.509  0.00  0.00    +0.000 C 
BRANCH  16  18
ATOM     18  C   UNL     1       7.184   5.066  16.429  0.00  0.00    +0.000 C 
BRANCH  18  20
ATOM     19  C   UNL     1       7.467   7.000  17.732  0.00  0.00    +0.000 C 
ATOM     20  O   UNL     1       7.576   6.439  16.430  0.00  0.00    +0.000 OA
ENDBRANCH  18  20
ENDBRANCH  16  18
ENDBRANCH   8  16
ENDBRANCH   1  12
BRANCH   5  21
ATOM     21  C   UNL     1      -0.335  10.832  20.170  0.00  0.00    +0.000 C 
BRANCH  21  22
ATOM     22  C   UNL     1       0.192  12.120  20.782  0.00  0.00    +0.000 A 
ATOM     23  C   UNL     1       1.441  12.665  20.427  0.00  0.00    +0.000 A 
ATOM     24  C   UNL     1       1.865  13.897  20.927  0.00  0.00    +0.000 A 
ATOM     25  C   UNL     1       1.063  14.603  21.814  0.00  0.00    +0.000 A 
ATOM     26  C   UNL     1      -0.149  14.057  22.231  0.00  0.00    +0.000 A 
ATOM     27  C   UNL     1      -0.577  12.822  21.728  0.00  0.00    +0.000 A 
ATOM     28 CL   UNL     1      -2.082  12.203  22.314  0.00  0.00    +0.000 Cl
ENDBRANCH  21  22
ENDBRANCH   5  21
TORSDOF 6
ENDMDL
MODEL 5
REMARK VINA RESULT:      -7.4      4.533      9.016
REMARK  Name = 
REMARK  10 active torsions:
REMARK  status: ('A' for Active; 'I' for Inactive)
REMARK    1  A    between atoms: C_1  and  O_2
REMARK    2  A    between atoms: O_2  and  C_3
REMARK    3  A    between atoms: C_3  and  C_4
REMARK    4  A    between atoms: C_4  and  C_5
REMARK    5  A    between atoms: C_4  and  N_6
REMARK    6  A    between atoms: C_10  and  C_11
REMARK    7  A    between atoms: C_13  and  C_14
REMARK    8  A    between atoms: N_15  and  C_16
REMARK    9  A    between atoms: C_16  and  C_17
REMARK   10  A    between atoms: C_24  and  C_25
REMARK                            x       y       z     vdW  Elec       q    Type
REMARK                         _______ _______ _______ _____ _____    ______ ____
ROOT
ATOM      1  C   UNL     1       1.440   9.028  18.677  0.00  0.00    +0.000 A 
ATOM      2  C   UNL     1       2.387   8.857  17.635  0.00  0.00    +0.000 A 
ATOM      3  C   UNL     1       3.166   7.756  17.922  0.00  0.00    +0.000 A 
ATOM      4  C   UNL     1       4.216   7.115  17.084  0.00  0.00    +0.000 C 
ATOM      5  N   UNL     1       2.741   7.256  19.141  0.00  0.00    +0.000 N 
ATOM      6  C   UNL     1       1.748   8.077  19.654  0.00  0.00    +0.000 A 
ATOM      7  C   UNL     1       1.102   7.864  20.984  0.00  0.00    +0.000 C 
ENDROOT
BRANCH   1  12
ATOM      8  N   UNL     1      -3.181  12.261  18.626  0.00  0.00    +0.000 N 
ATOM      9  C   UNL     1      -2.060  11.478  18.720  0.00  0.00    +0.000 C 
ATOM     10  N   UNL     1      -1.908  10.371  18.064  0.00  0.00    +0.000 NA
ATOM     11  N   UNL     1      -0.821   9.520  18.254  0.00  0.00    +0.000 NA
ATOM     12  C   UNL     1       0.313   9.971  18.694  0.00  0.00    +0.000 C 
ATOM     13  C   UNL     1       0.560  11.400  19.086  0.00  0.00    +0.000 C 
ATOM     14  S   UNL     1      -0.901  12.110  19.856  0.00  0.00    +0.000 S 
ATOM     15  H   UNL     1      -3.209  12.986  19.334  0.00  0.00    +0.000 HD
BRANCH   8  16
ATOM     16  C   UNL     1      -4.482  11.644  18.342  0.00  0.00    +0.000 C 
ATOM     17  C   UNL     1      -4.867  11.935  16.890  0.00  0.00    +0.000 C 
BRANCH  16  18
ATOM     18  C   UNL     1      -5.545  12.183  19.322  0.00  0.00    +0.000 C 
BRANCH  18  20
ATOM     19  C   UNL     1      -7.319  11.205  20.512  0.00  0.00    +0.000 C 
ATOM     20  O   UNL     1      -6.755  11.430  19.226  0.00  0.00    +0.000 OA
ENDBRANCH  18  20
ENDBRANCH  16  18
ENDBRANCH   8  16
ENDBRANCH   1  12
BRANCH   5  21
ATOM     21  C   UNL     1       3.204   5.990  19.725  0.00  0.00    +0.000 C 
BRANCH  21  22
ATOM     22  C   UNL     1       2.356   4.787  19.346  0.00  0.00    +0.000 A 
ATOM     23  C   UNL     1       1.908   4.569  18.029  0.00  0.00    +0.000 A 
ATOM     24  C   UNL     1       1.213   3.410  17.679  0.00  0.00    +0.000 A 
ATOM     25  C   UNL     1       0.927   2.452  18.643  0.00  0.00    +0.000 A 
ATOM     26  C   UNL     1       1.304   2.672  19.966  0.00  0.00    +0.000 A 
ATOM     27  C   UNL     1       2.003   3.833  20.317  0.00  0.00    +0.000 A 
ATOM     28 CL   UNL     1       2.413   4.041  21.985  0.00  0.00    +0.000 Cl
ENDBRANCH  21  22
ENDBRANCH   5  21
TORSDOF 6
ENDMDL
MODEL 6
REMARK VINA RESULT:      -7.4      3.930      8.870
REMARK  Name = 
REMARK  10 active torsions:
REMARK  status: ('A' for Active; 'I' for Inactive)
REMARK    1  A    between atoms: C_1  and  O_2
REMARK    2  A    between atoms: O_2  and  C_3
REMARK    3  A    between atoms: C_3  and  C_4
REMARK    4  A    between atoms: C_4  and  C_5
REMARK    5  A    between atoms: C_4  and  N_6
REMARK    6  A    between atoms: C_10  and  C_11
REMARK    7  A    between atoms: C_13  and  C_14
REMARK    8  A    between atoms: N_15  and  C_16
REMARK    9  A    between atoms: C_16  and  C_17
REMARK   10  A    between atoms: C_24  and  C_25
REMARK                            x       y       z     vdW  Elec       q    Type
REMARK                         _______ _______ _______ _____ _____    ______ ____
ROOT
ATOM      1  C   UNL     1       1.711   7.271  20.118  0.00  0.00    +0.000 A 
ATOM      2  C   UNL     1       1.643   6.010  20.764  0.00  0.00    +0.000 A 
ATOM      3  C   UNL     1       2.355   5.093  20.020  0.00  0.00    +0.000 A 
ATOM      4  C   UNL     1       2.664   3.673  20.341  0.00  0.00    +0.000 C 
ATOM      5  N   UNL     1       2.840   5.754  18.904  0.00  0.00    +0.000 N 
ATOM      6  C   UNL     1       2.377   7.062  18.907  0.00  0.00    +0.000 A 
ATOM      7  C   UNL     1       2.664   8.044  17.819  0.00  0.00    +0.000 C 
ENDROOT
BRANCH   1  12
ATOM      8  N   UNL     1      -0.258  12.316  21.689  0.00  0.00    +0.000 N 
ATOM      9  C   UNL     1       0.155  11.057  21.341  0.00  0.00    +0.000 C 
ATOM     10  N   UNL     1       0.556  10.743  20.150  0.00  0.00    +0.000 NA
ATOM     11  N   UNL     1       0.860   9.436  19.773  0.00  0.00    +0.000 NA
ATOM     12  C   UNL     1       1.237   8.556  20.648  0.00  0.00    +0.000 C 
ATOM     13  C   UNL     1       1.334   8.821  22.124  0.00  0.00    +0.000 C 
ATOM     14  S   UNL     1       0.023   9.926  22.660  0.00  0.00    +0.000 S 
ATOM     15  H   UNL     1      -0.704  12.342  22.599  0.00  0.00    +0.000 HD
BRANCH   8  16
ATOM     16  C   UNL     1      -0.886  13.183  20.685  0.00  0.00    +0.000 C 
ATOM     17  C   UNL     1      -0.631  14.645  21.056  0.00  0.00    +0.000 C 
BRANCH  16  18
ATOM     18  C   UNL     1      -2.397  12.882  20.601  0.00  0.00    +0.000 C 
BRANCH  18  20
ATOM     19  C   UNL     1      -4.075  12.088  19.160  0.00  0.00    +0.000 C 
ATOM     20  O   UNL     1      -2.689  12.047  19.479  0.00  0.00    +0.000 OA
ENDBRANCH  18  20
ENDBRANCH  16  18
ENDBRANCH   8  16
ENDBRANCH   1  12
BRANCH   5  21
ATOM     21  C   UNL     1       3.786   5.174  17.942  0.00  0.00    +0.000 C 
BRANCH  21  22
ATOM     22  C   UNL     1       5.225   5.621  18.142  0.00  0.00    +0.000 A 
ATOM     23  C   UNL     1       5.932   5.364  19.333  0.00  0.00    +0.000 A 
ATOM     24  C   UNL     1       7.282   5.696  19.462  0.00  0.00    +0.000 A 
ATOM     25  C   UNL     1       7.951   6.315  18.415  0.00  0.00    +0.000 A 
ATOM     26  C   UNL     1       7.259   6.636  17.249  0.00  0.00    +0.000 A 
ATOM     27  C   UNL     1       5.905   6.302  17.117  0.00  0.00    +0.000 A 
ATOM     28 CL   UNL     1       5.114   6.757  15.648  0.00  0.00    +0.000 Cl
ENDBRANCH  21  22
ENDBRANCH   5  21
TORSDOF 6
ENDMDL
MODEL 7
REMARK VINA RESULT:      -7.4      4.312      9.046
REMARK  Name = 
REMARK  10 active torsions:
REMARK  status: ('A' for Active; 'I' for Inactive)
REMARK    1  A    between atoms: C_1  and  O_2
REMARK    2  A    between atoms: O_2  and  C_3
REMARK    3  A    between atoms: C_3  and  C_4
REMARK    4  A    between atoms: C_4  and  C_5
REMARK    5  A    between atoms: C_4  and  N_6
REMARK    6  A    between atoms: C_10  and  C_11
REMARK    7  A    between atoms: C_13  and  C_14
REMARK    8  A    between atoms: N_15  and  C_16
REMARK    9  A    between atoms: C_16  and  C_17
REMARK   10  A    between atoms: C_24  and  C_25
REMARK                            x       y       z     vdW  Elec       q    Type
REMARK                         _______ _______ _______ _____ _____    ______ ____
ROOT
ATOM      1  C   UNL     1       1.666   7.086  20.199  0.00  0.00    +0.000 A 
ATOM      2  C   UNL     1       1.658   5.790  20.775  0.00  0.00    +0.000 A 
ATOM      3  C   UNL     1       2.399   4.946  19.976  0.00  0.00    +0.000 A 
ATOM      4  C   UNL     1       2.771   3.524  20.215  0.00  0.00    +0.000 C 
ATOM      5  N   UNL     1       2.843   5.687  18.894  0.00  0.00    +0.000 N 
ATOM      6  C   UNL     1       2.327   6.971  18.973  0.00  0.00    +0.000 A 
ATOM      7  C   UNL     1       2.559   8.023  17.938  0.00  0.00    +0.000 C 
ENDROOT
BRANCH   1  12
ATOM      8  N   UNL     1      -0.613  11.878  22.108  0.00  0.00    +0.000 N 
ATOM      9  C   UNL     1      -0.108  10.673  21.695  0.00  0.00    +0.000 C 
ATOM     10  N   UNL     1       0.024  10.346  20.448  0.00  0.00    +0.000 NA
ATOM     11  N   UNL     1       0.424   9.077  20.036  0.00  0.00    +0.000 NA
ATOM     12  C   UNL     1       1.145   8.319  20.804  0.00  0.00    +0.000 C 
ATOM     13  C   UNL     1       1.569   8.688  22.197  0.00  0.00    +0.000 C 
ATOM     14  S   UNL     1       0.278   9.621  23.030  0.00  0.00    +0.000 S 
ATOM     15  H   UNL     1      -0.813  11.896  23.102  0.00  0.00    +0.000 HD
BRANCH   8  16
ATOM     16  C   UNL     1      -1.603  12.578  21.281  0.00  0.00    +0.000 C 
ATOM     17  C   UNL     1      -1.030  13.929  20.852  0.00  0.00    +0.000 C 
BRANCH  16  18
ATOM     18  C   UNL     1      -2.918  12.752  22.069  0.00  0.00    +0.000 C 
BRANCH  18  20
ATOM     19  C   UNL     1      -3.948  12.528  24.169  0.00  0.00    +0.000 C 
ATOM     20  O   UNL     1      -2.790  12.238  23.396  0.00  0.00    +0.000 OA
ENDBRANCH  18  20
ENDBRANCH  16  18
ENDBRANCH   8  16
ENDBRANCH   1  12
BRANCH   5  21
ATOM     21  C   UNL     1       3.801   5.200  17.892  0.00  0.00    +0.000 C 
BRANCH  21  22
ATOM     22  C   UNL     1       5.228   5.671  18.122  0.00  0.00    +0.000 A 
ATOM     23  C   UNL     1       5.934   5.380  19.305  0.00  0.00    +0.000 A 
ATOM     24  C   UNL     1       7.275   5.736  19.458  0.00  0.00    +0.000 A 
ATOM     25  C   UNL     1       7.936   6.415  18.442  0.00  0.00    +0.000 A 
ATOM     26  C   UNL     1       7.244   6.770  17.287  0.00  0.00    +0.000 A 
ATOM     27  C   UNL     1       5.899   6.410  17.131  0.00  0.00    +0.000 A 
ATOM     28 CL   UNL     1       5.106   6.910  15.678  0.00  0.00    +0.000 Cl
ENDBRANCH  21  22
ENDBRANCH   5  21
TORSDOF 6
ENDMDL
MODEL 8
REMARK VINA RESULT:      -7.4      4.630      9.260
REMARK  Name = 
REMARK  10 active torsions:
REMARK  status: ('A' for Active; 'I' for Inactive)
REMARK    1  A    between atoms: C_1  and  O_2
REMARK    2  A    between atoms: O_2  and  C_3
REMARK    3  A    between atoms: C_3  and  C_4
REMARK    4  A    between atoms: C_4  and  C_5
REMARK    5  A    between atoms: C_4  and  N_6
REMARK    6  A    between atoms: C_10  and  C_11
REMARK    7  A    between atoms: C_13  and  C_14
REMARK    8  A    between atoms: N_15  and  C_16
REMARK    9  A    between atoms: C_16  and  C_17
REMARK   10  A    between atoms: C_24  and  C_25
REMARK                            x       y       z     vdW  Elec       q    Type
REMARK                         _______ _______ _______ _____ _____    ______ ____
ROOT
ATOM      1  C   UNL     1       1.056   9.322  18.859  0.00  0.00    +0.000 A 
ATOM      2  C   UNL     1       1.929   9.113  17.762  0.00  0.00    +0.000 A 
ATOM      3  C   UNL     1       2.762   8.054  18.055  0.00  0.00    +0.000 A 
ATOM      4  C   UNL     1       3.769   7.391  17.181  0.00  0.00    +0.000 C 
ATOM      5  N   UNL     1       2.444   7.620  19.330  0.00  0.00    +0.000 N 
ATOM      6  C   UNL     1       1.466   8.444  19.866  0.00  0.00    +0.000 A 
ATOM      7  C   UNL     1       0.926   8.296  21.251  0.00  0.00    +0.000 C 
ENDROOT
BRANCH   1  12
ATOM      8  N   UNL     1      -3.652  12.427  18.897  0.00  0.00    +0.000 N 
ATOM      9  C   UNL     1      -2.511  11.672  18.969  0.00  0.00    +0.000 C 
ATOM     10  N   UNL     1      -2.324  10.595  18.272  0.00  0.00    +0.000 NA
ATOM     11  N   UNL     1      -1.215   9.768  18.438  0.00  0.00    +0.000 NA
ATOM     12  C   UNL     1      -0.096  10.233  18.904  0.00  0.00    +0.000 C 
ATOM     13  C   UNL     1       0.108  11.652  19.352  0.00  0.00    +0.000 C 
ATOM     14  S   UNL     1      -1.377  12.291  20.138  0.00  0.00    +0.000 S 
ATOM     15  H   UNL     1      -3.705  13.123  19.632  0.00  0.00    +0.000 HD
BRANCH   8  16
ATOM     16  C   UNL     1      -4.934  11.786  18.580  0.00  0.00    +0.000 C 
ATOM     17  C   UNL     1      -5.273  12.046  17.111  0.00  0.00    +0.000 C 
BRANCH  16  18
ATOM     18  C   UNL     1      -6.037  12.325  19.513  0.00  0.00    +0.000 C 
BRANCH  18  20
ATOM     19  C   UNL     1      -7.416  10.675  20.460  0.00  0.00    +0.000 C 
ATOM     20  O   UNL     1      -6.236  11.451  20.626  0.00  0.00    +0.000 OA
ENDBRANCH  18  20
ENDBRANCH  16  18
ENDBRANCH   8  16
ENDBRANCH   1  12
BRANCH   5  21
ATOM     21  C   UNL     1       2.990   6.407  19.954  0.00  0.00    +0.000 C 
BRANCH  21  22
ATOM     22  C   UNL     1       2.812   5.149  19.119  0.00  0.00    +0.000 A 
ATOM     23  C   UNL     1       1.546   4.698  18.700  0.00  0.00    +0.000 A 
ATOM     24  C   UNL     1       1.410   3.597  17.853  0.00  0.00    +0.000 A 
ATOM     25  C   UNL     1       2.535   2.904  17.424  0.00  0.00    +0.000 A 
ATOM     26  C   UNL     1       3.795   3.291  17.874  0.00  0.00    +0.000 A 
ATOM     27  C   UNL     1       3.933   4.397  18.722  0.00  0.00    +0.000 A 
ATOM     28 CL   UNL     1       5.529   4.797  19.253  0.00  0.00    +0.000 Cl
ENDBRANCH  21  22
ENDBRANCH   5  21
TORSDOF 6
ENDMDL
MODEL 9
REMARK VINA RESULT:      -7.3      3.877      8.838
REMARK  Name = 
REMARK  10 active torsions:
REMARK  status: ('A' for Active; 'I' for Inactive)
REMARK    1  A    between atoms: C_1  and  O_2
REMARK    2  A    between atoms: O_2  and  C_3
REMARK    3  A    between atoms: C_3  and  C_4
REMARK    4  A    between atoms: C_4  and  C_5
REMARK    5  A    between atoms: C_4  and  N_6
REMARK    6  A    between atoms: C_10  and  C_11
REMARK    7  A    between atoms: C_13  and  C_14
REMARK    8  A    between atoms: N_15  and  C_16
REMARK    9  A    between atoms: C_16  and  C_17
REMARK   10  A    between atoms: C_24  and  C_25
REMARK                            x       y       z     vdW  Elec       q    Type
REMARK                         _______ _______ _______ _____ _____    ______ ____
ROOT
ATOM      1  C   UNL     1       2.399   6.240  18.285  0.00  0.00    +0.000 A 
ATOM      2  C   UNL     1       1.627   5.052  18.252  0.00  0.00    +0.000 A 
ATOM      3  C   UNL     1       2.450   3.998  17.915  0.00  0.00    +0.000 A 
ATOM      4  C   UNL     1       2.129   2.546  17.860  0.00  0.00    +0.000 C 
ATOM      5  N   UNL     1       3.717   4.516  17.706  0.00  0.00    +0.000 N 
ATOM      6  C   UNL     1       3.678   5.896  17.841  0.00  0.00    +0.000 A 
ATOM      7  C   UNL     1       4.862   6.783  17.627  0.00  0.00    +0.000 C 
ENDROOT
BRANCH   1  12
ATOM      8  N   UNL     1       0.603  11.415  19.629  0.00  0.00    +0.000 N 
ATOM      9  C   UNL     1       0.970  10.128  19.333  0.00  0.00    +0.000 C 
ATOM     10  N   UNL     1       1.434   9.769  18.178  0.00  0.00    +0.000 NA
ATOM     11  N   UNL     1       1.692   8.440  17.845  0.00  0.00    +0.000 NA
ATOM     12  C   UNL     1       1.960   7.560  18.760  0.00  0.00    +0.000 C 
ATOM     13  C   UNL     1       1.970   7.850  20.234  0.00  0.00    +0.000 C 
ATOM     14  S   UNL     1       0.687   9.034  20.659  0.00  0.00    +0.000 S 
ATOM     15  H   UNL     1       0.098  11.483  20.506  0.00  0.00    +0.000 HD
BRANCH   8  16
ATOM     16  C   UNL     1       0.093  12.292  18.570  0.00  0.00    +0.000 C 
ATOM     17  C   UNL     1       0.589  13.718  18.819  0.00  0.00    +0.000 C 
BRANCH  16  18
ATOM     18  C   UNL     1      -1.448  12.233  18.534  0.00  0.00    +0.000 C 
BRANCH  18  20
ATOM     19  C   UNL     1      -2.139  10.310  17.375  0.00  0.00    +0.000 C 
ATOM     20  O   UNL     1      -1.910  11.711  17.287  0.00  0.00    +0.000 OA
ENDBRANCH  18  20
ENDBRANCH  16  18
ENDBRANCH   8  16
ENDBRANCH   1  12
BRANCH   5  21
ATOM     21  C   UNL     1       4.921   3.702  17.489  0.00  0.00    +0.000 C 
BRANCH  21  22
ATOM     22  C   UNL     1       5.657   4.018  16.198  0.00  0.00    +0.000 A 
ATOM     23  C   UNL     1       5.055   3.868  14.934  0.00  0.00    +0.000 A 
ATOM     24  C   UNL     1       5.713   4.255  13.764  0.00  0.00    +0.000 A 
ATOM     25  C   UNL     1       6.998   4.778  13.828  0.00  0.00    +0.000 A 
ATOM     26  C   UNL     1       7.640   4.879  15.060  0.00  0.00    +0.000 A 
ATOM     27  C   UNL     1       6.980   4.493  16.234  0.00  0.00    +0.000 A 
ATOM     28 CL   UNL     1       7.857   4.628  17.719  0.00  0.00    +0.000 Cl
ENDBRANCH  21  22
ENDBRANCH   5  21
TORSDOF 6
ENDMDL
