MODEL 1
REMARK VINA RESULT:      -7.2      0.000      0.000
REMARK  Name = 
REMARK  12 active torsions:
REMARK  status: ('A' for Active; 'I' for Inactive)
REMARK    1  A    between atoms: C_1  and  C_2
REMARK    2  A    between atoms: C_2  and  C_3
REMARK    3  A    between atoms: C_3  and  C_4
REMARK    4  A    between atoms: C_4  and  C_5
REMARK    5  A    between atoms: N_7  and  C_8
REMARK    6  A    between atoms: C_8  and  N_9
REMARK    7  A    between atoms: C_8  and  C_17
REMARK    8  A    between atoms: C_8  and  C_22
REMARK    9  A    between atoms: C_13  and  C_14
REMARK   10  A    between atoms: C_17  and  O_19
REMARK   11  A    between atoms: O_19  and  C_20
REMARK   12  A    between atoms: C_20  and  C_21
REMARK                            x       y       z     vdW  Elec       q    Type
REMARK                         _______ _______ _______ _____ _____    ______ ____
ROOT
ATOM      1  C   UNL     1       4.964   4.786  17.301  0.00  0.00    +0.000 C 
ENDROOT
BRANCH   1   2
ATOM      2  N   UNL     1       4.067   5.946  17.029  0.00  0.00    +0.000 N 
ATOM      3  C   UNL     1       3.323   6.518  18.062  0.00  0.00    +0.000 A 
ATOM      4  C   UNL     1       2.546   7.643  17.780  0.00  0.00    +0.000 A 
ATOM      5  C   UNL     1       1.794   8.244  18.792  0.00  0.00    +0.000 A 
ATOM      6  C   UNL     1       1.827   7.711  20.076  0.00  0.00    +0.000 A 
ATOM      7  C   UNL     1       1.027   8.291  21.199  0.00  0.00    +0.000 C 
ATOM      8  C   UNL     1       2.640   6.601  20.274  0.00  0.00    +0.000 A 
ATOM      9  N   UNL     1       3.384   6.009  19.307  0.00  0.00    +0.000 NA
ATOM     10  H   UNL     1       3.470   5.741  16.231  0.00  0.00    +0.000 HD
ENDBRANCH   1   2
BRANCH   1  13
ATOM     11  C   UNL     1       3.019   3.251  17.566  0.00  0.00    +0.000 C 
ATOM     12  O   UNL     1       2.537   3.559  16.485  0.00  0.00    +0.000 OA
ATOM     13  N   UNL     1       4.174   3.797  18.043  0.00  0.00    +0.000 N 
ATOM     14  H   UNL     1       4.399   3.733  19.028  0.00  0.00    +0.000 HD
BRANCH  11  15
ATOM     15  C   UNL     1       2.367   2.264  18.511  0.00  0.00    +0.000 C 
BRANCH  15  16
ATOM     16  C   UNL     1       0.983   2.738  18.944  0.00  0.00    +0.000 C 
BRANCH  16  18
ATOM     17  C   UNL     1       2.194   2.774  21.150  0.00  0.00    +0.000 C 
ATOM     18  C   UNL     1       0.989   3.275  20.376  0.00  0.00    +0.000 C 
ENDBRANCH  16  18
ENDBRANCH  15  16
ENDBRANCH  11  15
ENDBRANCH   1  13
BRANCH   1  19
ATOM     19  C   UNL     1       5.655   4.222  15.998  0.00  0.00    +0.000 C 
ATOM     20  F   UNL     1       5.728   2.866  15.985  0.00  0.00    +0.000 F 
ATOM     21  F   UNL     1       4.975   4.594  14.878  0.00  0.00    +0.000 F 
ATOM     22  F   UNL     1       6.931   4.648  15.814  0.00  0.00    +0.000 F 
ENDBRANCH   1  19
BRANCH   1  23
ATOM     23  C   UNL     1       6.158   5.172  18.207  0.00  0.00    +0.000 C 
ATOM     24  O   UNL     1       6.782   4.377  18.908  0.00  0.00    +0.000 OA
BRANCH  23  25
ATOM     25  O   UNL     1       6.446   6.507  18.116  0.00  0.00    +0.000 OA
BRANCH  25  26
ATOM     26  C   UNL     1       7.828   6.858  18.228  0.00  0.00    +0.000 C 
ATOM     27  C   UNL     1       8.010   8.283  17.751  0.00  0.00    +0.000 C 
ENDBRANCH  25  26
ENDBRANCH  23  25
ENDBRANCH   1  23
TORSDOF 9
ENDMDL
MODEL 2
REMARK VINA RESULT:      -7.1      0.653      1.001
REMARK  Name = 
REMARK  12 active torsions:
REMARK  status: ('A' for Active; 'I' for Inactive)
REMARK    1  A    between atoms: C_1  and  C_2
REMARK    2  A    between atoms: C_2  and  C_3
REMARK    3  A    between atoms: C_3  and  C_4
REMARK    4  A    between atoms: C_4  and  C_5
REMARK    5  A    between atoms: N_7  and  C_8
REMARK    6  A    between atoms: C_8  and  N_9
REMARK    7  A    between atoms: C_8  and  C_17
REMARK    8  A    between atoms: C_8  and  C_22
REMARK    9  A    between atoms: C_13  and  C_14
REMARK   10  A    between atoms: C_17  and  O_19
REMARK   11  A    between atoms: O_19  and  C_20
REMARK   12  A    between atoms: C_20  and  C_21
REMARK                            x       y       z     vdW  Elec       q    Type
REMARK                         _______ _______ _______ _____ _____    ______ ____
ROOT
ATOM      1  C   UNL     1       5.492   4.748  16.940  0.00  0.00    +0.000 C 
ENDROOT
BRANCH   1   2
ATOM      2  N   UNL     1       4.572   5.902  16.733  0.00  0.00    +0.000 N 
ATOM      3  C   UNL     1       3.788   6.376  17.787  0.00  0.00    +0.000 A 
ATOM      4  C   UNL     1       2.988   7.499  17.570  0.00  0.00    +0.000 A 
ATOM      5  C   UNL     1       2.196   8.003  18.605  0.00  0.00    +0.000 A 
ATOM      6  C   UNL     1       2.213   7.375  19.845  0.00  0.00    +0.000 A 
ATOM      7  C   UNL     1       1.371   7.848  20.988  0.00  0.00    +0.000 C 
ATOM      8  C   UNL     1       3.051   6.274  19.980  0.00  0.00    +0.000 A 
ATOM      9  N   UNL     1       3.833   5.775  18.991  0.00  0.00    +0.000 NA
ATOM     10  H   UNL     1       4.000   5.743  15.907  0.00  0.00    +0.000 HD
ENDBRANCH   1   2
BRANCH   1  13
ATOM     11  C   UNL     1       3.636   3.212  17.576  0.00  0.00    +0.000 C 
ATOM     12  O   UNL     1       3.024   3.403  16.533  0.00  0.00    +0.000 OA
ATOM     13  N   UNL     1       4.821   3.822  17.860  0.00  0.00    +0.000 N 
ATOM     14  H   UNL     1       5.159   3.860  18.814  0.00  0.00    +0.000 HD
BRANCH  11  15
ATOM     15  C   UNL     1       3.124   2.311  18.679  0.00  0.00    +0.000 C 
BRANCH  15  16
ATOM     16  C   UNL     1       1.600   2.258  18.694  0.00  0.00    +0.000 C 
BRANCH  16  18
ATOM     17  C   UNL     1       1.404   2.998  21.093  0.00  0.00    +0.000 C 
ATOM     18  C   UNL     1       1.005   3.287  19.658  0.00  0.00    +0.000 C 
ENDBRANCH  16  18
ENDBRANCH  15  16
ENDBRANCH  11  15
ENDBRANCH   1  13
BRANCH   1  19
ATOM     19  C   UNL     1       5.968   4.088  15.586  0.00  0.00    +0.000 C 
ATOM     20  F   UNL     1       7.223   4.467  15.229  0.00  0.00    +0.000 F 
ATOM     21  F   UNL     1       5.974   2.730  15.674  0.00  0.00    +0.000 F 
ATOM     22  F   UNL     1       5.189   4.387  14.515  0.00  0.00    +0.000 F 
ENDBRANCH   1  19
BRANCH   1  23
ATOM     23  C   UNL     1       6.816   5.172  17.622  0.00  0.00    +0.000 C 
ATOM     24  O   UNL     1       7.495   4.435  18.334  0.00  0.00    +0.000 OA
BRANCH  23  25
ATOM     25  O   UNL     1       7.145   6.464  17.318  0.00  0.00    +0.000 OA
BRANCH  25  26
ATOM     26  C   UNL     1       7.886   7.172  18.315  0.00  0.00    +0.000 C 
ATOM     27  C   UNL     1       8.082   8.601  17.855  0.00  0.00    +0.000 C 
ENDBRANCH  25  26
ENDBRANCH  23  25
ENDBRANCH   1  23
TORSDOF 9
ENDMDL
MODEL 3
REMARK VINA RESULT:      -7.0      0.939      1.215
REMARK  Name = 
REMARK  12 active torsions:
REMARK  status: ('A' for Active; 'I' for Inactive)
REMARK    1  A    between atoms: C_1  and  C_2
REMARK    2  A    between atoms: C_2  and  C_3
REMARK    3  A    between atoms: C_3  and  C_4
REMARK    4  A    between atoms: C_4  and  C_5
REMARK    5  A    between atoms: N_7  and  C_8
REMARK    6  A    between atoms: C_8  and  N_9
REMARK    7  A    between atoms: C_8  and  C_17
REMARK    8  A    between atoms: C_8  and  C_22
REMARK    9  A    between atoms: C_13  and  C_14
REMARK   10  A    between atoms: C_17  and  O_19
REMARK   11  A    between atoms: O_19  and  C_20
REMARK   12  A    between atoms: C_20  and  C_21
REMARK                            x       y       z     vdW  Elec       q    Type
REMARK                         _______ _______ _______ _____ _____    ______ ____
ROOT
ATOM      1  C   UNL     1       4.235   4.614  17.827  0.00  0.00    +0.000 C 
ENDROOT
BRANCH   1   2
ATOM      2  N   UNL     1       3.664   5.925  17.401  0.00  0.00    +0.000 N 
ATOM      3  C   UNL     1       2.941   6.704  18.305  0.00  0.00    +0.000 A 
ATOM      4  C   UNL     1       2.479   7.953  17.887  0.00  0.00    +0.000 A 
ATOM      5  C   UNL     1       1.758   8.763  18.769  0.00  0.00    +0.000 A 
ATOM      6  C   UNL     1       1.505   8.310  20.059  0.00  0.00    +0.000 A 
ATOM      7  C   UNL     1       0.718   9.115  21.044  0.00  0.00    +0.000 C 
ATOM      8  C   UNL     1       2.016   7.063  20.398  0.00  0.00    +0.000 A 
ATOM      9  N   UNL     1       2.726   6.267  19.561  0.00  0.00    +0.000 NA
ATOM     10  H   UNL     1       3.144   5.809  16.534  0.00  0.00    +0.000 HD
ENDBRANCH   1   2
BRANCH   1  13
ATOM     11  C   UNL     1       2.040   3.435  17.798  0.00  0.00    +0.000 C 
ATOM     12  O   UNL     1       1.850   3.667  16.611  0.00  0.00    +0.000 OA
ATOM     13  N   UNL     1       3.151   3.860  18.465  0.00  0.00    +0.000 N 
ATOM     14  H   UNL     1       3.155   3.893  19.477  0.00  0.00    +0.000 HD
BRANCH  11  15
ATOM     15  C   UNL     1       1.047   2.689  18.663  0.00  0.00    +0.000 C 
BRANCH  15  16
ATOM     16  C   UNL     1       0.757   3.444  19.956  0.00  0.00    +0.000 C 
BRANCH  16  18
ATOM     17  C   UNL     1       2.372   3.493  21.887  0.00  0.00    +0.000 C 
ATOM     18  C   UNL     1       1.289   2.698  21.181  0.00  0.00    +0.000 C 
ENDBRANCH  16  18
ENDBRANCH  15  16
ENDBRANCH  11  15
ENDBRANCH   1  13
BRANCH   1  19
ATOM     19  C   UNL     1       4.958   3.846  16.651  0.00  0.00    +0.000 C 
ATOM     20  F   UNL     1       6.305   4.016  16.662  0.00  0.00    +0.000 F 
ATOM     21  F   UNL     1       4.726   2.506  16.722  0.00  0.00    +0.000 F 
ATOM     22  F   UNL     1       4.562   4.226  15.409  0.00  0.00    +0.000 F 
ENDBRANCH   1  19
BRANCH   1  23
ATOM     23  C   UNL     1       5.348   4.781  18.889  0.00  0.00    +0.000 C 
ATOM     24  O   UNL     1       5.710   3.891  19.658  0.00  0.00    +0.000 OA
BRANCH  23  25
ATOM     25  O   UNL     1       5.891   6.035  18.856  0.00  0.00    +0.000 OA
BRANCH  25  26
ATOM     26  C   UNL     1       7.294   6.103  18.585  0.00  0.00    +0.000 C 
ATOM     27  C   UNL     1       7.518   7.010  17.394  0.00  0.00    +0.000 C 
ENDBRANCH  25  26
ENDBRANCH  23  25
ENDBRANCH   1  23
TORSDOF 9
ENDMDL
MODEL 4
REMARK VINA RESULT:      -6.7      2.335      4.444
REMARK  Name = 
REMARK  12 active torsions:
REMARK  status: ('A' for Active; 'I' for Inactive)
REMARK    1  A    between atoms: C_1  and  C_2
REMARK    2  A    between atoms: C_2  and  C_3
REMARK    3  A    between atoms: C_3  and  C_4
REMARK    4  A    between atoms: C_4  and  C_5
REMARK    5  A    between atoms: N_7  and  C_8
REMARK    6  A    between atoms: C_8  and  N_9
REMARK    7  A    between atoms: C_8  and  C_17
REMARK    8  A    between atoms: C_8  and  C_22
REMARK    9  A    between atoms: C_13  and  C_14
REMARK   10  A    between atoms: C_17  and  O_19
REMARK   11  A    between atoms: O_19  and  C_20
REMARK   12  A    between atoms: C_20  and  C_21
REMARK                            x       y       z     vdW  Elec       q    Type
REMARK                         _______ _______ _______ _____ _____    ______ ____
ROOT
ATOM      1  C   UNL     1       6.486   5.463  17.863  0.00  0.00    +0.000 C 
ENDROOT
BRANCH   1   2
ATOM      2  N   UNL     1       5.788   4.147  17.795  0.00  0.00    +0.000 N 
ATOM      3  C   UNL     1       4.711   3.877  18.641  0.00  0.00    +0.000 A 
ATOM      4  C   UNL     1       4.045   2.658  18.502  0.00  0.00    +0.000 A 
ATOM      5  C   UNL     1       2.959   2.358  19.328  0.00  0.00    +0.000 A 
ATOM      6  C   UNL     1       2.553   3.281  20.286  0.00  0.00    +0.000 A 
ATOM      7  C   UNL     1       1.415   3.013  21.218  0.00  0.00    +0.000 C 
ATOM      8  C   UNL     1       3.261   4.476  20.344  0.00  0.00    +0.000 A 
ATOM      9  N   UNL     1       4.312   4.790  19.547  0.00  0.00    +0.000 NA
ATOM     10  H   UNL     1       6.471   3.393  17.834  0.00  0.00    +0.000 HD
ENDBRANCH   1   2
BRANCH   1  13
ATOM     11  C   UNL     1       4.532   6.756  17.014  0.00  0.00    +0.000 C 
ATOM     12  O   UNL     1       4.513   6.163  15.944  0.00  0.00    +0.000 OA
ATOM     13  N   UNL     1       5.449   6.493  17.988  0.00  0.00    +0.000 N 
ATOM     14  H   UNL     1       5.612   7.165  18.729  0.00  0.00    +0.000 HD
BRANCH  11  15
ATOM     15  C   UNL     1       3.569   7.872  17.357  0.00  0.00    +0.000 C 
BRANCH  15  16
ATOM     16  C   UNL     1       2.418   7.370  18.222  0.00  0.00    +0.000 C 
BRANCH  16  18
ATOM     17  C   UNL     1       1.234   9.583  18.016  0.00  0.00    +0.000 C 
ATOM     18  C   UNL     1       1.730   8.513  18.971  0.00  0.00    +0.000 C 
ENDBRANCH  16  18
ENDBRANCH  15  16
ENDBRANCH  11  15
ENDBRANCH   1  13
BRANCH   1  19
ATOM     19  C   UNL     1       7.595   5.516  18.986  0.00  0.00    +0.000 C 
ATOM     20  F   UNL     1       8.255   6.703  19.018  0.00  0.00    +0.000 F 
ATOM     21  F   UNL     1       7.056   5.327  20.221  0.00  0.00    +0.000 F 
ATOM     22  F   UNL     1       8.565   4.575  18.856  0.00  0.00    +0.000 F 
ENDBRANCH   1  19
BRANCH   1  23
ATOM     23  C   UNL     1       7.269   5.775  16.564  0.00  0.00    +0.000 C 
ATOM     24  O   UNL     1       7.732   6.879  16.283  0.00  0.00    +0.000 OA
BRANCH  23  25
ATOM     25  O   UNL     1       7.397   4.665  15.776  0.00  0.00    +0.000 OA
BRANCH  25  26
ATOM     26  C   UNL     1       7.167   4.860  14.378  0.00  0.00    +0.000 C 
ATOM     27  C   UNL     1       6.120   3.870  13.913  0.00  0.00    +0.000 C 
ENDBRANCH  25  26
ENDBRANCH  23  25
ENDBRANCH   1  23
TORSDOF 9
ENDMDL
MODEL 5
REMARK VINA RESULT:      -6.7      2.368      5.467
REMARK  Name = 
REMARK  12 active torsions:
REMARK  status: ('A' for Active; 'I' for Inactive)
REMARK    1  A    between atoms: C_1  and  C_2
REMARK    2  A    between atoms: C_2  and  C_3
REMARK    3  A    between atoms: C_3  and  C_4
REMARK    4  A    between atoms: C_4  and  C_5
REMARK    5  A    between atoms: N_7  and  C_8
REMARK    6  A    between atoms: C_8  and  N_9
REMARK    7  A    between atoms: C_8  and  C_17
REMARK    8  A    between atoms: C_8  and  C_22
REMARK    9  A    between atoms: C_13  and  C_14
REMARK   10  A    between atoms: C_17  and  O_19
REMARK   11  A    between atoms: O_19  and  C_20
REMARK   12  A    between atoms: C_20  and  C_21
REMARK                            x       y       z     vdW  Elec       q    Type
REMARK                         _______ _______ _______ _____ _____    ______ ____
ROOT
ATOM      1  C   UNL     1       4.281   3.959  17.862  0.00  0.00    +0.000 C 
ENDROOT
BRANCH   1   2
ATOM      2  N   UNL     1       5.642   4.162  18.436  0.00  0.00    +0.000 N 
ATOM      3  C   UNL     1       6.299   5.383  18.274  0.00  0.00    +0.000 A 
ATOM      4  C   UNL     1       7.544   5.555  18.881  0.00  0.00    +0.000 A 
ATOM      5  C   UNL     1       8.226   6.767  18.745  0.00  0.00    +0.000 A 
ATOM      6  C   UNL     1       7.654   7.793  18.000  0.00  0.00    +0.000 A 
ATOM      7  C   UNL     1       8.342   9.105  17.794  0.00  0.00    +0.000 C 
ATOM      8  C   UNL     1       6.405   7.543  17.445  0.00  0.00    +0.000 A 
ATOM      9  N   UNL     1       5.723   6.378  17.573  0.00  0.00    +0.000 NA
ATOM     10  H   UNL     1       6.249   3.392  18.164  0.00  0.00    +0.000 HD
ENDBRANCH   1   2
BRANCH   1  13
ATOM     11  C   UNL     1       5.342   3.821  15.612  0.00  0.00    +0.000 C 
ATOM     12  O   UNL     1       6.249   3.099  16.005  0.00  0.00    +0.000 OA
ATOM     13  N   UNL     1       4.362   4.290  16.435  0.00  0.00    +0.000 N 
ATOM     14  H   UNL     1       3.797   5.083  16.155  0.00  0.00    +0.000 HD
BRANCH  11  15
ATOM     15  C   UNL     1       5.233   4.306  14.182  0.00  0.00    +0.000 C 
BRANCH  15  16
ATOM     16  C   UNL     1       6.458   3.909  13.364  0.00  0.00    +0.000 C 
BRANCH  16  18
ATOM     17  C   UNL     1       4.570   3.315  11.808  0.00  0.00    +0.000 C 
ATOM     18  C   UNL     1       6.067   3.239  12.046  0.00  0.00    +0.000 C 
ENDBRANCH  16  18
ENDBRANCH  15  16
ENDBRANCH  11  15
ENDBRANCH   1  13
BRANCH   1  19
ATOM     19  C   UNL     1       3.691   2.525  18.166  0.00  0.00    +0.000 C 
ATOM     20  F   UNL     1       4.060   2.053  19.385  0.00  0.00    +0.000 F 
ATOM     21  F   UNL     1       2.330   2.536  18.139  0.00  0.00    +0.000 F 
ATOM     22  F   UNL     1       4.073   1.567  17.283  0.00  0.00    +0.000 F 
ENDBRANCH   1  19
BRANCH   1  23
ATOM     23  C   UNL     1       3.237   4.919  18.484  0.00  0.00    +0.000 C 
ATOM     24  O   UNL     1       2.390   5.533  17.838  0.00  0.00    +0.000 OA
BRANCH  23  25
ATOM     25  O   UNL     1       3.363   4.985  19.844  0.00  0.00    +0.000 OA
BRANCH  25  26
ATOM     26  C   UNL     1       2.147   4.890  20.591  0.00  0.00    +0.000 C 
ATOM     27  C   UNL     1       1.613   6.285  20.834  0.00  0.00    +0.000 C 
ENDBRANCH  25  26
ENDBRANCH  23  25
ENDBRANCH   1  23
TORSDOF 9
ENDMDL
MODEL 6
REMARK VINA RESULT:      -6.5      2.525      5.611
REMARK  Name = 
REMARK  12 active torsions:
REMARK  status: ('A' for Active; 'I' for Inactive)
REMARK    1  A    between atoms: C_1  and  C_2
REMARK    2  A    between atoms: C_2  and  C_3
REMARK    3  A    between atoms: C_3  and  C_4
REMARK    4  A    between atoms: C_4  and  C_5
REMARK    5  A    between atoms: N_7  and  C_8
REMARK    6  A    between atoms: C_8  and  N_9
REMARK    7  A    between atoms: C_8  and  C_17
REMARK    8  A    between atoms: C_8  and  C_22
REMARK    9  A    between atoms: C_13  and  C_14
REMARK   10  A    between atoms: C_17  and  O_19
REMARK   11  A    between atoms: O_19  and  C_20
REMARK   12  A    between atoms: C_20  and  C_21
REMARK                            x       y       z     vdW  Elec       q    Type
REMARK                         _______ _______ _______ _____ _____    ______ ____
ROOT
ATOM      1  C   UNL     1       4.203   3.845  18.045  0.00  0.00    +0.000 C 
ENDROOT
BRANCH   1   2
ATOM      2  N   UNL     1       5.573   4.052  18.596  0.00  0.00    +0.000 N 
ATOM      3  C   UNL     1       6.237   5.263  18.395  0.00  0.00    +0.000 A 
ATOM      4  C   UNL     1       7.490   5.441  18.983  0.00  0.00    +0.000 A 
ATOM      5  C   UNL     1       8.180   6.644  18.807  0.00  0.00    +0.000 A 
ATOM      6  C   UNL     1       7.607   7.654  18.044  0.00  0.00    +0.000 A 
ATOM      7  C   UNL     1       8.301   8.956  17.796  0.00  0.00    +0.000 C 
ATOM      8  C   UNL     1       6.348   7.401  17.510  0.00  0.00    +0.000 A 
ATOM      9  N   UNL     1       5.660   6.245  17.676  0.00  0.00    +0.000 NA
ATOM     10  H   UNL     1       6.170   3.270  18.337  0.00  0.00    +0.000 HD
ENDBRANCH   1   2
BRANCH   1  13
ATOM     11  C   UNL     1       5.192   3.759  15.759  0.00  0.00    +0.000 C 
ATOM     12  O   UNL     1       6.092   3.003  16.099  0.00  0.00    +0.000 OA
ATOM     13  N   UNL     1       4.248   4.222  16.628  0.00  0.00    +0.000 N 
ATOM     14  H   UNL     1       3.695   5.038  16.392  0.00  0.00    +0.000 HD
BRANCH  11  15
ATOM     15  C   UNL     1       5.052   4.295  14.351  0.00  0.00    +0.000 C 
BRANCH  15  16
ATOM     16  C   UNL     1       6.264   3.942  13.496  0.00  0.00    +0.000 C 
BRANCH  16  18
ATOM     17  C   UNL     1       7.870   5.480  12.316  0.00  0.00    +0.000 C 
ATOM     18  C   UNL     1       7.392   4.962  13.660  0.00  0.00    +0.000 C 
ENDBRANCH  16  18
ENDBRANCH  15  16
ENDBRANCH  11  15
ENDBRANCH   1  13
BRANCH   1  19
ATOM     19  C   UNL     1       3.643   2.393  18.314  0.00  0.00    +0.000 C 
ATOM     20  F   UNL     1       3.995   1.911  19.534  0.00  0.00    +0.000 F 
ATOM     21  F   UNL     1       2.283   2.370  18.255  0.00  0.00    +0.000 F 
ATOM     22  F   UNL     1       4.068   1.457  17.427  0.00  0.00    +0.000 F 
ENDBRANCH   1  19
BRANCH   1  23
ATOM     23  C   UNL     1       3.158   4.767  18.718  0.00  0.00    +0.000 C 
ATOM     24  O   UNL     1       2.323   5.431  18.105  0.00  0.00    +0.000 OA
BRANCH  23  25
ATOM     25  O   UNL     1       3.266   4.738  20.081  0.00  0.00    +0.000 OA
BRANCH  25  26
ATOM     26  C   UNL     1       2.040   4.849  20.809  0.00  0.00    +0.000 C 
ATOM     27  C   UNL     1       1.656   3.480  21.331  0.00  0.00    +0.000 C 
ENDBRANCH  25  26
ENDBRANCH  23  25
ENDBRANCH   1  23
TORSDOF 9
ENDMDL
MODEL 7
REMARK VINA RESULT:      -6.5      1.016      1.399
REMARK  Name = 
REMARK  12 active torsions:
REMARK  status: ('A' for Active; 'I' for Inactive)
REMARK    1  A    between atoms: C_1  and  C_2
REMARK    2  A    between atoms: C_2  and  C_3
REMARK    3  A    between atoms: C_3  and  C_4
REMARK    4  A    between atoms: C_4  and  C_5
REMARK    5  A    between atoms: N_7  and  C_8
REMARK    6  A    between atoms: C_8  and  N_9
REMARK    7  A    between atoms: C_8  and  C_17
REMARK    8  A    between atoms: C_8  and  C_22
REMARK    9  A    between atoms: C_13  and  C_14
REMARK   10  A    between atoms: C_17  and  O_19
REMARK   11  A    between atoms: O_19  and  C_20
REMARK   12  A    between atoms: C_20  and  C_21
REMARK                            x       y       z     vdW  Elec       q    Type
REMARK                         _______ _______ _______ _____ _____    ______ ____
ROOT
ATOM      1  C   UNL     1       4.284   5.010  17.853  0.00  0.00    +0.000 C 
ENDROOT
BRANCH   1   2
ATOM      2  N   UNL     1       3.663   6.245  17.293  0.00  0.00    +0.000 N 
ATOM      3  C   UNL     1       2.912   7.089  18.113  0.00  0.00    +0.000 A 
ATOM      4  C   UNL     1       2.402   8.267  17.567  0.00  0.00    +0.000 A 
ATOM      5  C   UNL     1       1.651   9.138  18.361  0.00  0.00    +0.000 A 
ATOM      6  C   UNL     1       1.419   8.818  19.694  0.00  0.00    +0.000 A 
ATOM      7  C   UNL     1       0.603   9.693  20.592  0.00  0.00    +0.000 C 
ATOM      8  C   UNL     1       1.978   7.634  20.161  0.00  0.00    +0.000 A 
ATOM      9  N   UNL     1       2.716   6.780  19.409  0.00  0.00    +0.000 NA
ATOM     10  H   UNL     1       3.146   6.017  16.447  0.00  0.00    +0.000 HD
ENDBRANCH   1   2
BRANCH   1  13
ATOM     11  C   UNL     1       2.083   3.913  18.258  0.00  0.00    +0.000 C 
ATOM     12  O   UNL     1       1.741   4.006  17.087  0.00  0.00    +0.000 OA
ATOM     13  N   UNL     1       3.281   4.377  18.716  0.00  0.00    +0.000 N 
ATOM     14  H   UNL     1       3.421   4.533  19.707  0.00  0.00    +0.000 HD
BRANCH  11  15
ATOM     15  C   UNL     1       1.201   3.314  19.331  0.00  0.00    +0.000 C 
BRANCH  15  16
ATOM     16  C   UNL     1       1.832   2.065  19.938  0.00  0.00    +0.000 C 
BRANCH  16  18
ATOM     17  C   UNL     1       2.046   3.738  21.807  0.00  0.00    +0.000 C 
ATOM     18  C   UNL     1       2.331   2.315  21.362  0.00  0.00    +0.000 C 
ENDBRANCH  16  18
ENDBRANCH  15  16
ENDBRANCH  11  15
ENDBRANCH   1  13
BRANCH   1  19
ATOM     19  C   UNL     1       4.877   4.059  16.740  0.00  0.00    +0.000 C 
ATOM     20  F   UNL     1       4.482   4.405  15.487  0.00  0.00    +0.000 F 
ATOM     21  F   UNL     1       6.239   4.082  16.747  0.00  0.00    +0.000 F 
ATOM     22  F   UNL     1       4.527   2.755  16.875  0.00  0.00    +0.000 F 
ENDBRANCH   1  19
BRANCH   1  23
ATOM     23  C   UNL     1       5.507   5.327  18.748  0.00  0.00    +0.000 C 
ATOM     24  O   UNL     1       5.860   4.641  19.706  0.00  0.00    +0.000 OA
BRANCH  23  25
ATOM     25  O   UNL     1       6.156   6.456  18.331  0.00  0.00    +0.000 OA
BRANCH  25  26
ATOM     26  C   UNL     1       7.580   6.442  18.457  0.00  0.00    +0.000 C 
ATOM     27  C   UNL     1       8.116   7.810  18.091  0.00  0.00    +0.000 C 
ENDBRANCH  25  26
ENDBRANCH  23  25
ENDBRANCH   1  23
TORSDOF 9
ENDMDL
MODEL 8
REMARK VINA RESULT:      -6.4      2.188      4.680
REMARK  Name = 
REMARK  12 active torsions:
REMARK  status: ('A' for Active; 'I' for Inactive)
REMARK    1  A    between atoms: C_1  and  C_2
REMARK    2  A    between atoms: C_2  and  C_3
REMARK    3  A    between atoms: C_3  and  C_4
REMARK    4  A    between atoms: C_4  and  C_5
REMARK    5  A    between atoms: N_7  and  C_8
REMARK    6  A    between atoms: C_8  and  N_9
REMARK    7  A    between atoms: C_8  and  C_17
REMARK    8  A    between atoms: C_8  and  C_22
REMARK    9  A    between atoms: C_13  and  C_14
REMARK   10  A    between atoms: C_17  and  O_19
REMARK   11  A    between atoms: O_19  and  C_20
REMARK   12  A    between atoms: C_20  and  C_21
REMARK                            x       y       z     vdW  Elec       q    Type
REMARK                         _______ _______ _______ _____ _____    ______ ____
ROOT
ATOM      1  C   UNL     1       5.237   4.725  17.344  0.00  0.00    +0.000 C 
ENDROOT
BRANCH   1   2
ATOM      2  N   UNL     1       4.395   5.926  17.072  0.00  0.00    +0.000 N 
ATOM      3  C   UNL     1       3.579   6.455  18.072  0.00  0.00    +0.000 A 
ATOM      4  C   UNL     1       2.857   7.617  17.797  0.00  0.00    +0.000 A 
ATOM      5  C   UNL     1       2.035   8.178  18.779  0.00  0.00    +0.000 A 
ATOM      6  C   UNL     1       1.945   7.567  20.024  0.00  0.00    +0.000 A 
ATOM      7  C   UNL     1       1.066   8.101  21.111  0.00  0.00    +0.000 C 
ATOM      8  C   UNL     1       2.711   6.424  20.219  0.00  0.00    +0.000 A 
ATOM      9  N   UNL     1       3.520   5.869  19.284  0.00  0.00    +0.000 NA
ATOM     10  H   UNL     1       3.864   5.787  16.215  0.00  0.00    +0.000 HD
ENDBRANCH   1   2
BRANCH   1  13
ATOM     11  C   UNL     1       6.101   4.817  15.009  0.00  0.00    +0.000 C 
ATOM     12  O   UNL     1       6.350   6.013  15.072  0.00  0.00    +0.000 OA
ATOM     13  N   UNL     1       5.556   4.120  16.047  0.00  0.00    +0.000 N 
ATOM     14  H   UNL     1       5.117   3.222  15.883  0.00  0.00    +0.000 HD
BRANCH  11  15
ATOM     15  C   UNL     1       6.330   3.990  13.762  0.00  0.00    +0.000 C 
BRANCH  15  16
ATOM     16  C   UNL     1       5.012   3.531  13.147  0.00  0.00    +0.000 C 
BRANCH  16  18
ATOM     17  C   UNL     1       3.873   3.197  10.927  0.00  0.00    +0.000 C 
ATOM     18  C   UNL     1       5.183   3.106  11.688  0.00  0.00    +0.000 C 
ENDBRANCH  16  18
ENDBRANCH  15  16
ENDBRANCH  11  15
ENDBRANCH   1  13
BRANCH   1  19
ATOM     19  C   UNL     1       6.497   5.046  18.241  0.00  0.00    +0.000 C 
ATOM     20  F   UNL     1       6.976   6.302  18.045  0.00  0.00    +0.000 F 
ATOM     21  F   UNL     1       6.201   4.935  19.565  0.00  0.00    +0.000 F 
ATOM     22  F   UNL     1       7.557   4.225  18.027  0.00  0.00    +0.000 F 
ENDBRANCH   1  19
BRANCH   1  23
ATOM     23  C   UNL     1       4.475   3.653  18.161  0.00  0.00    +0.000 C 
ATOM     24  O   UNL     1       4.860   3.198  19.237  0.00  0.00    +0.000 OA
BRANCH  23  25
ATOM     25  O   UNL     1       3.310   3.286  17.545  0.00  0.00    +0.000 OA
BRANCH  25  26
ATOM     26  C   UNL     1       2.518   2.314  18.232  0.00  0.00    +0.000 C 
ATOM     27  C   UNL     1       1.244   2.974  18.715  0.00  0.00    +0.000 C 
ENDBRANCH  25  26
ENDBRANCH  23  25
ENDBRANCH   1  23
TORSDOF 9
ENDMDL
MODEL 9
REMARK VINA RESULT:      -6.4      2.403      5.322
REMARK  Name = 
REMARK  12 active torsions:
REMARK  status: ('A' for Active; 'I' for Inactive)
REMARK    1  A    between atoms: C_1  and  C_2
REMARK    2  A    between atoms: C_2  and  C_3
REMARK    3  A    between atoms: C_3  and  C_4
REMARK    4  A    between atoms: C_4  and  C_5
REMARK    5  A    between atoms: N_7  and  C_8
REMARK    6  A    between atoms: C_8  and  N_9
REMARK    7  A    between atoms: C_8  and  C_17
REMARK    8  A    between atoms: C_8  and  C_22
REMARK    9  A    between atoms: C_13  and  C_14
REMARK   10  A    between atoms: C_17  and  O_19
REMARK   11  A    between atoms: O_19  and  C_20
REMARK   12  A    between atoms: C_20  and  C_21
REMARK                            x       y       z     vdW  Elec       q    Type
REMARK                         _______ _______ _______ _____ _____    ______ ____
ROOT
ATOM      1  C   UNL     1       4.427   3.949  18.050  0.00  0.00    +0.000 C 
ENDROOT
BRANCH   1   2
ATOM      2  N   UNL     1       5.807   4.167  18.572  0.00  0.00    +0.000 N 
ATOM      3  C   UNL     1       6.438   5.400  18.399  0.00  0.00    +0.000 A 
ATOM      4  C   UNL     1       7.703   5.585  18.958  0.00  0.00    +0.000 A 
ATOM      5  C   UNL     1       8.360   6.809  18.809  0.00  0.00    +0.000 A 
ATOM      6  C   UNL     1       7.743   7.834  18.100  0.00  0.00    +0.000 A 
ATOM      7  C   UNL     1       8.402   9.160  17.883  0.00  0.00    +0.000 C 
ATOM      8  C   UNL     1       6.477   7.571  17.592  0.00  0.00    +0.000 A 
ATOM      9  N   UNL     1       5.819   6.394  17.733  0.00  0.00    +0.000 NA
ATOM     10  H   UNL     1       6.414   3.410  18.267  0.00  0.00    +0.000 HD
ENDBRANCH   1   2
BRANCH   1  13
ATOM     11  C   UNL     1       5.357   3.860  15.740  0.00  0.00    +0.000 C 
ATOM     12  O   UNL     1       6.262   3.099  16.057  0.00  0.00    +0.000 OA
ATOM     13  N   UNL     1       4.438   4.326  16.633  0.00  0.00    +0.000 N 
ATOM     14  H   UNL     1       3.883   5.144  16.412  0.00  0.00    +0.000 HD
BRANCH  11  15
ATOM     15  C   UNL     1       5.184   4.397  14.336  0.00  0.00    +0.000 C 
BRANCH  15  16
ATOM     16  C   UNL     1       6.437   4.177  13.496  0.00  0.00    +0.000 C 
BRANCH  16  18
ATOM     17  C   UNL     1       4.637   3.218  12.019  0.00  0.00    +0.000 C 
ATOM     18  C   UNL     1       6.104   3.594  12.121  0.00  0.00    +0.000 C 
ENDBRANCH  16  18
ENDBRANCH  15  16
ENDBRANCH  11  15
ENDBRANCH   1  13
BRANCH   1  19
ATOM     19  C   UNL     1       3.885   2.492  18.332  0.00  0.00    +0.000 C 
ATOM     20  F   UNL     1       4.216   1.609  17.353  0.00  0.00    +0.000 F 
ATOM     21  F   UNL     1       4.383   1.997  19.498  0.00  0.00    +0.000 F 
ATOM     22  F   UNL     1       2.534   2.410  18.441  0.00  0.00    +0.000 F 
ENDBRANCH   1  19
BRANCH   1  23
ATOM     23  C   UNL     1       3.389   4.862  18.747  0.00  0.00    +0.000 C 
ATOM     24  O   UNL     1       3.105   4.801  19.942  0.00  0.00    +0.000 OA
BRANCH  23  25
ATOM     25  O   UNL     1       2.840   5.757  17.871  0.00  0.00    +0.000 OA
BRANCH  25  26
ATOM     26  C   UNL     1       2.264   6.930  18.454  0.00  0.00    +0.000 C 
ATOM     27  C   UNL     1       2.762   8.145  17.699  0.00  0.00    +0.000 C 
ENDBRANCH  25  26
ENDBRANCH  23  25
ENDBRANCH   1  23
TORSDOF 9
ENDMDL
