MODEL 1
REMARK VINA RESULT:      -8.2      0.000      0.000
REMARK  Name = 
REMARK  7 active torsions:
REMARK  status: ('A' for Active; 'I' for Inactive)
REMARK    1  A    between atoms: C_1  and  C_2
REMARK    2  A    between atoms: C_2  and  C_3
REMARK    3  A    between atoms: C_2  and  C_4
REMARK    4  A    between atoms: C_9  and  C_10
REMARK    5  A    between atoms: C_12  and  C_13
REMARK    6  A    between atoms: N_20  and  C_21
REMARK    7  A    between atoms: C_21  and  N_22
REMARK                            x       y       z     vdW  Elec       q    Type
REMARK                         _______ _______ _______ _____ _____    ______ ____
ROOT
ATOM      1  C   UNL     1       5.589   5.110  17.694  0.00  0.00    +0.000 C 
ATOM      2  C   UNL     1       5.332   4.305  16.410  0.00  0.00    +0.000 C 
ATOM      3  C   UNL     1       6.376   4.878  15.484  0.00  0.00    +0.000 C 
ATOM      4  N   UNL     1       7.181   5.742  16.022  0.00  0.00    +0.000 NA
ATOM      5  N   UNL     1       6.776   5.930  17.336  0.00  0.00    +0.000 N 
ENDROOT
BRANCH   1  11
ATOM      6  C   UNL     1       3.464   5.598  19.144  0.00  0.00    +0.000 A 
ATOM      7  C   UNL     1       2.464   6.545  19.482  0.00  0.00    +0.000 A 
ATOM      8  C   UNL     1       2.291   7.734  18.774  0.00  0.00    +0.000 A 
ATOM      9  C   UNL     1       3.120   8.020  17.705  0.00  0.00    +0.000 A 
ATOM     10  C   UNL     1       4.158   7.147  17.391  0.00  0.00    +0.000 A 
ATOM     11  C   UNL     1       4.371   5.938  18.104  0.00  0.00    +0.000 A 
BRANCH   6  13
ATOM     12  C   UNL     1       2.430   4.355  21.113  0.00  0.00    +0.000 C 
ATOM     13  C   UNL     1       3.384   4.279  19.918  0.00  0.00    +0.000 C 
ATOM     14  C   UNL     1       3.164   3.009  19.099  0.00  0.00    +0.000 C 
ENDBRANCH   6  13
ENDBRANCH   1  11
BRANCH   3  15
ATOM     15  C   UNL     1       6.480   4.466  14.057  0.00  0.00    +0.000 A 
ATOM     16  C   UNL     1       7.502   4.946  13.231  0.00  0.00    +0.000 A 
ATOM     17  C   UNL     1       7.600   4.511  11.904  0.00  0.00    +0.000 A 
ATOM     18  C   UNL     1       6.671   3.607  11.391  0.00  0.00    +0.000 A 
ATOM     19  C   UNL     1       5.647   3.127  12.204  0.00  0.00    +0.000 A 
ATOM     20  C   UNL     1       5.556   3.549  13.535  0.00  0.00    +0.000 A 
ENDBRANCH   3  15
BRANCH   5  21
ATOM     21  C   UNL     1       7.527   6.771  18.147  0.00  0.00    +0.000 C 
ATOM     22  S   UNL     1       7.937   8.363  17.903  0.00  0.00    +0.000 S 
BRANCH  21  23
ATOM     23  N   UNL     1       7.965   6.179  19.295  0.00  0.00    +0.000 N 
ATOM     24  H   UNL     1       8.001   6.760  20.123  0.00  0.00    +0.000 HD
ATOM     25  H   UNL     1       8.114   5.183  19.337  0.00  0.00    +0.000 HD
ENDBRANCH  21  23
ENDBRANCH   5  21
TORSDOF 5
ENDMDL
MODEL 2
REMARK VINA RESULT:      -8.1      0.369      1.067
REMARK  Name = 
REMARK  7 active torsions:
REMARK  status: ('A' for Active; 'I' for Inactive)
REMARK    1  A    between atoms: C_1  and  C_2
REMARK    2  A    between atoms: C_2  and  C_3
REMARK    3  A    between atoms: C_2  and  C_4
REMARK    4  A    between atoms: C_9  and  C_10
REMARK    5  A    between atoms: C_12  and  C_13
REMARK    6  A    between atoms: N_20  and  C_21
REMARK    7  A    between atoms: C_21  and  N_22
REMARK                            x       y       z     vdW  Elec       q    Type
REMARK                         _______ _______ _______ _____ _____    ______ ____
ROOT
ATOM      1  C   UNL     1       5.454   4.832  17.816  0.00  0.00    +0.000 C 
ATOM      2  C   UNL     1       5.222   4.152  16.458  0.00  0.00    +0.000 C 
ATOM      3  C   UNL     1       6.375   4.696  15.650  0.00  0.00    +0.000 C 
ATOM      4  N   UNL     1       7.211   5.439  16.308  0.00  0.00    +0.000 NA
ATOM      5  N   UNL     1       6.730   5.564  17.605  0.00  0.00    +0.000 N 
ENDROOT
BRANCH   1  11
ATOM      6  C   UNL     1       3.344   5.450  19.238  0.00  0.00    +0.000 A 
ATOM      7  C   UNL     1       2.403   6.458  19.566  0.00  0.00    +0.000 A 
ATOM      8  C   UNL     1       2.316   7.657  18.861  0.00  0.00    +0.000 A 
ATOM      9  C   UNL     1       3.177   7.894  17.805  0.00  0.00    +0.000 A 
ATOM     10  C   UNL     1       4.160   6.957  17.502  0.00  0.00    +0.000 A 
ATOM     11  C   UNL     1       4.286   5.735  18.213  0.00  0.00    +0.000 A 
BRANCH   6  13
ATOM     12  C   UNL     1       2.266   4.287  21.232  0.00  0.00    +0.000 C 
ATOM     13  C   UNL     1       3.169   4.136  20.006  0.00  0.00    +0.000 C 
ATOM     14  C   UNL     1       2.808   2.900  19.186  0.00  0.00    +0.000 C 
ENDBRANCH   6  13
ENDBRANCH   1  11
BRANCH   3  15
ATOM     15  C   UNL     1       6.546   4.385  14.205  0.00  0.00    +0.000 A 
ATOM     16  C   UNL     1       5.733   3.449  13.557  0.00  0.00    +0.000 A 
ATOM     17  C   UNL     1       5.888   3.205  12.188  0.00  0.00    +0.000 A 
ATOM     18  C   UNL     1       6.866   3.884  11.461  0.00  0.00    +0.000 A 
ATOM     19  C   UNL     1       7.684   4.815  12.097  0.00  0.00    +0.000 A 
ATOM     20  C   UNL     1       7.520   5.070  13.463  0.00  0.00    +0.000 A 
ENDBRANCH   3  15
BRANCH   5  21
ATOM     21  C   UNL     1       7.490   6.270  18.528  0.00  0.00    +0.000 C 
ATOM     22  S   UNL     1       8.149   7.789  18.395  0.00  0.00    +0.000 S 
BRANCH  21  23
ATOM     23  N   UNL     1       7.700   5.595  19.695  0.00  0.00    +0.000 N 
ATOM     24  H   UNL     1       7.976   6.147  20.498  0.00  0.00    +0.000 HD
ATOM     25  H   UNL     1       7.459   4.620  19.778  0.00  0.00    +0.000 HD
ENDBRANCH  21  23
ENDBRANCH   5  21
TORSDOF 5
ENDMDL
MODEL 3
REMARK VINA RESULT:      -7.6      0.732      1.010
REMARK  Name = 
REMARK  7 active torsions:
REMARK  status: ('A' for Active; 'I' for Inactive)
REMARK    1  A    between atoms: C_1  and  C_2
REMARK    2  A    between atoms: C_2  and  C_3
REMARK    3  A    between atoms: C_2  and  C_4
REMARK    4  A    between atoms: C_9  and  C_10
REMARK    5  A    between atoms: C_12  and  C_13
REMARK    6  A    between atoms: N_20  and  C_21
REMARK    7  A    between atoms: C_21  and  N_22
REMARK                            x       y       z     vdW  Elec       q    Type
REMARK                         _______ _______ _______ _____ _____    ______ ____
ROOT
ATOM      1  C   UNL     1       5.549   4.499  17.716  0.00  0.00    +0.000 C 
ATOM      2  C   UNL     1       5.338   3.863  16.333  0.00  0.00    +0.000 C 
ATOM      3  C   UNL     1       6.394   4.568  15.516  0.00  0.00    +0.000 C 
ATOM      4  N   UNL     1       7.170   5.366  16.183  0.00  0.00    +0.000 NA
ATOM      5  N   UNL     1       6.729   5.376  17.500  0.00  0.00    +0.000 N 
ENDROOT
BRANCH   1  11
ATOM      6  C   UNL     1       3.285   4.695  19.017  0.00  0.00    +0.000 A 
ATOM      7  C   UNL     1       2.270   5.568  19.483  0.00  0.00    +0.000 A 
ATOM      8  C   UNL     1       2.196   6.903  19.092  0.00  0.00    +0.000 A 
ATOM      9  C   UNL     1       3.142   7.416  18.223  0.00  0.00    +0.000 A 
ATOM     10  C   UNL     1       4.194   6.606  17.803  0.00  0.00    +0.000 A 
ATOM     11  C   UNL     1       4.308   5.248  18.199  0.00  0.00    +0.000 A 
BRANCH   6  13
ATOM     12  C   UNL     1       2.510   2.383  18.279  0.00  0.00    +0.000 C 
ATOM     13  C   UNL     1       3.099   3.227  19.412  0.00  0.00    +0.000 C 
ATOM     14  C   UNL     1       4.286   2.533  20.076  0.00  0.00    +0.000 C 
ENDBRANCH   6  13
ENDBRANCH   1  11
BRANCH   3  15
ATOM     15  C   UNL     1       6.540   4.348  14.051  0.00  0.00    +0.000 A 
ATOM     16  C   UNL     1       7.497   5.038  13.300  0.00  0.00    +0.000 A 
ATOM     17  C   UNL     1       7.640   4.782  11.931  0.00  0.00    +0.000 A 
ATOM     18  C   UNL     1       6.818   3.846  11.303  0.00  0.00    +0.000 A 
ATOM     19  C   UNL     1       5.860   3.157  12.041  0.00  0.00    +0.000 A 
ATOM     20  C   UNL     1       5.725   3.400  13.412  0.00  0.00    +0.000 A 
ENDBRANCH   3  15
BRANCH   5  21
ATOM     21  C   UNL     1       7.445   6.115  18.432  0.00  0.00    +0.000 C 
ATOM     22  S   UNL     1       8.062   7.652  18.295  0.00  0.00    +0.000 S 
BRANCH  21  23
ATOM     23  N   UNL     1       7.646   5.462  19.613  0.00  0.00    +0.000 N 
ATOM     24  H   UNL     1       7.821   6.036  20.428  0.00  0.00    +0.000 HD
ATOM     25  H   UNL     1       7.491   4.469  19.686  0.00  0.00    +0.000 HD
ENDBRANCH  21  23
ENDBRANCH   5  21
TORSDOF 5
ENDMDL
MODEL 4
REMARK VINA RESULT:      -7.4      2.912      6.839
REMARK  Name = 
REMARK  7 active torsions:
REMARK  status: ('A' for Active; 'I' for Inactive)
REMARK    1  A    between atoms: C_1  and  C_2
REMARK    2  A    between atoms: C_2  and  C_3
REMARK    3  A    between atoms: C_2  and  C_4
REMARK    4  A    between atoms: C_9  and  C_10
REMARK    5  A    between atoms: C_12  and  C_13
REMARK    6  A    between atoms: N_20  and  C_21
REMARK    7  A    between atoms: C_21  and  N_22
REMARK                            x       y       z     vdW  Elec       q    Type
REMARK                         _______ _______ _______ _____ _____    ______ ____
ROOT
ATOM      1  C   UNL     1       4.792   5.128  18.721  0.00  0.00    +0.000 C 
ATOM      2  C   UNL     1       4.404   6.601  18.926  0.00  0.00    +0.000 C 
ATOM      3  C   UNL     1       2.906   6.497  19.075  0.00  0.00    +0.000 C 
ATOM      4  N   UNL     1       2.431   5.290  19.081  0.00  0.00    +0.000 NA
ATOM      5  N   UNL     1       3.495   4.421  18.877  0.00  0.00    +0.000 N 
ENDROOT
BRANCH   1  11
ATOM      6  C   UNL     1       6.804   5.230  17.048  0.00  0.00    +0.000 A 
ATOM      7  C   UNL     1       7.303   4.823  15.785  0.00  0.00    +0.000 A 
ATOM      8  C   UNL     1       6.501   4.201  14.830  0.00  0.00    +0.000 A 
ATOM      9  C   UNL     1       5.169   3.956  15.109  0.00  0.00    +0.000 A 
ATOM     10  C   UNL     1       4.664   4.278  16.366  0.00  0.00    +0.000 A 
ATOM     11  C   UNL     1       5.460   4.895  17.366  0.00  0.00    +0.000 A 
BRANCH   6  13
ATOM     12  C   UNL     1       7.631   7.561  17.659  0.00  0.00    +0.000 C 
ATOM     13  C   UNL     1       7.783   6.055  17.888  0.00  0.00    +0.000 C 
ATOM     14  C   UNL     1       7.876   5.716  19.374  0.00  0.00    +0.000 C 
ENDBRANCH   6  13
ENDBRANCH   1  11
BRANCH   3  15
ATOM     15  C   UNL     1       2.039   7.700  19.218  0.00  0.00    +0.000 A 
ATOM     16  C   UNL     1       1.495   8.065  20.454  0.00  0.00    +0.000 A 
ATOM     17  C   UNL     1       0.717   9.223  20.568  0.00  0.00    +0.000 A 
ATOM     18  C   UNL     1       0.466  10.013  19.447  0.00  0.00    +0.000 A 
ATOM     19  C   UNL     1       0.999   9.656  18.212  0.00  0.00    +0.000 A 
ATOM     20  C   UNL     1       1.790   8.507  18.098  0.00  0.00    +0.000 A 
ENDBRANCH   3  15
BRANCH   5  21
ATOM     21  C   UNL     1       3.248   3.054  18.906  0.00  0.00    +0.000 C 
ATOM     22  S   UNL     1       1.865   2.234  18.488  0.00  0.00    +0.000 S 
BRANCH  21  23
ATOM     23  N   UNL     1       4.310   2.314  19.336  0.00  0.00    +0.000 N 
ATOM     24  H   UNL     1       4.370   2.136  20.331  0.00  0.00    +0.000 HD
ATOM     25  H   UNL     1       4.923   1.859  18.677  0.00  0.00    +0.000 HD
ENDBRANCH  21  23
ENDBRANCH   5  21
TORSDOF 5
ENDMDL
MODEL 5
REMARK VINA RESULT:      -7.4      2.892      6.814
REMARK  Name = 
REMARK  7 active torsions:
REMARK  status: ('A' for Active; 'I' for Inactive)
REMARK    1  A    between atoms: C_1  and  C_2
REMARK    2  A    between atoms: C_2  and  C_3
REMARK    3  A    between atoms: C_2  and  C_4
REMARK    4  A    between atoms: C_9  and  C_10
REMARK    5  A    between atoms: C_12  and  C_13
REMARK    6  A    between atoms: N_20  and  C_21
REMARK    7  A    between atoms: C_21  and  N_22
REMARK                            x       y       z     vdW  Elec       q    Type
REMARK                         _______ _______ _______ _____ _____    ______ ____
ROOT
ATOM      1  C   UNL     1       4.787   5.159  18.643  0.00  0.00    +0.000 C 
ATOM      2  C   UNL     1       4.410   6.634  18.851  0.00  0.00    +0.000 C 
ATOM      3  C   UNL     1       2.910   6.542  18.993  0.00  0.00    +0.000 C 
ATOM      4  N   UNL     1       2.426   5.338  18.994  0.00  0.00    +0.000 NA
ATOM      5  N   UNL     1       3.483   4.461  18.792  0.00  0.00    +0.000 N 
ENDROOT
BRANCH   1  11
ATOM      6  C   UNL     1       6.805   5.253  16.977  0.00  0.00    +0.000 A 
ATOM      7  C   UNL     1       7.307   4.845  15.716  0.00  0.00    +0.000 A 
ATOM      8  C   UNL     1       6.506   4.227  14.757  0.00  0.00    +0.000 A 
ATOM      9  C   UNL     1       5.171   3.988  15.032  0.00  0.00    +0.000 A 
ATOM     10  C   UNL     1       4.663   4.311  16.287  0.00  0.00    +0.000 A 
ATOM     11  C   UNL     1       5.458   4.924  17.290  0.00  0.00    +0.000 A 
BRANCH   6  13
ATOM     12  C   UNL     1       7.617   7.581  17.620  0.00  0.00    +0.000 C 
ATOM     13  C   UNL     1       7.785   6.073  17.822  0.00  0.00    +0.000 C 
ATOM     14  C   UNL     1       7.896   5.709  19.301  0.00  0.00    +0.000 C 
ENDBRANCH   6  13
ENDBRANCH   1  11
BRANCH   3  15
ATOM     15  C   UNL     1       2.052   7.751  19.136  0.00  0.00    +0.000 A 
ATOM     16  C   UNL     1       1.747   8.564  18.039  0.00  0.00    +0.000 A 
ATOM     17  C   UNL     1       0.905   9.672  18.195  0.00  0.00    +0.000 A 
ATOM     18  C   UNL     1       0.376   9.981  19.447  0.00  0.00    +0.000 A 
ATOM     19  C   UNL     1       0.677   9.180  20.545  0.00  0.00    +0.000 A 
ATOM     20  C   UNL     1       1.506   8.064  20.390  0.00  0.00    +0.000 A 
ENDBRANCH   3  15
BRANCH   5  21
ATOM     21  C   UNL     1       3.226   3.097  18.817  0.00  0.00    +0.000 C 
ATOM     22  S   UNL     1       1.843   2.288  18.375  0.00  0.00    +0.000 S 
BRANCH  21  23
ATOM     23  N   UNL     1       4.275   2.349  19.264  0.00  0.00    +0.000 N 
ATOM     24  H   UNL     1       4.155   1.879  20.152  0.00  0.00    +0.000 HD
ATOM     25  H   UNL     1       5.070   2.169  18.671  0.00  0.00    +0.000 HD
ENDBRANCH  21  23
ENDBRANCH   5  21
TORSDOF 5
ENDMDL
MODEL 6
REMARK VINA RESULT:      -7.3      1.171      1.181
REMARK  Name = 
REMARK  7 active torsions:
REMARK  status: ('A' for Active; 'I' for Inactive)
REMARK    1  A    between atoms: C_1  and  C_2
REMARK    2  A    between atoms: C_2  and  C_3
REMARK    3  A    between atoms: C_2  and  C_4
REMARK    4  A    between atoms: C_9  and  C_10
REMARK    5  A    between atoms: C_12  and  C_13
REMARK    6  A    between atoms: N_20  and  C_21
REMARK    7  A    between atoms: C_21  and  N_22
REMARK                            x       y       z     vdW  Elec       q    Type
REMARK                         _______ _______ _______ _____ _____    ______ ____
ROOT
ATOM      1  C   UNL     1       4.650   4.603  17.523  0.00  0.00    +0.000 C 
ATOM      2  C   UNL     1       4.570   4.239  16.032  0.00  0.00    +0.000 C 
ATOM      3  C   UNL     1       5.972   4.556  15.572  0.00  0.00    +0.000 C 
ATOM      4  N   UNL     1       6.794   4.920  16.508  0.00  0.00    +0.000 NA
ATOM      5  N   UNL     1       6.079   4.971  17.697  0.00  0.00    +0.000 N 
ENDROOT
BRANCH   1  11
ATOM      6  C   UNL     1       2.565   5.586  18.766  0.00  0.00    +0.000 A 
ATOM      7  C   UNL     1       1.845   6.759  19.104  0.00  0.00    +0.000 A 
ATOM      8  C   UNL     1       2.133   8.002  18.542  0.00  0.00    +0.000 A 
ATOM      9  C   UNL     1       3.161   8.115  17.623  0.00  0.00    +0.000 A 
ATOM     10  C   UNL     1       3.935   6.998  17.322  0.00  0.00    +0.000 A 
ATOM     11  C   UNL     1       3.678   5.723  17.892  0.00  0.00    +0.000 A 
BRANCH   6  13
ATOM     12  C   UNL     1       1.172   4.530  20.619  0.00  0.00    +0.000 C 
ATOM     13  C   UNL     1       1.990   4.291  19.347  0.00  0.00    +0.000 C 
ATOM     14  C   UNL     1       1.268   3.359  18.377  0.00  0.00    +0.000 C 
ENDBRANCH   6  13
ENDBRANCH   1  11
BRANCH   3  15
ATOM     15  C   UNL     1       6.382   4.441  14.145  0.00  0.00    +0.000 A 
ATOM     16  C   UNL     1       7.429   5.207  13.622  0.00  0.00    +0.000 A 
ATOM     17  C   UNL     1       7.821   5.051  12.287  0.00  0.00    +0.000 A 
ATOM     18  C   UNL     1       7.160   4.139  11.465  0.00  0.00    +0.000 A 
ATOM     19  C   UNL     1       6.114   3.374  11.975  0.00  0.00    +0.000 A 
ATOM     20  C   UNL     1       5.730   3.519  13.313  0.00  0.00    +0.000 A 
ENDBRANCH   3  15
BRANCH   5  21
ATOM     21  C   UNL     1       6.761   5.278  18.867  0.00  0.00    +0.000 C 
ATOM     22  S   UNL     1       8.104   6.236  19.071  0.00  0.00    +0.000 S 
BRANCH  21  23
ATOM     23  N   UNL     1       6.224   4.705  19.982  0.00  0.00    +0.000 N 
ATOM     24  H   UNL     1       6.506   5.091  20.875  0.00  0.00    +0.000 HD
ATOM     25  H   UNL     1       5.483   4.026  19.907  0.00  0.00    +0.000 HD
ENDBRANCH  21  23
ENDBRANCH   5  21
TORSDOF 5
ENDMDL
MODEL 7
REMARK VINA RESULT:      -7.0      2.967      7.067
REMARK  Name = 
REMARK  7 active torsions:
REMARK  status: ('A' for Active; 'I' for Inactive)
REMARK    1  A    between atoms: C_1  and  C_2
REMARK    2  A    between atoms: C_2  and  C_3
REMARK    3  A    between atoms: C_2  and  C_4
REMARK    4  A    between atoms: C_9  and  C_10
REMARK    5  A    between atoms: C_12  and  C_13
REMARK    6  A    between atoms: N_20  and  C_21
REMARK    7  A    between atoms: C_21  and  N_22
REMARK                            x       y       z     vdW  Elec       q    Type
REMARK                         _______ _______ _______ _____ _____    ______ ____
ROOT
ATOM      1  C   UNL     1       4.492   4.836  18.819  0.00  0.00    +0.000 C 
ATOM      2  C   UNL     1       4.215   6.262  19.321  0.00  0.00    +0.000 C 
ATOM      3  C   UNL     1       2.706   6.289  19.329  0.00  0.00    +0.000 C 
ATOM      4  N   UNL     1       2.130   5.166  19.028  0.00  0.00    +0.000 NA
ATOM      5  N   UNL     1       3.129   4.254  18.713  0.00  0.00    +0.000 N 
ENDROOT
BRANCH   1  11
ATOM      6  C   UNL     1       6.501   5.497  17.275  0.00  0.00    +0.000 A 
ATOM      7  C   UNL     1       7.148   5.281  16.033  0.00  0.00    +0.000 A 
ATOM      8  C   UNL     1       6.573   4.526  15.011  0.00  0.00    +0.000 A 
ATOM      9  C   UNL     1       5.328   3.954  15.202  0.00  0.00    +0.000 A 
ATOM     10  C   UNL     1       4.696   4.087  16.435  0.00  0.00    +0.000 A 
ATOM     11  C   UNL     1       5.265   4.833  17.500  0.00  0.00    +0.000 A 
BRANCH   6  13
ATOM     12  C   UNL     1       8.145   5.813  19.194  0.00  0.00    +0.000 C 
ATOM     13  C   UNL     1       7.205   6.496  18.199  0.00  0.00    +0.000 C 
ATOM     14  C   UNL     1       7.862   7.705  17.538  0.00  0.00    +0.000 C 
ENDBRANCH   6  13
ENDBRANCH   1  11
BRANCH   3  15
ATOM     15  C   UNL     1       1.938   7.516  19.675  0.00  0.00    +0.000 A 
ATOM     16  C   UNL     1       1.382   7.697  20.945  0.00  0.00    +0.000 A 
ATOM     17  C   UNL     1       0.698   8.878  21.256  0.00  0.00    +0.000 A 
ATOM     18  C   UNL     1       0.554   9.879  20.295  0.00  0.00    +0.000 A 
ATOM     19  C   UNL     1       1.101   9.707  19.026  0.00  0.00    +0.000 A 
ATOM     20  C   UNL     1       1.797   8.533  18.718  0.00  0.00    +0.000 A 
ENDBRANCH   3  15
BRANCH   5  21
ATOM     21  C   UNL     1       2.763   2.947  18.415  0.00  0.00    +0.000 C 
ATOM     22  S   UNL     1       3.621   1.544  18.650  0.00  0.00    +0.000 S 
BRANCH  21  23
ATOM     23  N   UNL     1       1.521   2.838  17.861  0.00  0.00    +0.000 N 
ATOM     24  H   UNL     1       1.449   3.005  16.865  0.00  0.00    +0.000 HD
ATOM     25  H   UNL     1       0.747   2.477  18.397  0.00  0.00    +0.000 HD
ENDBRANCH  21  23
ENDBRANCH   5  21
TORSDOF 5
ENDMDL
MODEL 8
REMARK VINA RESULT:      -6.9      2.979      7.055
REMARK  Name = 
REMARK  7 active torsions:
REMARK  status: ('A' for Active; 'I' for Inactive)
REMARK    1  A    between atoms: C_1  and  C_2
REMARK    2  A    between atoms: C_2  and  C_3
REMARK    3  A    between atoms: C_2  and  C_4
REMARK    4  A    between atoms: C_9  and  C_10
REMARK    5  A    between atoms: C_12  and  C_13
REMARK    6  A    between atoms: N_20  and  C_21
REMARK    7  A    between atoms: C_21  and  N_22
REMARK                            x       y       z     vdW  Elec       q    Type
REMARK                         _______ _______ _______ _____ _____    ______ ____
ROOT
ATOM      1  C   UNL     1       4.456   4.879  18.840  0.00  0.00    +0.000 C 
ATOM      2  C   UNL     1       4.198   6.313  19.330  0.00  0.00    +0.000 C 
ATOM      3  C   UNL     1       2.689   6.359  19.336  0.00  0.00    +0.000 C 
ATOM      4  N   UNL     1       2.099   5.241  19.044  0.00  0.00    +0.000 NA
ATOM      5  N   UNL     1       3.085   4.314  18.738  0.00  0.00    +0.000 N 
ENDROOT
BRANCH   1  11
ATOM      6  C   UNL     1       6.480   5.492  17.297  0.00  0.00    +0.000 A 
ATOM      7  C   UNL     1       7.125   5.257  16.056  0.00  0.00    +0.000 A 
ATOM      8  C   UNL     1       6.535   4.511  15.037  0.00  0.00    +0.000 A 
ATOM      9  C   UNL     1       5.278   3.965  15.228  0.00  0.00    +0.000 A 
ATOM     10  C   UNL     1       4.648   4.116  16.460  0.00  0.00    +0.000 A 
ATOM     11  C   UNL     1       5.230   4.854  17.523  0.00  0.00    +0.000 A 
BRANCH   6  13
ATOM     12  C   UNL     1       8.159   5.784  19.191  0.00  0.00    +0.000 C 
ATOM     13  C   UNL     1       7.204   6.480  18.217  0.00  0.00    +0.000 C 
ATOM     14  C   UNL     1       7.854   7.692  17.557  0.00  0.00    +0.000 C 
ENDBRANCH   6  13
ENDBRANCH   1  11
BRANCH   3  15
ATOM     15  C   UNL     1       1.936   7.600  19.670  0.00  0.00    +0.000 A 
ATOM     16  C   UNL     1       1.752   8.618  18.729  0.00  0.00    +0.000 A 
ATOM     17  C   UNL     1       1.005   9.756  19.057  0.00  0.00    +0.000 A 
ATOM     18  C   UNL     1       0.453   9.889  20.330  0.00  0.00    +0.000 A 
ATOM     19  C   UNL     1       0.634   8.883  21.275  0.00  0.00    +0.000 A 
ATOM     20  C   UNL     1       1.367   7.738  20.945  0.00  0.00    +0.000 A 
ENDBRANCH   3  15
BRANCH   5  21
ATOM     21  C   UNL     1       2.703   3.010  18.451  0.00  0.00    +0.000 C 
ATOM     22  S   UNL     1       3.577   1.606  18.613  0.00  0.00    +0.000 S 
BRANCH  21  23
ATOM     23  N   UNL     1       1.428   2.904  17.978  0.00  0.00    +0.000 N 
ATOM     24  H   UNL     1       1.008   3.745  17.603  0.00  0.00    +0.000 HD
ATOM     25  H   UNL     1       0.985   2.003  17.887  0.00  0.00    +0.000 HD
ENDBRANCH  21  23
ENDBRANCH   5  21
TORSDOF 5
ENDMDL
MODEL 9
REMARK VINA RESULT:      -6.6      4.722      7.048
REMARK  Name = 
REMARK  7 active torsions:
REMARK  status: ('A' for Active; 'I' for Inactive)
REMARK    1  A    between atoms: C_1  and  C_2
REMARK    2  A    between atoms: C_2  and  C_3
REMARK    3  A    between atoms: C_2  and  C_4
REMARK    4  A    between atoms: C_9  and  C_10
REMARK    5  A    between atoms: C_12  and  C_13
REMARK    6  A    between atoms: N_20  and  C_21
REMARK    7  A    between atoms: C_21  and  N_22
REMARK                            x       y       z     vdW  Elec       q    Type
REMARK                         _______ _______ _______ _____ _____    ______ ____
ROOT
ATOM      1  C   UNL     1       0.611   9.498  18.947  0.00  0.00    +0.000 C 
ATOM      2  C   UNL     1       1.228   8.626  17.842  0.00  0.00    +0.000 C 
ATOM      3  C   UNL     1       2.168   7.755  18.638  0.00  0.00    +0.000 C 
ATOM      4  N   UNL     1       2.116   7.915  19.925  0.00  0.00    +0.000 NA
ATOM      5  N   UNL     1       1.211   8.934  20.184  0.00  0.00    +0.000 N 
ENDROOT
BRANCH   1  11
ATOM      6  C   UNL     1      -0.012  12.041  18.964  0.00  0.00    +0.000 A 
ATOM      7  C   UNL     1       0.470  13.369  18.851  0.00  0.00    +0.000 A 
ATOM      8  C   UNL     1       1.770  13.660  18.443  0.00  0.00    +0.000 A 
ATOM      9  C   UNL     1       2.639  12.628  18.140  0.00  0.00    +0.000 A 
ATOM     10  C   UNL     1       2.221  11.311  18.308  0.00  0.00    +0.000 A 
ATOM     11  C   UNL     1       0.909  10.982  18.740  0.00  0.00    +0.000 A 
BRANCH   6  13
ATOM     12  C   UNL     1      -2.035  13.073  20.119  0.00  0.00    +0.000 C 
ATOM     13  C   UNL     1      -1.513  11.926  19.250  0.00  0.00    +0.000 C 
ATOM     14  C   UNL     1      -2.426  11.660  18.057  0.00  0.00    +0.000 C 
ENDBRANCH   6  13
ENDBRANCH   1  11
BRANCH   3  15
ATOM     15  C   UNL     1       3.078   6.772  17.989  0.00  0.00    +0.000 A 
ATOM     16  C   UNL     1       2.827   5.397  18.042  0.00  0.00    +0.000 A 
ATOM     17  C   UNL     1       3.678   4.498  17.389  0.00  0.00    +0.000 A 
ATOM     18  C   UNL     1       4.790   4.965  16.691  0.00  0.00    +0.000 A 
ATOM     19  C   UNL     1       5.052   6.332  16.634  0.00  0.00    +0.000 A 
ATOM     20  C   UNL     1       4.195   7.234  17.275  0.00  0.00    +0.000 A 
ENDBRANCH   3  15
BRANCH   5  21
ATOM     21  C   UNL     1       0.932   9.252  21.507  0.00  0.00    +0.000 C 
ATOM     22  S   UNL     1      -0.438   9.940  22.149  0.00  0.00    +0.000 S 
BRANCH  21  23
ATOM     23  N   UNL     1       1.939   8.937  22.371  0.00  0.00    +0.000 N 
ATOM     24  H   UNL     1       1.729   9.000  23.360  0.00  0.00    +0.000 HD
ATOM     25  H   UNL     1       2.800   8.533  22.035  0.00  0.00    +0.000 HD
ENDBRANCH  21  23
ENDBRANCH   5  21
TORSDOF 5
ENDMDL
