MODEL 1
REMARK VINA RESULT:      -7.1      0.000      0.000
REMARK  Name = 
REMARK  3 active torsions:
REMARK  status: ('A' for Active; 'I' for Inactive)
REMARK    1  A    between atoms: O_1  and  C_2
REMARK    2  A    between atoms: C_5  and  C_6
REMARK    3  A    between atoms: C_10  and  O_11
REMARK                            x       y       z     vdW  Elec       q    Type
REMARK                         _______ _______ _______ _____ _____    ______ ____
ROOT
ATOM      1  C   UNL     1       4.063   3.982  18.193  0.00  0.00    +0.000 A 
ATOM      2  N   UNL     1       3.987   3.469  16.982  0.00  0.00    +0.000 NA
ATOM      3  C   UNL     1       4.988   4.095  16.298  0.00  0.00    +0.000 A 
ATOM      4  C   UNL     1       5.392   3.937  14.967  0.00  0.00    +0.000 A 
ATOM      5  C   UNL     1       6.494   4.680  14.544  0.00  0.00    +0.000 A 
ATOM      6  C   UNL     1       7.144   5.588  15.382  0.00  0.00    +0.000 A 
ATOM      7  C   UNL     1       6.720   5.767  16.707  0.00  0.00    +0.000 A 
ATOM      8 BR   UNL     1       7.593   6.993  17.838  0.00  0.00    +0.000 Br
ATOM      9  C   UNL     1       5.650   4.987  17.126  0.00  0.00    +0.000 A 
ATOM     10  O   UNL     1       5.049   4.923  18.360  0.00  0.00    +0.000 OA
ENDROOT
BRANCH   1  14
ATOM     11  C   UNL     1       1.601   2.849  21.474  0.00  0.00    +0.000 A 
ATOM     12  C   UNL     1       2.909   2.396  21.389  0.00  0.00    +0.000 A 
ATOM     13  C   UNL     1       3.701   2.813  20.320  0.00  0.00    +0.000 A 
ATOM     14  C   UNL     1       3.195   3.673  19.327  0.00  0.00    +0.000 A 
ATOM     15  C   UNL     1       1.886   4.151  19.456  0.00  0.00    +0.000 A 
ATOM     16  C   UNL     1       1.089   3.735  20.530  0.00  0.00    +0.000 A 
BRANCH  11  17
ATOM     17  O   UNL     1       0.778   2.433  22.478  0.00  0.00    +0.000 OA
ATOM     18  H   UNL     1      -0.068   2.160  22.089  0.00  0.00    +0.000 HD
ENDBRANCH  11  17
ENDBRANCH   1  14
BRANCH   5  19
ATOM     19  O   UNL     1       6.983   4.520  13.278  0.00  0.00    +0.000 OA
ATOM     20  H   UNL     1       6.240   4.348  12.676  0.00  0.00    +0.000 HD
ENDBRANCH   5  19
TORSDOF 3
ENDMDL
MODEL 2
REMARK VINA RESULT:      -7.1      0.283      1.169
REMARK  Name = 
REMARK  3 active torsions:
REMARK  status: ('A' for Active; 'I' for Inactive)
REMARK    1  A    between atoms: O_1  and  C_2
REMARK    2  A    between atoms: C_5  and  C_6
REMARK    3  A    between atoms: C_10  and  O_11
REMARK                            x       y       z     vdW  Elec       q    Type
REMARK                         _______ _______ _______ _____ _____    ______ ____
ROOT
ATOM      1  C   UNL     1       4.171   3.763  18.271  0.00  0.00    +0.000 A 
ATOM      2  N   UNL     1       4.082   3.393  17.009  0.00  0.00    +0.000 NA
ATOM      3  C   UNL     1       5.091   4.075  16.395  0.00  0.00    +0.000 A 
ATOM      4  C   UNL     1       5.487   4.063  15.053  0.00  0.00    +0.000 A 
ATOM      5  C   UNL     1       6.600   4.831  14.711  0.00  0.00    +0.000 A 
ATOM      6  C   UNL     1       7.269   5.627  15.644  0.00  0.00    +0.000 A 
ATOM      7  C   UNL     1       6.853   5.661  16.983  0.00  0.00    +0.000 A 
ATOM      8 BR   UNL     1       7.751   6.736  18.241  0.00  0.00    +0.000 Br
ATOM      9  C   UNL     1       5.771   4.857  17.316  0.00  0.00    +0.000 A 
ATOM     10  O   UNL     1       5.174   4.663  18.538  0.00  0.00    +0.000 OA
ENDROOT
BRANCH   1  14
ATOM     11  C   UNL     1       1.551   2.761  21.471  0.00  0.00    +0.000 A 
ATOM     12  C   UNL     1       1.084   3.479  20.379  0.00  0.00    +0.000 A 
ATOM     13  C   UNL     1       1.958   3.761  19.332  0.00  0.00    +0.000 A 
ATOM     14  C   UNL     1       3.302   3.342  19.367  0.00  0.00    +0.000 A 
ATOM     15  C   UNL     1       3.739   2.582  20.457  0.00  0.00    +0.000 A 
ATOM     16  C   UNL     1       2.862   2.296  21.511  0.00  0.00    +0.000 A 
BRANCH  11  17
ATOM     17  O   UNL     1       0.742   2.500  22.537  0.00  0.00    +0.000 OA
ATOM     18  H   UNL     1      -0.116   2.192  22.204  0.00  0.00    +0.000 HD
ENDBRANCH  11  17
ENDBRANCH   1  14
BRANCH   5  19
ATOM     19  O   UNL     1       7.082   4.808  13.433  0.00  0.00    +0.000 OA
ATOM     20  H   UNL     1       6.761   4.003  12.993  0.00  0.00    +0.000 HD
ENDBRANCH   5  19
TORSDOF 3
ENDMDL
MODEL 3
REMARK VINA RESULT:      -7.0      1.690      6.662
REMARK  Name = 
REMARK  3 active torsions:
REMARK  status: ('A' for Active; 'I' for Inactive)
REMARK    1  A    between atoms: O_1  and  C_2
REMARK    2  A    between atoms: C_5  and  C_6
REMARK    3  A    between atoms: C_10  and  O_11
REMARK                            x       y       z     vdW  Elec       q    Type
REMARK                         _______ _______ _______ _____ _____    ______ ____
ROOT
ATOM      1  C   UNL     1       4.577   4.187  17.703  0.00  0.00    +0.000 A 
ATOM      2  N   UNL     1       4.401   3.059  18.360  0.00  0.00    +0.000 NA
ATOM      3  C   UNL     1       3.555   3.398  19.375  0.00  0.00    +0.000 A 
ATOM      4  C   UNL     1       3.007   2.598  20.384  0.00  0.00    +0.000 A 
ATOM      5  C   UNL     1       2.120   3.209  21.270  0.00  0.00    +0.000 A 
ATOM      6  C   UNL     1       1.822   4.572  21.200  0.00  0.00    +0.000 A 
ATOM      7  C   UNL     1       2.394   5.379  20.207  0.00  0.00    +0.000 A 
ATOM      8 BR   UNL     1       1.996   7.217  20.114  0.00  0.00    +0.000 Br
ATOM      9  C   UNL     1       3.241   4.747  19.306  0.00  0.00    +0.000 A 
ATOM     10  O   UNL     1       3.907   5.267  18.223  0.00  0.00    +0.000 OA
ENDROOT
BRANCH   1  14
ATOM     11  C   UNL     1       7.077   5.007  14.358  0.00  0.00    +0.000 A 
ATOM     12  C   UNL     1       7.462   5.392  15.634  0.00  0.00    +0.000 A 
ATOM     13  C   UNL     1       6.638   5.078  16.713  0.00  0.00    +0.000 A 
ATOM     14  C   UNL     1       5.423   4.390  16.530  0.00  0.00    +0.000 A 
ATOM     15  C   UNL     1       5.076   3.975  15.240  0.00  0.00    +0.000 A 
ATOM     16  C   UNL     1       5.903   4.288  14.154  0.00  0.00    +0.000 A 
BRANCH  11  17
ATOM     17  O   UNL     1       7.831   5.331  13.270  0.00  0.00    +0.000 OA
ATOM     18  H   UNL     1       7.372   5.017  12.473  0.00  0.00    +0.000 HD
ENDBRANCH  11  17
ENDBRANCH   1  14
BRANCH   5  19
ATOM     19  O   UNL     1       1.495   2.469  22.233  0.00  0.00    +0.000 OA
ATOM     20  H   UNL     1       1.493   2.976  23.063  0.00  0.00    +0.000 HD
ENDBRANCH   5  19
TORSDOF 3
ENDMDL
MODEL 4
REMARK VINA RESULT:      -7.0      4.897      6.336
REMARK  Name = 
REMARK  3 active torsions:
REMARK  status: ('A' for Active; 'I' for Inactive)
REMARK    1  A    between atoms: O_1  and  C_2
REMARK    2  A    between atoms: C_5  and  C_6
REMARK    3  A    between atoms: C_10  and  O_11
REMARK                            x       y       z     vdW  Elec       q    Type
REMARK                         _______ _______ _______ _____ _____    ______ ____
ROOT
ATOM      1  C   UNL     1       2.486   6.843  19.539  0.00  0.00    +0.000 A 
ATOM      2  N   UNL     1       2.500   7.610  18.468  0.00  0.00    +0.000 NA
ATOM      3  C   UNL     1       1.768   8.701  18.835  0.00  0.00    +0.000 A 
ATOM      4  C   UNL     1       1.457   9.854  18.105  0.00  0.00    +0.000 A 
ATOM      5  C   UNL     1       0.724  10.843  18.759  0.00  0.00    +0.000 A 
ATOM      6  C   UNL     1       0.263  10.684  20.068  0.00  0.00    +0.000 A 
ATOM      7  C   UNL     1       0.550   9.516  20.789  0.00  0.00    +0.000 A 
ATOM      8 BR   UNL     1      -0.073   9.298  22.552  0.00  0.00    +0.000 Br
ATOM      9  C   UNL     1       1.319   8.559  20.139  0.00  0.00    +0.000 A 
ATOM     10  O   UNL     1       1.778   7.350  20.601  0.00  0.00    +0.000 OA
ENDROOT
BRANCH   1  14
ATOM     11  C   UNL     1       4.369   3.031  19.714  0.00  0.00    +0.000 A 
ATOM     12  C   UNL     1       5.034   4.119  19.167  0.00  0.00    +0.000 A 
ATOM     13  C   UNL     1       4.404   5.361  19.157  0.00  0.00    +0.000 A 
ATOM     14  C   UNL     1       3.107   5.528  19.678  0.00  0.00    +0.000 A 
ATOM     15  C   UNL     1       2.472   4.427  20.263  0.00  0.00    +0.000 A 
ATOM     16  C   UNL     1       3.104   3.177  20.277  0.00  0.00    +0.000 A 
BRANCH  11  17
ATOM     17  O   UNL     1       4.930   1.789  19.707  0.00  0.00    +0.000 OA
ATOM     18  H   UNL     1       5.205   1.570  20.612  0.00  0.00    +0.000 HD
ENDBRANCH  11  17
ENDBRANCH   1  14
BRANCH   5  19
ATOM     19  O   UNL     1       0.449  12.023  18.127  0.00  0.00    +0.000 OA
ATOM     20  H   UNL     1       0.922  12.739  18.583  0.00  0.00    +0.000 HD
ENDBRANCH   5  19
TORSDOF 3
ENDMDL
MODEL 5
REMARK VINA RESULT:      -6.8      4.895      6.347
REMARK  Name = 
REMARK  3 active torsions:
REMARK  status: ('A' for Active; 'I' for Inactive)
REMARK    1  A    between atoms: O_1  and  C_2
REMARK    2  A    between atoms: C_5  and  C_6
REMARK    3  A    between atoms: C_10  and  O_11
REMARK                            x       y       z     vdW  Elec       q    Type
REMARK                         _______ _______ _______ _____ _____    ______ ____
ROOT
ATOM      1  C   UNL     1       2.554   6.903  19.312  0.00  0.00    +0.000 A 
ATOM      2  N   UNL     1       2.514   7.711  18.272  0.00  0.00    +0.000 NA
ATOM      3  C   UNL     1       1.784   8.776  18.711  0.00  0.00    +0.000 A 
ATOM      4  C   UNL     1       1.429   9.952  18.040  0.00  0.00    +0.000 A 
ATOM      5  C   UNL     1       0.710  10.905  18.761  0.00  0.00    +0.000 A 
ATOM      6  C   UNL     1       0.305  10.688  20.080  0.00  0.00    +0.000 A 
ATOM      7  C   UNL     1       0.636   9.497  20.743  0.00  0.00    +0.000 A 
ATOM      8 BR   UNL     1       0.088   9.202  22.520  0.00  0.00    +0.000 Br
ATOM      9  C   UNL     1       1.390   8.577  20.025  0.00  0.00    +0.000 A 
ATOM     10  O   UNL     1       1.883   7.358  20.421  0.00  0.00    +0.000 OA
ENDROOT
BRANCH   1  14
ATOM     11  C   UNL     1       4.357   3.071  19.725  0.00  0.00    +0.000 A 
ATOM     12  C   UNL     1       3.070   3.295  20.190  0.00  0.00    +0.000 A 
ATOM     13  C   UNL     1       2.494   4.551  20.008  0.00  0.00    +0.000 A 
ATOM     14  C   UNL     1       3.197   5.593  19.374  0.00  0.00    +0.000 A 
ATOM     15  C   UNL     1       4.478   5.332  18.875  0.00  0.00    +0.000 A 
ATOM     16  C   UNL     1       5.058   4.070  19.055  0.00  0.00    +0.000 A 
BRANCH  11  17
ATOM     17  O   UNL     1       4.975   1.871  19.919  0.00  0.00    +0.000 OA
ATOM     18  H   UNL     1       4.656   1.493  20.755  0.00  0.00    +0.000 HD
ENDBRANCH  11  17
ENDBRANCH   1  14
BRANCH   5  19
ATOM     19  O   UNL     1       0.394  12.103  18.187  0.00  0.00    +0.000 OA
ATOM     20  H   UNL     1       0.109  11.946  17.272  0.00  0.00    +0.000 HD
ENDBRANCH   5  19
TORSDOF 3
ENDMDL
MODEL 6
REMARK VINA RESULT:      -6.7      1.712      6.711
REMARK  Name = 
REMARK  3 active torsions:
REMARK  status: ('A' for Active; 'I' for Inactive)
REMARK    1  A    between atoms: O_1  and  C_2
REMARK    2  A    between atoms: C_5  and  C_6
REMARK    3  A    between atoms: C_10  and  O_11
REMARK                            x       y       z     vdW  Elec       q    Type
REMARK                         _______ _______ _______ _____ _____    ______ ____
ROOT
ATOM      1  C   UNL     1       4.600   4.310  17.668  0.00  0.00    +0.000 A 
ATOM      2  N   UNL     1       4.465   3.171  18.317  0.00  0.00    +0.000 NA
ATOM      3  C   UNL     1       3.623   3.478  19.345  0.00  0.00    +0.000 A 
ATOM      4  C   UNL     1       3.111   2.654  20.355  0.00  0.00    +0.000 A 
ATOM      5  C   UNL     1       2.218   3.232  21.257  0.00  0.00    +0.000 A 
ATOM      6  C   UNL     1       1.880   4.586  21.203  0.00  0.00    +0.000 A 
ATOM      7  C   UNL     1       2.415   5.417  20.208  0.00  0.00    +0.000 A 
ATOM      8 BR   UNL     1       1.963   7.243  20.136  0.00  0.00    +0.000 Br
ATOM      9  C   UNL     1       3.269   4.817  19.292  0.00  0.00    +0.000 A 
ATOM     10  O   UNL     1       3.906   5.365  18.205  0.00  0.00    +0.000 OA
ENDROOT
BRANCH   1  14
ATOM     11  C   UNL     1       6.932   4.784  14.140  0.00  0.00    +0.000 A 
ATOM     12  C   UNL     1       5.619   4.346  14.060  0.00  0.00    +0.000 A 
ATOM     13  C   UNL     1       4.870   4.234  15.230  0.00  0.00    +0.000 A 
ATOM     14  C   UNL     1       5.425   4.547  16.485  0.00  0.00    +0.000 A 
ATOM     15  C   UNL     1       6.738   5.028  16.538  0.00  0.00    +0.000 A 
ATOM     16  C   UNL     1       7.492   5.142  15.363  0.00  0.00    +0.000 A 
BRANCH  11  17
ATOM     17  O   UNL     1       7.713   4.867  13.026  0.00  0.00    +0.000 OA
ATOM     18  H   UNL     1       7.488   5.684  12.552  0.00  0.00    +0.000 HD
ENDBRANCH  11  17
ENDBRANCH   1  14
BRANCH   5  19
ATOM     19  O   UNL     1       1.628   2.466  22.222  0.00  0.00    +0.000 OA
ATOM     20  H   UNL     1       1.344   1.626  21.823  0.00  0.00    +0.000 HD
ENDBRANCH   5  19
TORSDOF 3
ENDMDL
MODEL 7
REMARK VINA RESULT:      -6.7      4.840      6.209
REMARK  Name = 
REMARK  3 active torsions:
REMARK  status: ('A' for Active; 'I' for Inactive)
REMARK    1  A    between atoms: O_1  and  C_2
REMARK    2  A    between atoms: C_5  and  C_6
REMARK    3  A    between atoms: C_10  and  O_11
REMARK                            x       y       z     vdW  Elec       q    Type
REMARK                         _______ _______ _______ _____ _____    ______ ____
ROOT
ATOM      1  C   UNL     1       2.567   6.784  18.729  0.00  0.00    +0.000 A 
ATOM      2  N   UNL     1       2.678   7.720  17.809  0.00  0.00    +0.000 NA
ATOM      3  C   UNL     1       2.070   8.805  18.369  0.00  0.00    +0.000 A 
ATOM      4  C   UNL     1       1.899  10.096  17.856  0.00  0.00    +0.000 A 
ATOM      5  C   UNL     1       1.275  11.031  18.681  0.00  0.00    +0.000 A 
ATOM      6  C   UNL     1       0.787  10.698  19.946  0.00  0.00    +0.000 A 
ATOM      7  C   UNL     1       0.933   9.396  20.448  0.00  0.00    +0.000 A 
ATOM      8 BR   UNL     1       0.272   8.944  22.152  0.00  0.00    +0.000 Br
ATOM      9  C   UNL     1       1.595   8.488  19.633  0.00  0.00    +0.000 A 
ATOM     10  O   UNL     1       1.911   7.173  19.870  0.00  0.00    +0.000 OA
ENDROOT
BRANCH   1  14
ATOM     11  C   UNL     1       3.700   2.690  18.467  0.00  0.00    +0.000 A 
ATOM     12  C   UNL     1       2.606   3.163  17.758  0.00  0.00    +0.000 A 
ATOM     13  C   UNL     1       2.281   4.516  17.837  0.00  0.00    +0.000 A 
ATOM     14  C   UNL     1       3.035   5.403  18.628  0.00  0.00    +0.000 A 
ATOM     15  C   UNL     1       4.159   4.913  19.301  0.00  0.00    +0.000 A 
ATOM     16  C   UNL     1       4.488   3.554  19.223  0.00  0.00    +0.000 A 
BRANCH  11  17
ATOM     17  O   UNL     1       4.027   1.367  18.454  0.00  0.00    +0.000 OA
ATOM     18  H   UNL     1       4.942   1.279  18.139  0.00  0.00    +0.000 HD
ENDBRANCH  11  17
ENDBRANCH   1  14
BRANCH   5  19
ATOM     19  O   UNL     1       1.141  12.327  18.268  0.00  0.00    +0.000 OA
ATOM     20  H   UNL     1       1.957  12.595  17.813  0.00  0.00    +0.000 HD
ENDBRANCH   5  19
TORSDOF 3
ENDMDL
MODEL 8
REMARK VINA RESULT:      -6.7      4.531      5.307
REMARK  Name = 
REMARK  3 active torsions:
REMARK  status: ('A' for Active; 'I' for Inactive)
REMARK    1  A    between atoms: O_1  and  C_2
REMARK    2  A    between atoms: C_5  and  C_6
REMARK    3  A    between atoms: C_10  and  O_11
REMARK                            x       y       z     vdW  Elec       q    Type
REMARK                         _______ _______ _______ _____ _____    ______ ____
ROOT
ATOM      1  C   UNL     1       2.638   7.252  18.291  0.00  0.00    +0.000 A 
ATOM      2  N   UNL     1       3.775   7.267  17.626  0.00  0.00    +0.000 NA
ATOM      3  C   UNL     1       4.033   5.949  17.388  0.00  0.00    +0.000 A 
ATOM      4  C   UNL     1       5.103   5.360  16.704  0.00  0.00    +0.000 A 
ATOM      5  C   UNL     1       5.083   3.972  16.566  0.00  0.00    +0.000 A 
ATOM      6  C   UNL     1       4.076   3.184  17.128  0.00  0.00    +0.000 A 
ATOM      7  C   UNL     1       3.020   3.774  17.838  0.00  0.00    +0.000 A 
ATOM      8 BR   UNL     1       1.663   2.712  18.597  0.00  0.00    +0.000 Br
ATOM      9  C   UNL     1       3.030   5.159  17.928  0.00  0.00    +0.000 A 
ATOM     10  O   UNL     1       2.122   6.001  18.522  0.00  0.00    +0.000 OA
ENDROOT
BRANCH   1  14
ATOM     11  C   UNL     1       0.394  10.474  19.933  0.00  0.00    +0.000 A 
ATOM     12  C   UNL     1       0.760   9.397  20.727  0.00  0.00    +0.000 A 
ATOM     13  C   UNL     1       1.525   8.374  20.168  0.00  0.00    +0.000 A 
ATOM     14  C   UNL     1       1.920   8.411  18.818  0.00  0.00    +0.000 A 
ATOM     15  C   UNL     1       1.575   9.527  18.048  0.00  0.00    +0.000 A 
ATOM     16  C   UNL     1       0.808  10.557  18.607  0.00  0.00    +0.000 A 
BRANCH  11  17
ATOM     17  O   UNL     1      -0.390  11.474  20.426  0.00  0.00    +0.000 OA
ATOM     18  H   UNL     1      -0.929  11.829  19.700  0.00  0.00    +0.000 HD
ENDBRANCH  11  17
ENDBRANCH   1  14
BRANCH   5  19
ATOM     19  O   UNL     1       6.060   3.341  15.849  0.00  0.00    +0.000 OA
ATOM     20  H   UNL     1       6.709   2.967  16.468  0.00  0.00    +0.000 HD
ENDBRANCH   5  19
TORSDOF 3
ENDMDL
MODEL 9
REMARK VINA RESULT:      -6.6      4.096      4.784
REMARK  Name = 
REMARK  3 active torsions:
REMARK  status: ('A' for Active; 'I' for Inactive)
REMARK    1  A    between atoms: O_1  and  C_2
REMARK    2  A    between atoms: C_5  and  C_6
REMARK    3  A    between atoms: C_10  and  O_11
REMARK                            x       y       z     vdW  Elec       q    Type
REMARK                         _______ _______ _______ _____ _____    ______ ____
ROOT
ATOM      1  C   UNL     1       3.028   7.077  18.100  0.00  0.00    +0.000 A 
ATOM      2  N   UNL     1       4.053   7.436  17.354  0.00  0.00    +0.000 NA
ATOM      3  C   UNL     1       4.575   6.253  16.921  0.00  0.00    +0.000 A 
ATOM      4  C   UNL     1       5.669   6.014  16.081  0.00  0.00    +0.000 A 
ATOM      5  C   UNL     1       5.949   4.686  15.762  0.00  0.00    +0.000 A 
ATOM      6  C   UNL     1       5.215   3.624  16.293  0.00  0.00    +0.000 A 
ATOM      7  C   UNL     1       4.137   3.862  17.158  0.00  0.00    +0.000 A 
ATOM      8 BR   UNL     1       3.148   2.430  17.877  0.00  0.00    +0.000 Br
ATOM      9  C   UNL     1       3.843   5.191  17.431  0.00  0.00    +0.000 A 
ATOM     10  O   UNL     1       2.838   5.721  18.203  0.00  0.00    +0.000 OA
ENDROOT
BRANCH   1  14
ATOM     11  C   UNL     1       0.525   9.852  20.135  0.00  0.00    +0.000 A 
ATOM     12  C   UNL     1       0.793  10.008  18.783  0.00  0.00    +0.000 A 
ATOM     13  C   UNL     1       1.588   9.063  18.138  0.00  0.00    +0.000 A 
ATOM     14  C   UNL     1       2.129   7.965  18.833  0.00  0.00    +0.000 A 
ATOM     15  C   UNL     1       1.811   7.805  20.186  0.00  0.00    +0.000 A 
ATOM     16  C   UNL     1       1.011   8.753  20.837  0.00  0.00    +0.000 A 
BRANCH  11  17
ATOM     17  O   UNL     1      -0.211  10.776  20.815  0.00  0.00    +0.000 OA
ATOM     18  H   UNL     1      -0.053  10.655  21.766  0.00  0.00    +0.000 HD
ENDBRANCH  11  17
ENDBRANCH   1  14
BRANCH   5  19
ATOM     19  O   UNL     1       6.958   4.390  14.890  0.00  0.00    +0.000 OA
ATOM     20  H   UNL     1       6.674   4.625  13.992  0.00  0.00    +0.000 HD
ENDBRANCH   5  19
TORSDOF 3
ENDMDL
