MODEL 1
REMARK VINA RESULT:      -8.8      0.000      0.000
REMARK  Name = 
REMARK  9 active torsions:
REMARK  status: ('A' for Active; 'I' for Inactive)
REMARK    1  A    between atoms: C_1  and  C_2
REMARK    2  A    between atoms: C_2  and  C_3
REMARK    3  A    between atoms: C_3  and  O_4
REMARK    4  A    between atoms: C_3  and  C_5
REMARK    5  A    between atoms: C_3  and  C_31
REMARK    6  A    between atoms: N_7  and  C_8
REMARK    7  A    between atoms: C_8  and  C_9
REMARK    8  A    between atoms: C_13  and  C_14
REMARK    9  A    between atoms: C_22  and  C_23
REMARK                            x       y       z     vdW  Elec       q    Type
REMARK                         _______ _______ _______ _____ _____    ______ ____
ROOT
ATOM      1  C   UNL     1       5.951   5.009  17.055  0.00  0.00    +0.000 A 
ATOM      2  C   UNL     1       5.513   6.312  16.876  0.00  0.00    +0.000 A 
ATOM      3  C   UNL     1       4.463   6.793  17.645  0.00  0.00    +0.000 A 
ATOM      4  C   UNL     1       3.728   5.976  18.546  0.00  0.00    +0.000 A 
ATOM      5  C   UNL     1       2.592   6.414  19.303  0.00  0.00    +0.000 A 
ATOM      6  C   UNL     1       2.019   5.481  20.185  0.00  0.00    +0.000 A 
ATOM      7  C   UNL     1       2.553   4.209  20.293  0.00  0.00    +0.000 A 
ATOM      8  N   UNL     1       3.612   3.770  19.568  0.00  0.00    +0.000 NA
ATOM      9  C   UNL     1       4.172   4.635  18.711  0.00  0.00    +0.000 A 
ATOM     10  C   UNL     1       5.265   4.191  17.970  0.00  0.00    +0.000 A 
ENDROOT
BRANCH   5  11
ATOM     11  C   UNL     1       1.983   7.779  19.197  0.00  0.00    +0.000 A 
ATOM     12  C   UNL     1       1.846   8.448  17.962  0.00  0.00    +0.000 A 
ATOM     13  C   UNL     1       1.356   9.754  17.867  0.00  0.00    +0.000 A 
ATOM     14  C   UNL     1       0.873  10.398  18.998  0.00  0.00    +0.000 A 
ATOM     15  C   UNL     1       0.914   9.742  20.223  0.00  0.00    +0.000 A 
ATOM     16  C   UNL     1       1.485   8.470  20.319  0.00  0.00    +0.000 A 
ATOM     17  F   UNL     1       1.542   7.922  21.542  0.00  0.00    +0.000 F 
ENDBRANCH   5  11
BRANCH   7  18
ATOM     18  C   UNL     1       1.925   3.244  21.260  0.00  0.00    +0.000 C 
ATOM     19  N   UNL     1       0.649   2.840  20.967  0.00  0.00    +0.000 N 
ATOM     20  O   UNL     1       2.496   2.837  22.259  0.00  0.00    +0.000 OA
ATOM     21  H   UNL     1       0.178   3.175  20.136  0.00  0.00    +0.000 HD
ATOM     22  H   UNL     1       0.185   2.196  21.595  0.00  0.00    +0.000 HD
ENDBRANCH   7  18
BRANCH   1  23
ATOM     23  C   UNL     1       7.232   4.569  16.393  0.00  0.00    +0.000 C 
BRANCH  23  26
ATOM     24  C   UNL     1       6.466   3.975  12.935  0.00  0.00    +0.000 A 
ATOM     25  C   UNL     1       6.206   3.684  14.257  0.00  0.00    +0.000 A 
ATOM     26  N   UNL     1       7.047   4.498  14.954  0.00  0.00    +0.000 N 
ATOM     27  N   UNL     1       7.786   5.256  14.121  0.00  0.00    +0.000 NA
ATOM     28  N   UNL     1       7.430   4.951  12.881  0.00  0.00    +0.000 NA
BRANCH  24  29
ATOM     29  C   UNL     1       5.838   3.388  11.700  0.00  0.00    +0.000 C 
BRANCH  29  30
ATOM     30  C   UNL     1       6.478   1.982  11.414  0.00  0.00    +0.000 C 
ATOM     31  F   UNL     1       6.278   1.570  10.142  0.00  0.00    +0.000 F 
ATOM     32  F   UNL     1       7.826   1.994  11.609  0.00  0.00    +0.000 F 
ATOM     33  F   UNL     1       5.997   1.001  12.219  0.00  0.00    +0.000 F 
ENDBRANCH  29  30
BRANCH  29  35
ATOM     34  C   UNL     1       3.514   3.434  10.531  0.00  0.00    +0.000 C 
ATOM     35  C   UNL     1       4.298   3.242  11.830  0.00  0.00    +0.000 C 
ENDBRANCH  29  35
BRANCH  29  36
ATOM     36  O   UNL     1       6.063   4.280  10.570  0.00  0.00    +0.000 OA
ATOM     37  H   UNL     1       5.732   5.159  10.824  0.00  0.00    +0.000 HD
ENDBRANCH  29  36
ENDBRANCH  24  29
ENDBRANCH  23  26
ENDBRANCH   1  23
TORSDOF 8
ENDMDL
MODEL 2
REMARK VINA RESULT:      -8.8      4.932      9.624
REMARK  Name = 
REMARK  9 active torsions:
REMARK  status: ('A' for Active; 'I' for Inactive)
REMARK    1  A    between atoms: C_1  and  C_2
REMARK    2  A    between atoms: C_2  and  C_3
REMARK    3  A    between atoms: C_3  and  O_4
REMARK    4  A    between atoms: C_3  and  C_5
REMARK    5  A    between atoms: C_3  and  C_31
REMARK    6  A    between atoms: N_7  and  C_8
REMARK    7  A    between atoms: C_8  and  C_9
REMARK    8  A    between atoms: C_13  and  C_14
REMARK    9  A    between atoms: C_22  and  C_23
REMARK                            x       y       z     vdW  Elec       q    Type
REMARK                         _______ _______ _______ _____ _____    ______ ____
ROOT
ATOM      1  C   UNL     1       1.379   9.206  19.054  0.00  0.00    +0.000 A 
ATOM      2  C   UNL     1       2.354   9.128  18.072  0.00  0.00    +0.000 A 
ATOM      3  C   UNL     1       3.050   7.941  17.889  0.00  0.00    +0.000 A 
ATOM      4  C   UNL     1       2.892   6.815  18.741  0.00  0.00    +0.000 A 
ATOM      5  C   UNL     1       3.644   5.599  18.634  0.00  0.00    +0.000 A 
ATOM      6  C   UNL     1       3.317   4.569  19.533  0.00  0.00    +0.000 A 
ATOM      7  C   UNL     1       2.311   4.754  20.465  0.00  0.00    +0.000 A 
ATOM      8  N   UNL     1       1.606   5.905  20.596  0.00  0.00    +0.000 NA
ATOM      9  C   UNL     1       1.903   6.908  19.760  0.00  0.00    +0.000 A 
ATOM     10  C   UNL     1       1.176   8.090  19.886  0.00  0.00    +0.000 A 
ENDROOT
BRANCH   5  11
ATOM     11  C   UNL     1       4.748   5.375  17.646  0.00  0.00    +0.000 A 
ATOM     12  C   UNL     1       5.973   6.071  17.716  0.00  0.00    +0.000 A 
ATOM     13  C   UNL     1       6.974   5.927  16.749  0.00  0.00    +0.000 A 
ATOM     14  C   UNL     1       6.830   4.989  15.736  0.00  0.00    +0.000 A 
ATOM     15  C   UNL     1       5.673   4.223  15.679  0.00  0.00    +0.000 A 
ATOM     16  C   UNL     1       4.643   4.436  16.600  0.00  0.00    +0.000 A 
ATOM     17  F   UNL     1       3.532   3.700  16.450  0.00  0.00    +0.000 F 
ENDBRANCH   5  11
BRANCH   7  18
ATOM     18  C   UNL     1       1.977   3.623  21.398  0.00  0.00    +0.000 C 
ATOM     19  N   UNL     1       0.862   2.892  21.084  0.00  0.00    +0.000 N 
ATOM     20  O   UNL     1       2.641   3.359  22.387  0.00  0.00    +0.000 OA
ATOM     21  H   UNL     1       0.314   3.109  20.262  0.00  0.00    +0.000 HD
ATOM     22  H   UNL     1       0.596   2.125  21.689  0.00  0.00    +0.000 HD
ENDBRANCH   7  18
BRANCH   1  23
ATOM     23  C   UNL     1       0.470  10.407  19.092  0.00  0.00    +0.000 C 
BRANCH  23  26
ATOM     24  C   UNL     1       2.461  13.364  19.522  0.00  0.00    +0.000 A 
ATOM     25  C   UNL     1       1.853  12.481  18.658  0.00  0.00    +0.000 A 
ATOM     26  N   UNL     1       1.224  11.588  19.474  0.00  0.00    +0.000 N 
ATOM     27  N   UNL     1       1.422  11.896  20.769  0.00  0.00    +0.000 NA
ATOM     28  N   UNL     1       2.171  12.990  20.811  0.00  0.00    +0.000 NA
BRANCH  24  29
ATOM     29  C   UNL     1       3.302  14.571  19.200  0.00  0.00    +0.000 C 
BRANCH  29  30
ATOM     30  C   UNL     1       2.380  15.842  19.145  0.00  0.00    +0.000 C 
ATOM     31  F   UNL     1       1.220  15.613  18.488  0.00  0.00    +0.000 F 
ATOM     32  F   UNL     1       2.040  16.270  20.392  0.00  0.00    +0.000 F 
ATOM     33  F   UNL     1       2.968  16.903  18.538  0.00  0.00    +0.000 F 
ENDBRANCH  29  30
BRANCH  29  35
ATOM     34  C   UNL     1       5.767  15.273  19.648  0.00  0.00    +0.000 C 
ATOM     35  C   UNL     1       4.438  14.795  20.235  0.00  0.00    +0.000 C 
ENDBRANCH  29  35
BRANCH  29  36
ATOM     36  O   UNL     1       3.962  14.374  17.916  0.00  0.00    +0.000 OA
ATOM     37  H   UNL     1       3.310  13.977  17.312  0.00  0.00    +0.000 HD
ENDBRANCH  29  36
ENDBRANCH  24  29
ENDBRANCH  23  26
ENDBRANCH   1  23
TORSDOF 8
ENDMDL
MODEL 3
REMARK VINA RESULT:      -8.8      4.654      9.056
REMARK  Name = 
REMARK  9 active torsions:
REMARK  status: ('A' for Active; 'I' for Inactive)
REMARK    1  A    between atoms: C_1  and  C_2
REMARK    2  A    between atoms: C_2  and  C_3
REMARK    3  A    between atoms: C_3  and  O_4
REMARK    4  A    between atoms: C_3  and  C_5
REMARK    5  A    between atoms: C_3  and  C_31
REMARK    6  A    between atoms: N_7  and  C_8
REMARK    7  A    between atoms: C_8  and  C_9
REMARK    8  A    between atoms: C_13  and  C_14
REMARK    9  A    between atoms: C_22  and  C_23
REMARK                            x       y       z     vdW  Elec       q    Type
REMARK                         _______ _______ _______ _____ _____    ______ ____
ROOT
ATOM      1  C   UNL     1       1.464   9.273  19.972  0.00  0.00    +0.000 A 
ATOM      2  C   UNL     1       2.201   9.287  18.799  0.00  0.00    +0.000 A 
ATOM      3  C   UNL     1       2.702   8.098  18.290  0.00  0.00    +0.000 A 
ATOM      4  C   UNL     1       2.591   6.858  18.975  0.00  0.00    +0.000 A 
ATOM      5  C   UNL     1       3.158   5.622  18.521  0.00  0.00    +0.000 A 
ATOM      6  C   UNL     1       2.904   4.481  19.303  0.00  0.00    +0.000 A 
ATOM      7  C   UNL     1       2.137   4.583  20.451  0.00  0.00    +0.000 A 
ATOM      8  N   UNL     1       1.614   5.748  20.908  0.00  0.00    +0.000 NA
ATOM      9  C   UNL     1       1.849   6.853  20.188  0.00  0.00    +0.000 A 
ATOM     10  C   UNL     1       1.306   8.050  20.650  0.00  0.00    +0.000 A 
ENDROOT
BRANCH   5  11
ATOM     11  C   UNL     1       4.003   5.483  17.291  0.00  0.00    +0.000 A 
ATOM     12  C   UNL     1       4.695   6.575  16.726  0.00  0.00    +0.000 A 
ATOM     13  C   UNL     1       5.416   6.469  15.533  0.00  0.00    +0.000 A 
ATOM     14  C   UNL     1       5.569   5.233  14.921  0.00  0.00    +0.000 A 
ATOM     15  C   UNL     1       4.972   4.115  15.491  0.00  0.00    +0.000 A 
ATOM     16  C   UNL     1       4.182   4.248  16.636  0.00  0.00    +0.000 A 
ATOM     17  F   UNL     1       3.590   3.136  17.098  0.00  0.00    +0.000 F 
ENDBRANCH   5  11
BRANCH   7  18
ATOM     18  C   UNL     1       1.872   3.339  21.252  0.00  0.00    +0.000 C 
ATOM     19  N   UNL     1       0.716   2.666  20.955  0.00  0.00    +0.000 N 
ATOM     20  O   UNL     1       2.623   2.938  22.126  0.00  0.00    +0.000 OA
ATOM     21  H   UNL     1       0.096   2.997  20.228  0.00  0.00    +0.000 HD
ATOM     22  H   UNL     1       0.494   1.826  21.475  0.00  0.00    +0.000 HD
ENDBRANCH   7  18
BRANCH   1  23
ATOM     23  C   UNL     1       0.728  10.520  20.392  0.00  0.00    +0.000 C 
BRANCH  23  26
ATOM     24  C   UNL     1      -1.851  10.911  17.923  0.00  0.00    +0.000 A 
ATOM     25  C   UNL     1      -1.274  10.124  18.897  0.00  0.00    +0.000 A 
ATOM     26  N   UNL     1      -0.250  10.882  19.381  0.00  0.00    +0.000 N 
ATOM     27  N   UNL     1      -0.192  12.072  18.753  0.00  0.00    +0.000 NA
ATOM     28  N   UNL     1      -1.176  12.104  17.865  0.00  0.00    +0.000 NA
BRANCH  24  29
ATOM     29  C   UNL     1      -3.031  10.604  17.040  0.00  0.00    +0.000 C 
BRANCH  29  30
ATOM     30  C   UNL     1      -4.297  11.352  17.594  0.00  0.00    +0.000 C 
ATOM     31  F   UNL     1      -4.020  12.101  18.686  0.00  0.00    +0.000 F 
ATOM     32  F   UNL     1      -4.826  12.199  16.669  0.00  0.00    +0.000 F 
ATOM     33  F   UNL     1      -5.303  10.512  17.945  0.00  0.00    +0.000 F 
ENDBRANCH  29  30
BRANCH  29  35
ATOM     34  C   UNL     1      -3.354  10.052  14.519  0.00  0.00    +0.000 C 
ATOM     35  C   UNL     1      -2.788  11.016  15.563  0.00  0.00    +0.000 C 
ENDBRANCH  29  35
BRANCH  29  36
ATOM     36  O   UNL     1      -3.265   9.166  17.024  0.00  0.00    +0.000 OA
ATOM     37  H   UNL     1      -2.491   8.751  16.605  0.00  0.00    +0.000 HD
ENDBRANCH  29  36
ENDBRANCH  24  29
ENDBRANCH  23  26
ENDBRANCH   1  23
TORSDOF 8
ENDMDL
MODEL 4
REMARK VINA RESULT:      -8.8      4.818      9.428
REMARK  Name = 
REMARK  9 active torsions:
REMARK  status: ('A' for Active; 'I' for Inactive)
REMARK    1  A    between atoms: C_1  and  C_2
REMARK    2  A    between atoms: C_2  and  C_3
REMARK    3  A    between atoms: C_3  and  O_4
REMARK    4  A    between atoms: C_3  and  C_5
REMARK    5  A    between atoms: C_3  and  C_31
REMARK    6  A    between atoms: N_7  and  C_8
REMARK    7  A    between atoms: C_8  and  C_9
REMARK    8  A    between atoms: C_13  and  C_14
REMARK    9  A    between atoms: C_22  and  C_23
REMARK                            x       y       z     vdW  Elec       q    Type
REMARK                         _______ _______ _______ _____ _____    ______ ____
ROOT
ATOM      1  C   UNL     1       1.260   8.679  19.539  0.00  0.00    +0.000 A 
ATOM      2  C   UNL     1       2.187   8.728  18.510  0.00  0.00    +0.000 A 
ATOM      3  C   UNL     1       2.956   7.608  18.226  0.00  0.00    +0.000 A 
ATOM      4  C   UNL     1       2.921   6.428  19.017  0.00  0.00    +0.000 A 
ATOM      5  C   UNL     1       3.751   5.279  18.803  0.00  0.00    +0.000 A 
ATOM      6  C   UNL     1       3.544   4.179  19.654  0.00  0.00    +0.000 A 
ATOM      7  C   UNL     1       2.574   4.237  20.640  0.00  0.00    +0.000 A 
ATOM      8  N   UNL     1       1.797   5.323  20.871  0.00  0.00    +0.000 NA
ATOM      9  C   UNL     1       1.980   6.391  20.083  0.00  0.00    +0.000 A 
ATOM     10  C   UNL     1       1.178   7.506  20.312  0.00  0.00    +0.000 A 
ENDROOT
BRANCH   5  11
ATOM     11  C   UNL     1       4.818   5.192  17.754  0.00  0.00    +0.000 A 
ATOM     12  C   UNL     1       4.534   4.824  16.422  0.00  0.00    +0.000 A 
ATOM     13  C   UNL     1       5.537   4.661  15.460  0.00  0.00    +0.000 A 
ATOM     14  C   UNL     1       6.853   4.975  15.768  0.00  0.00    +0.000 A 
ATOM     15  C   UNL     1       7.163   5.421  17.047  0.00  0.00    +0.000 A 
ATOM     16  C   UNL     1       6.167   5.498  18.025  0.00  0.00    +0.000 A 
ATOM     17  F   UNL     1       6.549   5.882  19.252  0.00  0.00    +0.000 F 
ENDBRANCH   5  11
BRANCH   7  18
ATOM     18  C   UNL     1       2.369   3.034  21.519  0.00  0.00    +0.000 C 
ATOM     19  N   UNL     1       1.082   2.796  21.923  0.00  0.00    +0.000 N 
ATOM     20  O   UNL     1       3.281   2.304  21.871  0.00  0.00    +0.000 OA
ATOM     21  H   UNL     1       0.325   3.399  21.627  0.00  0.00    +0.000 HD
ATOM     22  H   UNL     1       0.898   2.000  22.521  0.00  0.00    +0.000 HD
ENDBRANCH   7  18
BRANCH   1  23
ATOM     23  C   UNL     1       0.270   9.806  19.689  0.00  0.00    +0.000 C 
BRANCH  23  26
ATOM     24  C   UNL     1       2.077  12.908  19.615  0.00  0.00    +0.000 A 
ATOM     25  C   UNL     1       1.442  11.909  18.911  0.00  0.00    +0.000 A 
ATOM     26  N   UNL     1       0.974  11.063  19.872  0.00  0.00    +0.000 N 
ATOM     27  N   UNL     1       1.292  11.508  21.102  0.00  0.00    +0.000 NA
ATOM     28  N   UNL     1       1.958  12.645  20.957  0.00  0.00    +0.000 NA
BRANCH  24  29
ATOM     29  C   UNL     1       2.787  14.127  19.089  0.00  0.00    +0.000 C 
BRANCH  29  30
ATOM     30  C   UNL     1       1.751  15.297  18.925  0.00  0.00    +0.000 C 
ATOM     31  F   UNL     1       1.538  15.967  20.080  0.00  0.00    +0.000 F 
ATOM     32  F   UNL     1       2.173  16.218  18.015  0.00  0.00    +0.000 F 
ATOM     33  F   UNL     1       0.536  14.878  18.490  0.00  0.00    +0.000 F 
ENDBRANCH  29  30
BRANCH  29  35
ATOM     34  C   UNL     1       5.183  15.119  19.296  0.00  0.00    +0.000 C 
ATOM     35  C   UNL     1       3.945  14.584  20.017  0.00  0.00    +0.000 C 
ENDBRANCH  29  35
BRANCH  29  36
ATOM     36  O   UNL     1       3.400  13.815  17.805  0.00  0.00    +0.000 OA
ATOM     37  H   UNL     1       3.170  14.534  17.191  0.00  0.00    +0.000 HD
ENDBRANCH  29  36
ENDBRANCH  24  29
ENDBRANCH  23  26
ENDBRANCH   1  23
TORSDOF 8
ENDMDL
MODEL 5
REMARK VINA RESULT:      -8.6      5.080      9.338
REMARK  Name = 
REMARK  9 active torsions:
REMARK  status: ('A' for Active; 'I' for Inactive)
REMARK    1  A    between atoms: C_1  and  C_2
REMARK    2  A    between atoms: C_2  and  C_3
REMARK    3  A    between atoms: C_3  and  O_4
REMARK    4  A    between atoms: C_3  and  C_5
REMARK    5  A    between atoms: C_3  and  C_31
REMARK    6  A    between atoms: N_7  and  C_8
REMARK    7  A    between atoms: C_8  and  C_9
REMARK    8  A    between atoms: C_13  and  C_14
REMARK    9  A    between atoms: C_22  and  C_23
REMARK                            x       y       z     vdW  Elec       q    Type
REMARK                         _______ _______ _______ _____ _____    ______ ____
ROOT
ATOM      1  C   UNL     1       1.506   9.786  18.913  0.00  0.00    +0.000 A 
ATOM      2  C   UNL     1       0.973   8.909  19.844  0.00  0.00    +0.000 A 
ATOM      3  C   UNL     1       1.416   7.594  19.879  0.00  0.00    +0.000 A 
ATOM      4  C   UNL     1       2.325   7.061  18.926  0.00  0.00    +0.000 A 
ATOM      5  C   UNL     1       2.750   5.692  18.882  0.00  0.00    +0.000 A 
ATOM      6  C   UNL     1       3.696   5.352  17.899  0.00  0.00    +0.000 A 
ATOM      7  C   UNL     1       4.172   6.319  17.030  0.00  0.00    +0.000 A 
ATOM      8  N   UNL     1       3.763   7.612  17.042  0.00  0.00    +0.000 NA
ATOM      9  C   UNL     1       2.855   7.962  17.962  0.00  0.00    +0.000 A 
ATOM     10  C   UNL     1       2.438   9.292  17.983  0.00  0.00    +0.000 A 
ENDROOT
BRANCH   5  11
ATOM     11  C   UNL     1       2.242   4.621  19.799  0.00  0.00    +0.000 A 
ATOM     12  C   UNL     1       2.692   4.495  21.130  0.00  0.00    +0.000 A 
ATOM     13  C   UNL     1       2.284   3.448  21.964  0.00  0.00    +0.000 A 
ATOM     14  C   UNL     1       1.316   2.553  21.530  0.00  0.00    +0.000 A 
ATOM     15  C   UNL     1       0.785   2.692  20.253  0.00  0.00    +0.000 A 
ATOM     16  C   UNL     1       1.263   3.690  19.399  0.00  0.00    +0.000 A 
ATOM     17  F   UNL     1       0.746   3.729  18.162  0.00  0.00    +0.000 F 
ENDBRANCH   5  11
BRANCH   7  18
ATOM     18  C   UNL     1       5.196   5.922  16.003  0.00  0.00    +0.000 C 
ATOM     19  N   UNL     1       5.668   4.639  16.087  0.00  0.00    +0.000 N 
ATOM     20  O   UNL     1       5.602   6.684  15.141  0.00  0.00    +0.000 OA
ATOM     21  H   UNL     1       5.328   4.007  16.799  0.00  0.00    +0.000 HD
ATOM     22  H   UNL     1       6.364   4.332  15.419  0.00  0.00    +0.000 HD
ENDBRANCH   7  18
BRANCH   1  23
ATOM     23  C   UNL     1       1.198  11.257  19.031  0.00  0.00    +0.000 C 
BRANCH  23  26
ATOM     24  C   UNL     1      -2.235  11.427  17.993  0.00  0.00    +0.000 A 
ATOM     25  C   UNL     1      -1.049  10.726  17.999  0.00  0.00    +0.000 A 
ATOM     26  N   UNL     1      -0.205  11.495  18.743  0.00  0.00    +0.000 N 
ATOM     27  N   UNL     1      -0.825  12.607  19.181  0.00  0.00    +0.000 NA
ATOM     28  N   UNL     1      -2.074  12.570  18.736  0.00  0.00    +0.000 NA
BRANCH  24  29
ATOM     29  C   UNL     1      -3.539  11.070  17.330  0.00  0.00    +0.000 C 
BRANCH  29  30
ATOM     30  C   UNL     1      -3.246  10.474  15.906  0.00  0.00    +0.000 C 
ATOM     31  F   UNL     1      -4.370  10.316  15.170  0.00  0.00    +0.000 F 
ATOM     32  F   UNL     1      -2.421  11.280  15.183  0.00  0.00    +0.000 F 
ATOM     33  F   UNL     1      -2.637   9.263  15.948  0.00  0.00    +0.000 F 
ENDBRANCH  29  30
BRANCH  29  35
ATOM     34  C   UNL     1      -5.826  10.439  18.397  0.00  0.00    +0.000 C 
ATOM     35  C   UNL     1      -4.366  10.052  18.161  0.00  0.00    +0.000 C 
ENDBRANCH  29  35
BRANCH  29  36
ATOM     36  O   UNL     1      -4.368  12.262  17.215  0.00  0.00    +0.000 OA
ATOM     37  H   UNL     1      -5.054  12.076  16.551  0.00  0.00    +0.000 HD
ENDBRANCH  29  36
ENDBRANCH  24  29
ENDBRANCH  23  26
ENDBRANCH   1  23
TORSDOF 8
ENDMDL
MODEL 6
REMARK VINA RESULT:      -8.5      4.889      9.408
REMARK  Name = 
REMARK  9 active torsions:
REMARK  status: ('A' for Active; 'I' for Inactive)
REMARK    1  A    between atoms: C_1  and  C_2
REMARK    2  A    between atoms: C_2  and  C_3
REMARK    3  A    between atoms: C_3  and  O_4
REMARK    4  A    between atoms: C_3  and  C_5
REMARK    5  A    between atoms: C_3  and  C_31
REMARK    6  A    between atoms: N_7  and  C_8
REMARK    7  A    between atoms: C_8  and  C_9
REMARK    8  A    between atoms: C_13  and  C_14
REMARK    9  A    between atoms: C_22  and  C_23
REMARK                            x       y       z     vdW  Elec       q    Type
REMARK                         _______ _______ _______ _____ _____    ______ ____
ROOT
ATOM      1  C   UNL     1       1.330   9.195  18.954  0.00  0.00    +0.000 A 
ATOM      2  C   UNL     1       2.349   9.127  18.017  0.00  0.00    +0.000 A 
ATOM      3  C   UNL     1       3.079   7.954  17.882  0.00  0.00    +0.000 A 
ATOM      4  C   UNL     1       2.907   6.836  18.741  0.00  0.00    +0.000 A 
ATOM      5  C   UNL     1       3.690   5.636  18.683  0.00  0.00    +0.000 A 
ATOM      6  C   UNL     1       3.345   4.609  19.580  0.00  0.00    +0.000 A 
ATOM      7  C   UNL     1       2.294   4.783  20.463  0.00  0.00    +0.000 A 
ATOM      8  N   UNL     1       1.559   5.919  20.548  0.00  0.00    +0.000 NA
ATOM      9  C   UNL     1       1.872   6.919  19.712  0.00  0.00    +0.000 A 
ATOM     10  C   UNL     1       1.114   8.085  19.790  0.00  0.00    +0.000 A 
ENDROOT
BRANCH   5  11
ATOM     11  C   UNL     1       4.842   5.424  17.748  0.00  0.00    +0.000 A 
ATOM     12  C   UNL     1       4.658   5.170  16.373  0.00  0.00    +0.000 A 
ATOM     13  C   UNL     1       5.725   4.890  15.513  0.00  0.00    +0.000 A 
ATOM     14  C   UNL     1       7.030   4.970  15.977  0.00  0.00    +0.000 A 
ATOM     15  C   UNL     1       7.259   5.299  17.308  0.00  0.00    +0.000 A 
ATOM     16  C   UNL     1       6.182   5.493  18.178  0.00  0.00    +0.000 A 
ATOM     17  F   UNL     1       6.478   5.751  19.461  0.00  0.00    +0.000 F 
ENDBRANCH   5  11
BRANCH   7  18
ATOM     18  C   UNL     1       1.943   3.656  21.395  0.00  0.00    +0.000 C 
ATOM     19  N   UNL     1       0.836   2.922  21.064  0.00  0.00    +0.000 N 
ATOM     20  O   UNL     1       2.588   3.398  22.399  0.00  0.00    +0.000 OA
ATOM     21  H   UNL     1       0.304   3.134  20.230  0.00  0.00    +0.000 HD
ATOM     22  H   UNL     1       0.559   2.157  21.667  0.00  0.00    +0.000 HD
ENDBRANCH   7  18
BRANCH   1  23
ATOM     23  C   UNL     1       0.394  10.376  18.935  0.00  0.00    +0.000 C 
BRANCH  23  26
ATOM     24  C   UNL     1       2.079  13.457  19.682  0.00  0.00    +0.000 A 
ATOM     25  C   UNL     1       1.400  12.690  18.761  0.00  0.00    +0.000 A 
ATOM     26  N   UNL     1       1.073  11.556  19.441  0.00  0.00    +0.000 N 
ATOM     27  N   UNL     1       1.515  11.611  20.712  0.00  0.00    +0.000 NA
ATOM     28  N   UNL     1       2.124  12.778  20.874  0.00  0.00    +0.000 NA
BRANCH  24  29
ATOM     29  C   UNL     1       2.685  14.825  19.507  0.00  0.00    +0.000 C 
BRANCH  29  30
ATOM     30  C   UNL     1       3.758  14.770  18.361  0.00  0.00    +0.000 C 
ATOM     31  F   UNL     1       3.302  15.290  17.199  0.00  0.00    +0.000 F 
ATOM     32  F   UNL     1       4.877  15.474  18.686  0.00  0.00    +0.000 F 
ATOM     33  F   UNL     1       4.180  13.511  18.083  0.00  0.00    +0.000 F 
ENDBRANCH  29  30
BRANCH  29  35
ATOM     34  C   UNL     1       2.014  17.338  19.536  0.00  0.00    +0.000 C 
ATOM     35  C   UNL     1       1.621  15.905  19.173  0.00  0.00    +0.000 C 
ENDBRANCH  29  35
BRANCH  29  36
ATOM     36  O   UNL     1       3.305  15.244  20.756  0.00  0.00    +0.000 OA
ATOM     37  H   UNL     1       4.259  15.067  20.681  0.00  0.00    +0.000 HD
ENDBRANCH  29  36
ENDBRANCH  24  29
ENDBRANCH  23  26
ENDBRANCH   1  23
TORSDOF 8
ENDMDL
MODEL 7
REMARK VINA RESULT:      -8.5      4.804     10.357
REMARK  Name = 
REMARK  9 active torsions:
REMARK  status: ('A' for Active; 'I' for Inactive)
REMARK    1  A    between atoms: C_1  and  C_2
REMARK    2  A    between atoms: C_2  and  C_3
REMARK    3  A    between atoms: C_3  and  O_4
REMARK    4  A    between atoms: C_3  and  C_5
REMARK    5  A    between atoms: C_3  and  C_31
REMARK    6  A    between atoms: N_7  and  C_8
REMARK    7  A    between atoms: C_8  and  C_9
REMARK    8  A    between atoms: C_13  and  C_14
REMARK    9  A    between atoms: C_22  and  C_23
REMARK                            x       y       z     vdW  Elec       q    Type
REMARK                         _______ _______ _______ _____ _____    ______ ____
ROOT
ATOM      1  C   UNL     1       1.738   8.935  18.579  0.00  0.00    +0.000 A 
ATOM      2  C   UNL     1       2.794   8.759  17.698  0.00  0.00    +0.000 A 
ATOM      3  C   UNL     1       3.455   7.539  17.657  0.00  0.00    +0.000 A 
ATOM      4  C   UNL     1       3.174   6.478  18.559  0.00  0.00    +0.000 A 
ATOM      5  C   UNL     1       3.883   5.233  18.599  0.00  0.00    +0.000 A 
ATOM      6  C   UNL     1       3.434   4.276  19.526  0.00  0.00    +0.000 A 
ATOM      7  C   UNL     1       2.356   4.557  20.346  0.00  0.00    +0.000 A 
ATOM      8  N   UNL     1       1.689   5.738  20.340  0.00  0.00    +0.000 NA
ATOM      9  C   UNL     1       2.102   6.673  19.473  0.00  0.00    +0.000 A 
ATOM     10  C   UNL     1       1.415   7.884  19.456  0.00  0.00    +0.000 A 
ENDROOT
BRANCH   5  11
ATOM     11  C   UNL     1       5.063   4.906  17.734  0.00  0.00    +0.000 A 
ATOM     12  C   UNL     1       4.918   4.445  16.408  0.00  0.00    +0.000 A 
ATOM     13  C   UNL     1       6.011   4.060  15.625  0.00  0.00    +0.000 A 
ATOM     14  C   UNL     1       7.303   4.232  16.104  0.00  0.00    +0.000 A 
ATOM     15  C   UNL     1       7.492   4.761  17.375  0.00  0.00    +0.000 A 
ATOM     16  C   UNL     1       6.390   5.062  18.180  0.00  0.00    +0.000 A 
ATOM     17  F   UNL     1       6.648   5.515  19.417  0.00  0.00    +0.000 F 
ENDBRANCH   5  11
BRANCH   7  18
ATOM     18  C   UNL     1       1.893   3.503  21.313  0.00  0.00    +0.000 C 
ATOM     19  N   UNL     1       0.740   2.842  20.979  0.00  0.00    +0.000 N 
ATOM     20  O   UNL     1       2.489   3.240  22.346  0.00  0.00    +0.000 OA
ATOM     21  H   UNL     1       0.249   3.058  20.121  0.00  0.00    +0.000 HD
ATOM     22  H   UNL     1       0.389   2.129  21.605  0.00  0.00    +0.000 HD
ENDBRANCH   7  18
BRANCH   1  23
ATOM     23  C   UNL     1       0.878  10.167  18.456  0.00  0.00    +0.000 C 
BRANCH  23  26
ATOM     24  C   UNL     1      -0.442  11.632  21.457  0.00  0.00    +0.000 A 
ATOM     25  C   UNL     1      -0.503  11.523  20.085  0.00  0.00    +0.000 A 
ATOM     26  N   UNL     1       0.468  10.619  19.774  0.00  0.00    +0.000 N 
ATOM     27  N   UNL     1       1.096  10.184  20.883  0.00  0.00    +0.000 NA
ATOM     28  N   UNL     1       0.538  10.790  21.922  0.00  0.00    +0.000 NA
BRANCH  24  29
ATOM     29  C   UNL     1      -1.278  12.485  22.373  0.00  0.00    +0.000 C 
BRANCH  29  30
ATOM     30  C   UNL     1      -0.659  13.928  22.441  0.00  0.00    +0.000 C 
ATOM     31  F   UNL     1      -1.233  14.780  21.562  0.00  0.00    +0.000 F 
ATOM     32  F   UNL     1      -0.813  14.484  23.675  0.00  0.00    +0.000 F 
ATOM     33  F   UNL     1       0.674  13.951  22.189  0.00  0.00    +0.000 F 
ENDBRANCH  29  30
BRANCH  29  35
ATOM     34  C   UNL     1      -3.782  12.715  23.039  0.00  0.00    +0.000 C 
ATOM     35  C   UNL     1      -2.758  12.574  21.912  0.00  0.00    +0.000 C 
ENDBRANCH  29  35
BRANCH  29  36
ATOM     36  O   UNL     1      -1.306  11.888  23.701  0.00  0.00    +0.000 OA
ATOM     37  H   UNL     1      -0.384  11.749  23.977  0.00  0.00    +0.000 HD
ENDBRANCH  29  36
ENDBRANCH  24  29
ENDBRANCH  23  26
ENDBRANCH   1  23
TORSDOF 8
ENDMDL
MODEL 8
REMARK VINA RESULT:      -8.5      4.884      9.604
REMARK  Name = 
REMARK  9 active torsions:
REMARK  status: ('A' for Active; 'I' for Inactive)
REMARK    1  A    between atoms: C_1  and  C_2
REMARK    2  A    between atoms: C_2  and  C_3
REMARK    3  A    between atoms: C_3  and  O_4
REMARK    4  A    between atoms: C_3  and  C_5
REMARK    5  A    between atoms: C_3  and  C_31
REMARK    6  A    between atoms: N_7  and  C_8
REMARK    7  A    between atoms: C_8  and  C_9
REMARK    8  A    between atoms: C_13  and  C_14
REMARK    9  A    between atoms: C_22  and  C_23
REMARK                            x       y       z     vdW  Elec       q    Type
REMARK                         _______ _______ _______ _____ _____    ______ ____
ROOT
ATOM      1  C   UNL     1       1.680   9.706  18.825  0.00  0.00    +0.000 A 
ATOM      2  C   UNL     1       1.095   8.814  19.711  0.00  0.00    +0.000 A 
ATOM      3  C   UNL     1       1.541   7.501  19.756  0.00  0.00    +0.000 A 
ATOM      4  C   UNL     1       2.508   6.983  18.853  0.00  0.00    +0.000 A 
ATOM      5  C   UNL     1       2.941   5.616  18.817  0.00  0.00    +0.000 A 
ATOM      6  C   UNL     1       3.945   5.293  17.887  0.00  0.00    +0.000 A 
ATOM      7  C   UNL     1       4.468   6.272  17.062  0.00  0.00    +0.000 A 
ATOM      8  N   UNL     1       4.054   7.563  17.065  0.00  0.00    +0.000 NA
ATOM      9  C   UNL     1       3.090   7.899  17.934  0.00  0.00    +0.000 A 
ATOM     10  C   UNL     1       2.668   9.226  17.946  0.00  0.00    +0.000 A 
ENDROOT
BRANCH   5  11
ATOM     11  C   UNL     1       2.383   4.532  19.688  0.00  0.00    +0.000 A 
ATOM     12  C   UNL     1       2.734   4.404  21.048  0.00  0.00    +0.000 A 
ATOM     13  C   UNL     1       2.282   3.346  21.843  0.00  0.00    +0.000 A 
ATOM     14  C   UNL     1       1.363   2.438  21.333  0.00  0.00    +0.000 A 
ATOM     15  C   UNL     1       0.927   2.577  20.021  0.00  0.00    +0.000 A 
ATOM     16  C   UNL     1       1.451   3.588  19.210  0.00  0.00    +0.000 A 
ATOM     17  F   UNL     1       1.028   3.626  17.938  0.00  0.00    +0.000 F 
ENDBRANCH   5  11
BRANCH   7  18
ATOM     18  C   UNL     1       5.553   5.893  16.093  0.00  0.00    +0.000 C 
ATOM     19  N   UNL     1       5.210   4.981  15.130  0.00  0.00    +0.000 N 
ATOM     20  O   UNL     1       6.683   6.351  16.146  0.00  0.00    +0.000 OA
ATOM     21  H   UNL     1       4.272   4.604  15.084  0.00  0.00    +0.000 HD
ATOM     22  H   UNL     1       5.912   4.691  14.460  0.00  0.00    +0.000 HD
ENDBRANCH   7  18
BRANCH   1  23
ATOM     23  C   UNL     1       1.359  11.174  18.944  0.00  0.00    +0.000 C 
BRANCH  23  26
ATOM     24  C   UNL     1      -2.073  11.244  17.889  0.00  0.00    +0.000 A 
ATOM     25  C   UNL     1      -0.977  10.492  18.251  0.00  0.00    +0.000 A 
ATOM     26  N   UNL     1      -0.019  11.413  18.551  0.00  0.00    +0.000 N 
ATOM     27  N   UNL     1      -0.487  12.666  18.392  0.00  0.00    +0.000 NA
ATOM     28  N   UNL     1      -1.749  12.574  17.996  0.00  0.00    +0.000 NA
BRANCH  24  29
ATOM     29  C   UNL     1      -3.436  10.775  17.454  0.00  0.00    +0.000 C 
BRANCH  29  30
ATOM     30  C   UNL     1      -4.528  11.480  18.337  0.00  0.00    +0.000 C 
ATOM     31  F   UNL     1      -5.090  12.542  17.716  0.00  0.00    +0.000 F 
ATOM     32  F   UNL     1      -5.547  10.631  18.649  0.00  0.00    +0.000 F 
ATOM     33  F   UNL     1      -4.048  11.933  19.522  0.00  0.00    +0.000 F 
ENDBRANCH  29  30
BRANCH  29  35
ATOM     34  C   UNL     1      -2.993  10.140  14.971  0.00  0.00    +0.000 C 
ATOM     35  C   UNL     1      -3.711  11.065  15.954  0.00  0.00    +0.000 C 
ENDBRANCH  29  35
BRANCH  29  36
ATOM     36  O   UNL     1      -3.523   9.329  17.607  0.00  0.00    +0.000 OA
ATOM     37  H   UNL     1      -4.465   9.103  17.700  0.00  0.00    +0.000 HD
ENDBRANCH  29  36
ENDBRANCH  24  29
ENDBRANCH  23  26
ENDBRANCH   1  23
TORSDOF 8
ENDMDL
MODEL 9
REMARK VINA RESULT:      -8.4      4.520      8.698
REMARK  Name = 
REMARK  9 active torsions:
REMARK  status: ('A' for Active; 'I' for Inactive)
REMARK    1  A    between atoms: C_1  and  C_2
REMARK    2  A    between atoms: C_2  and  C_3
REMARK    3  A    between atoms: C_3  and  O_4
REMARK    4  A    between atoms: C_3  and  C_5
REMARK    5  A    between atoms: C_3  and  C_31
REMARK    6  A    between atoms: N_7  and  C_8
REMARK    7  A    between atoms: C_8  and  C_9
REMARK    8  A    between atoms: C_13  and  C_14
REMARK    9  A    between atoms: C_22  and  C_23
REMARK                            x       y       z     vdW  Elec       q    Type
REMARK                         _______ _______ _______ _____ _____    ______ ____
ROOT
ATOM      1  C   UNL     1       1.374   8.810  20.434  0.00  0.00    +0.000 A 
ATOM      2  C   UNL     1       2.037   8.928  19.223  0.00  0.00    +0.000 A 
ATOM      3  C   UNL     1       2.606   7.804  18.641  0.00  0.00    +0.000 A 
ATOM      4  C   UNL     1       2.641   6.537  19.283  0.00  0.00    +0.000 A 
ATOM      5  C   UNL     1       3.284   5.371  18.751  0.00  0.00    +0.000 A 
ATOM      6  C   UNL     1       3.173   4.187  19.501  0.00  0.00    +0.000 A 
ATOM      7  C   UNL     1       2.470   4.183  20.693  0.00  0.00    +0.000 A 
ATOM      8  N   UNL     1       1.877   5.282  21.223  0.00  0.00    +0.000 NA
ATOM      9  C   UNL     1       1.975   6.427  20.535  0.00  0.00    +0.000 A 
ATOM     10  C   UNL     1       1.360   7.556  21.072  0.00  0.00    +0.000 A 
ENDROOT
BRANCH   5  11
ATOM     11  C   UNL     1       4.064   5.347  17.471  0.00  0.00    +0.000 A 
ATOM     12  C   UNL     1       4.608   6.517  16.901  0.00  0.00    +0.000 A 
ATOM     13  C   UNL     1       5.265   6.513  15.666  0.00  0.00    +0.000 A 
ATOM     14  C   UNL     1       5.503   5.313  15.010  0.00  0.00    +0.000 A 
ATOM     15  C   UNL     1       5.055   4.128  15.580  0.00  0.00    +0.000 A 
ATOM     16  C   UNL     1       4.326   4.153  16.771  0.00  0.00    +0.000 A 
ATOM     17  F   UNL     1       3.876   2.976  17.233  0.00  0.00    +0.000 F 
ENDBRANCH   5  11
BRANCH   7  18
ATOM     18  C   UNL     1       2.358   2.895  21.459  0.00  0.00    +0.000 C 
ATOM     19  N   UNL     1       1.108   2.572  21.918  0.00  0.00    +0.000 N 
ATOM     20  O   UNL     1       3.312   2.166  21.679  0.00  0.00    +0.000 OA
ATOM     21  H   UNL     1       0.316   3.174  21.733  0.00  0.00    +0.000 HD
ATOM     22  H   UNL     1       0.988   1.716  22.445  0.00  0.00    +0.000 HD
ENDBRANCH   7  18
BRANCH   1  23
ATOM     23  C   UNL     1       0.560   9.973  20.941  0.00  0.00    +0.000 C 
BRANCH  23  26
ATOM     24  C   UNL     1      -1.541  11.057  18.239  0.00  0.00    +0.000 A 
ATOM     25  C   UNL     1      -1.318  10.156  19.257  0.00  0.00    +0.000 A 
ATOM     26  N   UNL     1      -0.166  10.587  19.843  0.00  0.00    +0.000 N 
ATOM     27  N   UNL     1       0.302  11.692  19.233  0.00  0.00    +0.000 NA
ATOM     28  N   UNL     1      -0.540  11.995  18.254  0.00  0.00    +0.000 NA
BRANCH  24  29
ATOM     29  C   UNL     1      -2.670  11.094  17.244  0.00  0.00    +0.000 C 
BRANCH  29  30
ATOM     30  C   UNL     1      -2.915   9.646  16.686  0.00  0.00    +0.000 C 
ATOM     31  F   UNL     1      -3.678   8.895  17.512  0.00  0.00    +0.000 F 
ATOM     32  F   UNL     1      -3.555   9.671  15.485  0.00  0.00    +0.000 F 
ATOM     33  F   UNL     1      -1.768   8.951  16.480  0.00  0.00    +0.000 F 
ENDBRANCH  29  30
BRANCH  29  35
ATOM     34  C   UNL     1      -5.094  11.956  16.855  0.00  0.00    +0.000 C 
ATOM     35  C   UNL     1      -3.985  11.644  17.861  0.00  0.00    +0.000 C 
ENDBRANCH  29  35
BRANCH  29  36
ATOM     36  O   UNL     1      -2.328  12.000  16.155  0.00  0.00    +0.000 OA
ATOM     37  H   UNL     1      -1.990  11.458  15.422  0.00  0.00    +0.000 HD
ENDBRANCH  29  36
ENDBRANCH  24  29
ENDBRANCH  23  26
ENDBRANCH   1  23
TORSDOF 8
ENDMDL
