MODEL 1
REMARK VINA RESULT:      -7.1      0.000      0.000
REMARK  Name = 
REMARK  6 active torsions:
REMARK  status: ('A' for Active; 'I' for Inactive)
REMARK    1  A    between atoms: C_1  and  C_2
REMARK    2  A    between atoms: N_7  and  C_8
REMARK    3  A    between atoms: C_8  and  C_9
REMARK    4  A    between atoms: C_9  and  N_10
REMARK    5  A    between atoms: N_10  and  C_11
REMARK    6  A    between atoms: N_10  and  C_12
REMARK                            x       y       z     vdW  Elec       q    Type
REMARK                         _______ _______ _______ _____ _____    ______ ____
ROOT
ATOM      1  C   UNL     1       5.843   3.507  15.189  0.00  0.00    +0.000 C 
ATOM      2  C   UNL     1       5.191   4.664  15.910  0.00  0.00    +0.000 A 
ATOM      3  C   UNL     1       5.446   5.990  15.416  0.00  0.00    +0.000 A 
ATOM      4  C   UNL     1       4.918   7.164  15.994  0.00  0.00    +0.000 A 
ATOM      5  C   UNL     1       4.109   6.926  17.113  0.00  0.00    +0.000 A 
ATOM      6  N   UNL     1       3.464   7.793  17.895  0.00  0.00    +0.000 NA
ATOM      7  N   UNL     1       2.800   7.040  18.807  0.00  0.00    +0.000 N 
ATOM      8  C   UNL     1       3.021   5.678  18.689  0.00  0.00    +0.000 A 
ATOM      9  C   UNL     1       3.858   5.599  17.588  0.00  0.00    +0.000 A 
ATOM     10  C   UNL     1       4.360   4.419  17.039  0.00  0.00    +0.000 A 
ATOM     11  S   UNL     1       3.969   2.849  17.710  0.00  0.00    +0.000 S 
ATOM     12  C   UNL     1       2.900   3.231  19.089  0.00  0.00    +0.000 A 
ATOM     13  C   UNL     1       2.421   2.149  19.829  0.00  0.00    +0.000 A 
ATOM     14  N   UNL     1       1.607   2.253  20.901  0.00  0.00    +0.000 NA
ATOM     15  C   UNL     1       1.265   3.500  21.262  0.00  0.00    +0.000 A 
ATOM     16  C   UNL     1       1.694   4.647  20.603  0.00  0.00    +0.000 A 
ATOM     17  C   UNL     1       2.521   4.534  19.479  0.00  0.00    +0.000 A 
ENDROOT
BRANCH   7  18
ATOM     18  C   UNL     1       1.947   7.792  19.714  0.00  0.00    +0.000 C 
BRANCH  18  19
ATOM     19  C   UNL     1       1.382   9.059  19.055  0.00  0.00    +0.000 C 
BRANCH  19  20
ATOM     20  N   UNL     1       0.615   9.926  19.981  0.00  0.00    +0.000 NA
ATOM     21  C   UNL     1      -0.625  10.371  19.333  0.00  0.00    +0.000 C 
ATOM     22  C   UNL     1       0.279   9.228  21.228  0.00  0.00    +0.000 C 
ENDBRANCH  19  20
ENDBRANCH  18  19
ENDBRANCH   7  18
TORSDOF 3
ENDMDL
MODEL 2
REMARK VINA RESULT:      -6.9      2.004      5.445
REMARK  Name = 
REMARK  6 active torsions:
REMARK  status: ('A' for Active; 'I' for Inactive)
REMARK    1  A    between atoms: C_1  and  C_2
REMARK    2  A    between atoms: N_7  and  C_8
REMARK    3  A    between atoms: C_8  and  C_9
REMARK    4  A    between atoms: C_9  and  N_10
REMARK    5  A    between atoms: N_10  and  C_11
REMARK    6  A    between atoms: N_10  and  C_12
REMARK                            x       y       z     vdW  Elec       q    Type
REMARK                         _______ _______ _______ _____ _____    ______ ____
ROOT
ATOM      1  C   UNL     1       0.106   8.527  21.370  0.00  0.00    +0.000 C 
ATOM      2  C   UNL     1       1.045   8.393  20.194  0.00  0.00    +0.000 A 
ATOM      3  C   UNL     1       1.198   9.530  19.326  0.00  0.00    +0.000 A 
ATOM      4  C   UNL     1       2.027   9.548  18.185  0.00  0.00    +0.000 A 
ATOM      5  C   UNL     1       2.704   8.341  17.962  0.00  0.00    +0.000 A 
ATOM      6  N   UNL     1       3.551   8.010  16.986  0.00  0.00    +0.000 NA
ATOM      7  N   UNL     1       3.945   6.740  17.257  0.00  0.00    +0.000 N 
ATOM      8  C   UNL     1       3.342   6.186  18.375  0.00  0.00    +0.000 A 
ATOM      9  C   UNL     1       2.547   7.221  18.839  0.00  0.00    +0.000 A 
ATOM     10  C   UNL     1       1.740   7.171  19.975  0.00  0.00    +0.000 A 
ATOM     11  S   UNL     1       1.642   5.737  20.976  0.00  0.00    +0.000 S 
ATOM     12  C   UNL     1       2.739   4.581  20.170  0.00  0.00    +0.000 A 
ATOM     13  C   UNL     1       2.866   3.322  20.758  0.00  0.00    +0.000 A 
ATOM     14  N   UNL     1       3.646   2.328  20.284  0.00  0.00    +0.000 NA
ATOM     15  C   UNL     1       4.324   2.598  19.158  0.00  0.00    +0.000 A 
ATOM     16  C   UNL     1       4.263   3.813  18.485  0.00  0.00    +0.000 A 
ATOM     17  C   UNL     1       3.469   4.849  18.992  0.00  0.00    +0.000 A 
ENDROOT
BRANCH   7  18
ATOM     18  C   UNL     1       4.954   6.209  16.356  0.00  0.00    +0.000 C 
BRANCH  18  19
ATOM     19  C   UNL     1       6.378   6.485  16.860  0.00  0.00    +0.000 C 
BRANCH  19  20
ATOM     20  N   UNL     1       7.363   5.446  16.476  0.00  0.00    +0.000 NA
ATOM     21  C   UNL     1       7.671   4.601  17.637  0.00  0.00    +0.000 C 
ATOM     22  C   UNL     1       6.863   4.598  15.387  0.00  0.00    +0.000 C 
ENDBRANCH  19  20
ENDBRANCH  18  19
ENDBRANCH   7  18
TORSDOF 3
ENDMDL
MODEL 3
REMARK VINA RESULT:      -6.8      2.019      5.171
REMARK  Name = 
REMARK  6 active torsions:
REMARK  status: ('A' for Active; 'I' for Inactive)
REMARK    1  A    between atoms: C_1  and  C_2
REMARK    2  A    between atoms: N_7  and  C_8
REMARK    3  A    between atoms: C_8  and  C_9
REMARK    4  A    between atoms: C_9  and  N_10
REMARK    5  A    between atoms: N_10  and  C_11
REMARK    6  A    between atoms: N_10  and  C_12
REMARK                            x       y       z     vdW  Elec       q    Type
REMARK                         _______ _______ _______ _____ _____    ______ ____
ROOT
ATOM      1  C   UNL     1       0.327   9.264  20.794  0.00  0.00    +0.000 C 
ATOM      2  C   UNL     1       1.278   8.729  19.749  0.00  0.00    +0.000 A 
ATOM      3  C   UNL     1       1.642   9.603  18.666  0.00  0.00    +0.000 A 
ATOM      4  C   UNL     1       2.507   9.238  17.613  0.00  0.00    +0.000 A 
ATOM      5  C   UNL     1       2.991   7.926  17.711  0.00  0.00    +0.000 A 
ATOM      6  N   UNL     1       3.812   7.261  16.896  0.00  0.00    +0.000 NA
ATOM      7  N   UNL     1       3.988   6.044  17.468  0.00  0.00    +0.000 N 
ATOM      8  C   UNL     1       3.263   5.853  18.633  0.00  0.00    +0.000 A 
ATOM      9  C   UNL     1       2.625   7.072  18.798  0.00  0.00    +0.000 A 
ATOM     10  C   UNL     1       1.777   7.401  19.856  0.00  0.00    +0.000 A 
ATOM     11  S   UNL     1       1.414   6.264  21.137  0.00  0.00    +0.000 S 
ATOM     12  C   UNL     1       2.345   4.807  20.688  0.00  0.00    +0.000 A 
ATOM     13  C   UNL     1       2.247   3.711  21.546  0.00  0.00    +0.000 A 
ATOM     14  N   UNL     1       2.877   2.532  21.361  0.00  0.00    +0.000 NA
ATOM     15  C   UNL     1       3.632   2.436  20.255  0.00  0.00    +0.000 A 
ATOM     16  C   UNL     1       3.791   3.460  19.329  0.00  0.00    +0.000 A 
ATOM     17  C   UNL     1       3.153   4.689  19.536  0.00  0.00    +0.000 A 
ENDROOT
BRANCH   7  18
ATOM     18  C   UNL     1       4.934   5.179  16.782  0.00  0.00    +0.000 C 
BRANCH  18  19
ATOM     19  C   UNL     1       5.995   5.981  16.013  0.00  0.00    +0.000 C 
BRANCH  19  20
ATOM     20  N   UNL     1       7.326   5.994  16.664  0.00  0.00    +0.000 NA
ATOM     21  C   UNL     1       7.468   7.205  17.482  0.00  0.00    +0.000 C 
ATOM     22  C   UNL     1       7.528   4.815  17.515  0.00  0.00    +0.000 C 
ENDBRANCH  19  20
ENDBRANCH  18  19
ENDBRANCH   7  18
TORSDOF 3
ENDMDL
MODEL 4
REMARK VINA RESULT:      -6.7      2.181      5.718
REMARK  Name = 
REMARK  6 active torsions:
REMARK  status: ('A' for Active; 'I' for Inactive)
REMARK    1  A    between atoms: C_1  and  C_2
REMARK    2  A    between atoms: N_7  and  C_8
REMARK    3  A    between atoms: C_8  and  C_9
REMARK    4  A    between atoms: C_9  and  N_10
REMARK    5  A    between atoms: N_10  and  C_11
REMARK    6  A    between atoms: N_10  and  C_12
REMARK                            x       y       z     vdW  Elec       q    Type
REMARK                         _______ _______ _______ _____ _____    ______ ____
ROOT
ATOM      1  C   UNL     1       1.467   2.593  21.678  0.00  0.00    +0.000 C 
ATOM      2  C   UNL     1       2.335   2.887  20.476  0.00  0.00    +0.000 A 
ATOM      3  C   UNL     1       3.077   1.795  19.904  0.00  0.00    +0.000 A 
ATOM      4  C   UNL     1       3.935   1.921  18.792  0.00  0.00    +0.000 A 
ATOM      5  C   UNL     1       4.008   3.224  18.280  0.00  0.00    +0.000 A 
ATOM      6  N   UNL     1       4.718   3.695  17.253  0.00  0.00    +0.000 NA
ATOM      7  N   UNL     1       4.398   5.010  17.160  0.00  0.00    +0.000 N 
ATOM      8  C   UNL     1       3.520   5.452  18.136  0.00  0.00    +0.000 A 
ATOM      9  C   UNL     1       3.257   4.297  18.856  0.00  0.00    +0.000 A 
ATOM     10  C   UNL     1       2.398   4.207  19.951  0.00  0.00    +0.000 A 
ATOM     11  S   UNL     1       1.525   5.600  20.556  0.00  0.00    +0.000 S 
ATOM     12  C   UNL     1       2.035   6.925  19.472  0.00  0.00    +0.000 A 
ATOM     13  C   UNL     1       1.487   8.184  19.720  0.00  0.00    +0.000 A 
ATOM     14  N   UNL     1       1.761   9.295  19.006  0.00  0.00    +0.000 NA
ATOM     15  C   UNL     1       2.639   9.147  18.000  0.00  0.00    +0.000 A 
ATOM     16  C   UNL     1       3.251   7.942  17.673  0.00  0.00    +0.000 A 
ATOM     17  C   UNL     1       2.947   6.787  18.404  0.00  0.00    +0.000 A 
ENDROOT
BRANCH   7  18
ATOM     18  C   UNL     1       4.998   5.705  16.033  0.00  0.00    +0.000 C 
BRANCH  18  19
ATOM     19  C   UNL     1       6.492   5.984  16.258  0.00  0.00    +0.000 C 
BRANCH  19  20
ATOM     20  N   UNL     1       6.802   6.557  17.589  0.00  0.00    +0.000 NA
ATOM     21  C   UNL     1       7.584   5.594  18.375  0.00  0.00    +0.000 C 
ATOM     22  C   UNL     1       7.557   7.810  17.480  0.00  0.00    +0.000 C 
ENDBRANCH  19  20
ENDBRANCH  18  19
ENDBRANCH   7  18
TORSDOF 3
ENDMDL
MODEL 5
REMARK VINA RESULT:      -6.5      2.067      5.074
REMARK  Name = 
REMARK  6 active torsions:
REMARK  status: ('A' for Active; 'I' for Inactive)
REMARK    1  A    between atoms: C_1  and  C_2
REMARK    2  A    between atoms: N_7  and  C_8
REMARK    3  A    between atoms: C_8  and  C_9
REMARK    4  A    between atoms: C_9  and  N_10
REMARK    5  A    between atoms: N_10  and  C_11
REMARK    6  A    between atoms: N_10  and  C_12
REMARK                            x       y       z     vdW  Elec       q    Type
REMARK                         _______ _______ _______ _____ _____    ______ ____
ROOT
ATOM      1  C   UNL     1       0.548   8.494  21.168  0.00  0.00    +0.000 C 
ATOM      2  C   UNL     1       1.448   8.175  19.997  0.00  0.00    +0.000 A 
ATOM      3  C   UNL     1       1.676   9.212  19.026  0.00  0.00    +0.000 A 
ATOM      4  C   UNL     1       2.480   9.056  17.878  0.00  0.00    +0.000 A 
ATOM      5  C   UNL     1       3.050   7.781  17.758  0.00  0.00    +0.000 A 
ATOM      6  N   UNL     1       3.847   7.293  16.805  0.00  0.00    +0.000 NA
ATOM      7  N   UNL     1       4.140   6.025  17.188  0.00  0.00    +0.000 N 
ATOM      8  C   UNL     1       3.517   5.626  18.360  0.00  0.00    +0.000 A 
ATOM      9  C   UNL     1       2.820   6.763  18.736  0.00  0.00    +0.000 A 
ATOM     10  C   UNL     1       2.035   6.884  19.883  0.00  0.00    +0.000 A 
ATOM     11  S   UNL     1       1.840   5.560  21.013  0.00  0.00    +0.000 S 
ATOM     12  C   UNL     1       2.822   4.248  20.303  0.00  0.00    +0.000 A 
ATOM     13  C   UNL     1       2.856   3.041  21.003  0.00  0.00    +0.000 A 
ATOM     14  N   UNL     1       3.541   1.946  20.613  0.00  0.00    +0.000 NA
ATOM     15  C   UNL     1       4.216   2.055  19.457  0.00  0.00    +0.000 A 
ATOM     16  C   UNL     1       4.241   3.204  18.676  0.00  0.00    +0.000 A 
ATOM     17  C   UNL     1       3.546   4.345  19.095  0.00  0.00    +0.000 A 
ENDROOT
BRANCH   7  18
ATOM     18  C   UNL     1       5.083   5.330  16.326  0.00  0.00    +0.000 C 
BRANCH  18  19
ATOM     19  C   UNL     1       6.482   5.962  16.377  0.00  0.00    +0.000 C 
BRANCH  19  20
ATOM     20  N   UNL     1       6.890   6.410  17.729  0.00  0.00    +0.000 NA
ATOM     21  C   UNL     1       7.673   5.355  18.386  0.00  0.00    +0.000 C 
ATOM     22  C   UNL     1       7.691   7.638  17.679  0.00  0.00    +0.000 C 
ENDBRANCH  19  20
ENDBRANCH  18  19
ENDBRANCH   7  18
TORSDOF 3
ENDMDL
MODEL 6
REMARK VINA RESULT:      -6.4      1.989      5.487
REMARK  Name = 
REMARK  6 active torsions:
REMARK  status: ('A' for Active; 'I' for Inactive)
REMARK    1  A    between atoms: C_1  and  C_2
REMARK    2  A    between atoms: N_7  and  C_8
REMARK    3  A    between atoms: C_8  and  C_9
REMARK    4  A    between atoms: C_9  and  N_10
REMARK    5  A    between atoms: N_10  and  C_11
REMARK    6  A    between atoms: N_10  and  C_12
REMARK                            x       y       z     vdW  Elec       q    Type
REMARK                         _______ _______ _______ _____ _____    ______ ____
ROOT
ATOM      1  C   UNL     1       0.184   9.302  20.752  0.00  0.00    +0.000 C 
ATOM      2  C   UNL     1       1.165   8.768  19.734  0.00  0.00    +0.000 A 
ATOM      3  C   UNL     1       1.531   9.629  18.641  0.00  0.00    +0.000 A 
ATOM      4  C   UNL     1       2.423   9.263  17.612  0.00  0.00    +0.000 A 
ATOM      5  C   UNL     1       2.933   7.964  17.743  0.00  0.00    +0.000 A 
ATOM      6  N   UNL     1       3.782   7.301  16.956  0.00  0.00    +0.000 NA
ATOM      7  N   UNL     1       3.973   6.099  17.555  0.00  0.00    +0.000 N 
ATOM      8  C   UNL     1       3.230   5.914  18.710  0.00  0.00    +0.000 A 
ATOM      9  C   UNL     1       2.565   7.122  18.840  0.00  0.00    +0.000 A 
ATOM     10  C   UNL     1       1.690   7.453  19.875  0.00  0.00    +0.000 A 
ATOM     11  S   UNL     1       1.328   6.332  21.172  0.00  0.00    +0.000 S 
ATOM     12  C   UNL     1       2.296   4.888  20.767  0.00  0.00    +0.000 A 
ATOM     13  C   UNL     1       2.205   3.806  21.645  0.00  0.00    +0.000 A 
ATOM     14  N   UNL     1       2.863   2.637  21.493  0.00  0.00    +0.000 NA
ATOM     15  C   UNL     1       3.641   2.536  20.403  0.00  0.00    +0.000 A 
ATOM     16  C   UNL     1       3.795   3.547  19.461  0.00  0.00    +0.000 A 
ATOM     17  C   UNL     1       3.127   4.765  19.633  0.00  0.00    +0.000 A 
ENDROOT
BRANCH   7  18
ATOM     18  C   UNL     1       4.949   5.241  16.903  0.00  0.00    +0.000 C 
BRANCH  18  19
ATOM     19  C   UNL     1       5.468   5.852  15.592  0.00  0.00    +0.000 C 
BRANCH  19  20
ATOM     20  N   UNL     1       6.822   5.388  15.209  0.00  0.00    +0.000 NA
ATOM     21  C   UNL     1       7.393   4.573  16.290  0.00  0.00    +0.000 C 
ATOM     22  C   UNL     1       6.797   4.594  13.975  0.00  0.00    +0.000 C 
ENDBRANCH  19  20
ENDBRANCH  18  19
ENDBRANCH   7  18
TORSDOF 3
ENDMDL
MODEL 7
REMARK VINA RESULT:      -6.4      2.123      5.417
REMARK  Name = 
REMARK  6 active torsions:
REMARK  status: ('A' for Active; 'I' for Inactive)
REMARK    1  A    between atoms: C_1  and  C_2
REMARK    2  A    between atoms: N_7  and  C_8
REMARK    3  A    between atoms: C_8  and  C_9
REMARK    4  A    between atoms: C_9  and  N_10
REMARK    5  A    between atoms: N_10  and  C_11
REMARK    6  A    between atoms: N_10  and  C_12
REMARK                            x       y       z     vdW  Elec       q    Type
REMARK                         _______ _______ _______ _____ _____    ______ ____
ROOT
ATOM      1  C   UNL     1       0.450   9.097  20.273  0.00  0.00    +0.000 C 
ATOM      2  C   UNL     1       1.521   8.475  19.408  0.00  0.00    +0.000 A 
ATOM      3  C   UNL     1       2.033   9.254  18.312  0.00  0.00    +0.000 A 
ATOM      4  C   UNL     1       3.022   8.800  17.414  0.00  0.00    +0.000 A 
ATOM      5  C   UNL     1       3.473   7.501  17.683  0.00  0.00    +0.000 A 
ATOM      6  N   UNL     1       4.384   6.768  17.039  0.00  0.00    +0.000 NA
ATOM      7  N   UNL     1       4.470   5.603  17.729  0.00  0.00    +0.000 N 
ATOM      8  C   UNL     1       3.598   5.512  18.802  0.00  0.00    +0.000 A 
ATOM      9  C   UNL     1       2.960   6.742  18.781  0.00  0.00    +0.000 A 
ATOM     10  C   UNL     1       1.986   7.160  19.689  0.00  0.00    +0.000 A 
ATOM     11  S   UNL     1       1.447   6.135  21.003  0.00  0.00    +0.000 S 
ATOM     12  C   UNL     1       2.410   4.645  20.801  0.00  0.00    +0.000 A 
ATOM     13  C   UNL     1       2.189   3.625  21.728  0.00  0.00    +0.000 A 
ATOM     14  N   UNL     1       2.823   2.434  21.725  0.00  0.00    +0.000 NA
ATOM     15  C   UNL     1       3.713   2.243  20.738  0.00  0.00    +0.000 A 
ATOM     16  C   UNL     1       4.002   3.186  19.758  0.00  0.00    +0.000 A 
ATOM     17  C   UNL     1       3.358   4.429  19.777  0.00  0.00    +0.000 A 
ENDROOT
BRANCH   7  18
ATOM     18  C   UNL     1       5.486   4.682  17.246  0.00  0.00    +0.000 C 
BRANCH  18  19
ATOM     19  C   UNL     1       5.068   3.999  15.936  0.00  0.00    +0.000 C 
BRANCH  19  20
ATOM     20  N   UNL     1       6.174   3.839  14.963  0.00  0.00    +0.000 NA
ATOM     21  C   UNL     1       5.649   3.926  13.594  0.00  0.00    +0.000 C 
ATOM     22  C   UNL     1       7.210   4.863  15.143  0.00  0.00    +0.000 C 
ENDBRANCH  19  20
ENDBRANCH  18  19
ENDBRANCH   7  18
TORSDOF 3
ENDMDL
MODEL 8
REMARK VINA RESULT:      -6.3      2.181      6.134
REMARK  Name = 
REMARK  6 active torsions:
REMARK  status: ('A' for Active; 'I' for Inactive)
REMARK    1  A    between atoms: C_1  and  C_2
REMARK    2  A    between atoms: N_7  and  C_8
REMARK    3  A    between atoms: C_8  and  C_9
REMARK    4  A    between atoms: C_9  and  N_10
REMARK    5  A    between atoms: N_10  and  C_11
REMARK    6  A    between atoms: N_10  and  C_12
REMARK                            x       y       z     vdW  Elec       q    Type
REMARK                         _______ _______ _______ _____ _____    ______ ____
ROOT
ATOM      1  C   UNL     1       1.613   2.793  21.745  0.00  0.00    +0.000 C 
ATOM      2  C   UNL     1       2.416   3.141  20.513  0.00  0.00    +0.000 A 
ATOM      3  C   UNL     1       3.182   2.092  19.894  0.00  0.00    +0.000 A 
ATOM      4  C   UNL     1       3.987   2.272  18.750  0.00  0.00    +0.000 A 
ATOM      5  C   UNL     1       3.979   3.584  18.255  0.00  0.00    +0.000 A 
ATOM      6  N   UNL     1       4.624   4.101  17.208  0.00  0.00    +0.000 NA
ATOM      7  N   UNL     1       4.242   5.401  17.148  0.00  0.00    +0.000 N 
ATOM      8  C   UNL     1       3.386   5.789  18.166  0.00  0.00    +0.000 A 
ATOM      9  C   UNL     1       3.206   4.614  18.878  0.00  0.00    +0.000 A 
ATOM     10  C   UNL     1       2.398   4.471  20.006  0.00  0.00    +0.000 A 
ATOM     11  S   UNL     1       1.489   5.814  20.668  0.00  0.00    +0.000 S 
ATOM     12  C   UNL     1       1.893   7.175  19.584  0.00  0.00    +0.000 A 
ATOM     13  C   UNL     1       1.300   8.404  19.874  0.00  0.00    +0.000 A 
ATOM     14  N   UNL     1       1.494   9.537  19.166  0.00  0.00    +0.000 NA
ATOM     15  C   UNL     1       2.335   9.442  18.123  0.00  0.00    +0.000 A 
ATOM     16  C   UNL     1       2.987   8.271  17.753  0.00  0.00    +0.000 A 
ATOM     17  C   UNL     1       2.766   7.093  18.478  0.00  0.00    +0.000 A 
ENDROOT
BRANCH   7  18
ATOM     18  C   UNL     1       4.763   6.138  16.009  0.00  0.00    +0.000 C 
BRANCH  18  19
ATOM     19  C   UNL     1       5.403   5.209  14.966  0.00  0.00    +0.000 C 
BRANCH  19  20
ATOM     20  N   UNL     1       6.857   5.429  14.779  0.00  0.00    +0.000 NA
ATOM     21  C   UNL     1       7.599   4.811  15.886  0.00  0.00    +0.000 C 
ATOM     22  C   UNL     1       7.334   4.867  13.511  0.00  0.00    +0.000 C 
ENDBRANCH  19  20
ENDBRANCH  18  19
ENDBRANCH   7  18
TORSDOF 3
ENDMDL
MODEL 9
REMARK VINA RESULT:      -5.8      1.648      4.468
REMARK  Name = 
REMARK  6 active torsions:
REMARK  status: ('A' for Active; 'I' for Inactive)
REMARK    1  A    between atoms: C_1  and  C_2
REMARK    2  A    between atoms: N_7  and  C_8
REMARK    3  A    between atoms: C_8  and  C_9
REMARK    4  A    between atoms: C_9  and  N_10
REMARK    5  A    between atoms: N_10  and  C_11
REMARK    6  A    between atoms: N_10  and  C_12
REMARK                            x       y       z     vdW  Elec       q    Type
REMARK                         _______ _______ _______ _____ _____    ______ ____
ROOT
ATOM      1  C   UNL     1       3.329   2.019  20.774  0.00  0.00    +0.000 C 
ATOM      2  C   UNL     1       2.971   3.446  20.429  0.00  0.00    +0.000 A 
ATOM      3  C   UNL     1       2.020   4.120  21.272  0.00  0.00    +0.000 A 
ATOM      4  C   UNL     1       1.581   5.445  21.066  0.00  0.00    +0.000 A 
ATOM      5  C   UNL     1       2.161   6.063  19.949  0.00  0.00    +0.000 A 
ATOM      6  N   UNL     1       1.970   7.292  19.465  0.00  0.00    +0.000 NA
ATOM      7  N   UNL     1       2.800   7.396  18.396  0.00  0.00    +0.000 N 
ATOM      8  C   UNL     1       3.514   6.242  18.117  0.00  0.00    +0.000 A 
ATOM      9  C   UNL     1       3.112   5.382  19.126  0.00  0.00    +0.000 A 
ATOM     10  C   UNL     1       3.569   4.076  19.302  0.00  0.00    +0.000 A 
ATOM     11  S   UNL     1       4.748   3.357  18.225  0.00  0.00    +0.000 S 
ATOM     12  C   UNL     1       5.089   4.652  17.043  0.00  0.00    +0.000 A 
ATOM     13  C   UNL     1       6.015   4.358  16.041  0.00  0.00    +0.000 A 
ATOM     14  N   UNL     1       6.389   5.214  15.067  0.00  0.00    +0.000 NA
ATOM     15  C   UNL     1       5.798   6.420  15.084  0.00  0.00    +0.000 A 
ATOM     16  C   UNL     1       4.857   6.812  16.028  0.00  0.00    +0.000 A 
ATOM     17  C   UNL     1       4.487   5.929  17.050  0.00  0.00    +0.000 A 
ENDROOT
BRANCH   7  18
ATOM     18  C   UNL     1       2.820   8.705  17.765  0.00  0.00    +0.000 C 
BRANCH  18  19
ATOM     19  C   UNL     1       1.455   9.405  17.847  0.00  0.00    +0.000 C 
BRANCH  19  20
ATOM     20  N   UNL     1       1.458  10.631  18.679  0.00  0.00    +0.000 NA
ATOM     21  C   UNL     1       2.298  11.657  18.049  0.00  0.00    +0.000 C 
ATOM     22  C   UNL     1       0.105  11.168  18.864  0.00  0.00    +0.000 C 
ENDBRANCH  19  20
ENDBRANCH  18  19
ENDBRANCH   7  18
TORSDOF 3
ENDMDL
