MODEL 1
REMARK VINA RESULT:      -8.3      0.000      0.000
REMARK  Name = 
REMARK  5 active torsions:
REMARK  status: ('A' for Active; 'I' for Inactive)
REMARK    1  A    between atoms: C_1  and  O_2
REMARK    2  A    between atoms: O_2  and  C_3
REMARK    3  A    between atoms: C_4  and  O_5
REMARK    4  A    between atoms: C_9  and  C_10
REMARK    5  A    between atoms: C_23  and  O_24
REMARK                            x       y       z     vdW  Elec       q    Type
REMARK                         _______ _______ _______ _____ _____    ______ ____
ROOT
ATOM      1  C   UNL     1       0.510  10.836  21.487  0.00  0.00    +0.000 A 
ATOM      2  C   UNL     1       0.701   9.715  22.325  0.00  0.00    +0.000 A 
ATOM      3  C   UNL     1       1.227   8.526  21.810  0.00  0.00    +0.000 A 
ATOM      4  C   UNL     1       1.569   8.445  20.469  0.00  0.00    +0.000 A 
ATOM      5  O   UNL     1       2.032   7.238  19.998  0.00  0.00    +0.000 OA
ATOM      6  C   UNL     1       2.411   7.130  18.666  0.00  0.00    +0.000 A 
ATOM      7  C   UNL     1       2.318   8.141  17.795  0.00  0.00    +0.000 A 
ATOM      8  C   UNL     1       1.802   9.446  18.233  0.00  0.00    +0.000 A 
ATOM      9  O   UNL     1       1.688  10.380  17.464  0.00  0.00    +0.000 OA
ATOM     10  C   UNL     1       1.429   9.564  19.646  0.00  0.00    +0.000 A 
ATOM     11  C   UNL     1       0.931  10.744  20.160  0.00  0.00    +0.000 A 
ENDROOT
BRANCH   6  12
ATOM     12  C   UNL     1       2.918   5.840  18.284  0.00  0.00    +0.000 A 
ATOM     13  C   UNL     1       4.019   5.716  17.458  0.00  0.00    +0.000 A 
ATOM     14  S   UNL     1       4.359   4.100  17.050  0.00  0.00    +0.000 S 
ATOM     15  C   UNL     1       3.047   3.512  17.994  0.00  0.00    +0.000 A 
ATOM     16  C   UNL     1       2.655   2.165  18.126  0.00  0.00    +0.000 A 
ATOM     17  C   UNL     1       1.572   1.851  18.947  0.00  0.00    +0.000 A 
ATOM     18  C   UNL     1       0.894   2.851  19.625  0.00  0.00    +0.000 A 
ATOM     19  C   UNL     1       1.276   4.189  19.479  0.00  0.00    +0.000 A 
ATOM     20  C   UNL     1       2.369   4.550  18.646  0.00  0.00    +0.000 A 
ENDBRANCH   6  12
BRANCH   1  22
ATOM     21  C   UNL     1      -1.545  11.946  21.746  0.00  0.00    +0.000 C 
ATOM     22  O   UNL     1      -0.133  11.948  22.004  0.00  0.00    +0.000 OA
ENDBRANCH   1  22
BRANCH   2  23
ATOM     23  O   UNL     1       0.292   9.681  23.620  0.00  0.00    +0.000 OA
ATOM     24  H   UNL     1      -0.589  10.095  23.654  0.00  0.00    +0.000 HD
ENDBRANCH   2  23
BRANCH  11  25
ATOM     25  O   UNL     1       0.809  11.842  19.357  0.00  0.00    +0.000 OA
ATOM     26  H   UNL     1      -0.045  11.881  18.918  0.00  0.00    +0.000 HD
ENDBRANCH  11  25
TORSDOF 4
ENDMDL
MODEL 2
REMARK VINA RESULT:      -8.3      1.183      1.388
REMARK  Name = 
REMARK  5 active torsions:
REMARK  status: ('A' for Active; 'I' for Inactive)
REMARK    1  A    between atoms: C_1  and  O_2
REMARK    2  A    between atoms: O_2  and  C_3
REMARK    3  A    between atoms: C_4  and  O_5
REMARK    4  A    between atoms: C_9  and  C_10
REMARK    5  A    between atoms: C_23  and  O_24
REMARK                            x       y       z     vdW  Elec       q    Type
REMARK                         _______ _______ _______ _____ _____    ______ ____
ROOT
ATOM      1  C   UNL     1      -0.540  10.611  21.937  0.00  0.00    +0.000 A 
ATOM      2  C   UNL     1       0.260   9.709  22.675  0.00  0.00    +0.000 A 
ATOM      3  C   UNL     1       1.118   8.822  22.018  0.00  0.00    +0.000 A 
ATOM      4  C   UNL     1       1.190   8.828  20.634  0.00  0.00    +0.000 A 
ATOM      5  O   UNL     1       2.009   7.900  20.032  0.00  0.00    +0.000 OA
ATOM      6  C   UNL     1       2.126   7.896  18.648  0.00  0.00    +0.000 A 
ATOM      7  C   UNL     1       1.452   8.735  17.854  0.00  0.00    +0.000 A 
ATOM      8  C   UNL     1       0.540   9.729  18.438  0.00  0.00    +0.000 A 
ATOM      9  O   UNL     1      -0.100  10.495  17.746  0.00  0.00    +0.000 OA
ATOM     10  C   UNL     1       0.439   9.749  19.901  0.00  0.00    +0.000 A 
ATOM     11  C   UNL     1      -0.391  10.638  20.551  0.00  0.00    +0.000 A 
ENDROOT
BRANCH   6  12
ATOM     12  C   UNL     1       3.036   6.915  18.120  0.00  0.00    +0.000 A 
ATOM     13  C   UNL     1       4.258   7.279  17.588  0.00  0.00    +0.000 A 
ATOM     14  S   UNL     1       5.105   5.965  16.920  0.00  0.00    +0.000 S 
ATOM     15  C   UNL     1       3.863   4.855  17.349  0.00  0.00    +0.000 A 
ATOM     16  C   UNL     1       3.847   3.474  17.070  0.00  0.00    +0.000 A 
ATOM     17  C   UNL     1       2.767   2.706  17.502  0.00  0.00    +0.000 A 
ATOM     18  C   UNL     1       1.725   3.295  18.200  0.00  0.00    +0.000 A 
ATOM     19  C   UNL     1       1.736   4.669  18.462  0.00  0.00    +0.000 A 
ATOM     20  C   UNL     1       2.814   5.486  18.031  0.00  0.00    +0.000 A 
ENDBRANCH   6  12
BRANCH   1  22
ATOM     21  C   UNL     1      -1.002  12.707  22.893  0.00  0.00    +0.000 C 
ATOM     22  O   UNL     1      -1.470  11.380  22.617  0.00  0.00    +0.000 OA
ENDBRANCH   1  22
BRANCH   2  23
ATOM     23  O   UNL     1       0.168   9.571  24.023  0.00  0.00    +0.000 OA
ATOM     24  H   UNL     1       0.913   9.009  24.305  0.00  0.00    +0.000 HD
ENDBRANCH   2  23
BRANCH  11  25
ATOM     25  O   UNL     1      -1.113  11.549  19.833  0.00  0.00    +0.000 OA
ATOM     26  H   UNL     1      -2.059  11.461  19.978  0.00  0.00    +0.000 HD
ENDBRANCH  11  25
TORSDOF 4
ENDMDL
MODEL 3
REMARK VINA RESULT:      -8.0      2.909      6.993
REMARK  Name = 
REMARK  5 active torsions:
REMARK  status: ('A' for Active; 'I' for Inactive)
REMARK    1  A    between atoms: C_1  and  O_2
REMARK    2  A    between atoms: O_2  and  C_3
REMARK    3  A    between atoms: C_4  and  O_5
REMARK    4  A    between atoms: C_9  and  C_10
REMARK    5  A    between atoms: C_23  and  O_24
REMARK                            x       y       z     vdW  Elec       q    Type
REMARK                         _______ _______ _______ _____ _____    ______ ____
ROOT
ATOM      1  C   UNL     1       3.552   3.468  19.694  0.00  0.00    +0.000 A 
ATOM      2  C   UNL     1       2.635   3.688  20.745  0.00  0.00    +0.000 A 
ATOM      3  C   UNL     1       1.995   4.924  20.880  0.00  0.00    +0.000 A 
ATOM      4  C   UNL     1       2.257   5.940  19.975  0.00  0.00    +0.000 A 
ATOM      5  O   UNL     1       1.644   7.155  20.181  0.00  0.00    +0.000 OA
ATOM      6  C   UNL     1       1.863   8.187  19.277  0.00  0.00    +0.000 A 
ATOM      7  C   UNL     1       2.674   8.074  18.219  0.00  0.00    +0.000 A 
ATOM      8  C   UNL     1       3.380   6.810  17.964  0.00  0.00    +0.000 A 
ATOM      9  O   UNL     1       4.137   6.678  17.024  0.00  0.00    +0.000 OA
ATOM     10  C   UNL     1       3.126   5.714  18.905  0.00  0.00    +0.000 A 
ATOM     11  C   UNL     1       3.740   4.487  18.760  0.00  0.00    +0.000 A 
ENDROOT
BRANCH   6  12
ATOM     12  C   UNL     1       1.145   9.401  19.558  0.00  0.00    +0.000 A 
ATOM     13  C   UNL     1       1.101  10.439  18.647  0.00  0.00    +0.000 A 
ATOM     14  S   UNL     1       0.296  11.811  19.249  0.00  0.00    +0.000 S 
ATOM     15  C   UNL     1      -0.041  11.042  20.750  0.00  0.00    +0.000 A 
ATOM     16  C   UNL     1      -0.705  11.620  21.850  0.00  0.00    +0.000 A 
ATOM     17  C   UNL     1      -0.914  10.853  22.996  0.00  0.00    +0.000 A 
ATOM     18  C   UNL     1      -0.477   9.539  23.048  0.00  0.00    +0.000 A 
ATOM     19  C   UNL     1       0.195   8.974  21.960  0.00  0.00    +0.000 A 
ATOM     20  C   UNL     1       0.435   9.725  20.778  0.00  0.00    +0.000 A 
ENDBRANCH   6  12
BRANCH   1  22
ATOM     21  C   UNL     1       3.711   1.317  18.760  0.00  0.00    +0.000 C 
ATOM     22  O   UNL     1       4.261   2.278  19.672  0.00  0.00    +0.000 OA
ENDBRANCH   1  22
BRANCH   2  23
ATOM     23  O   UNL     1       2.406   2.781  21.730  0.00  0.00    +0.000 OA
ATOM     24  H   UNL     1       1.863   3.225  22.407  0.00  0.00    +0.000 HD
ENDBRANCH   2  23
BRANCH  11  25
ATOM     25  O   UNL     1       4.577   4.262  17.704  0.00  0.00    +0.000 OA
ATOM     26  H   UNL     1       4.314   3.496  17.186  0.00  0.00    +0.000 HD
ENDBRANCH  11  25
TORSDOF 4
ENDMDL
MODEL 4
REMARK VINA RESULT:      -7.8      1.110      2.403
REMARK  Name = 
REMARK  5 active torsions:
REMARK  status: ('A' for Active; 'I' for Inactive)
REMARK    1  A    between atoms: C_1  and  O_2
REMARK    2  A    between atoms: O_2  and  C_3
REMARK    3  A    between atoms: C_4  and  O_5
REMARK    4  A    between atoms: C_9  and  C_10
REMARK    5  A    between atoms: C_23  and  O_24
REMARK                            x       y       z     vdW  Elec       q    Type
REMARK                         _______ _______ _______ _____ _____    ______ ____
ROOT
ATOM      1  C   UNL     1       0.488  10.834  21.570  0.00  0.00    +0.000 A 
ATOM      2  C   UNL     1       0.660   9.685  22.374  0.00  0.00    +0.000 A 
ATOM      3  C   UNL     1       1.148   8.498  21.818  0.00  0.00    +0.000 A 
ATOM      4  C   UNL     1       1.470   8.447  20.471  0.00  0.00    +0.000 A 
ATOM      5  O   UNL     1       1.895   7.241  19.960  0.00  0.00    +0.000 OA
ATOM      6  C   UNL     1       2.251   7.162  18.620  0.00  0.00    +0.000 A 
ATOM      7  C   UNL     1       2.173   8.199  17.779  0.00  0.00    +0.000 A 
ATOM      8  C   UNL     1       1.698   9.504  18.261  0.00  0.00    +0.000 A 
ATOM      9  O   UNL     1       1.598  10.462  17.520  0.00  0.00    +0.000 OA
ATOM     10  C   UNL     1       1.348   9.592  19.682  0.00  0.00    +0.000 A 
ATOM     11  C   UNL     1       0.887  10.768  20.236  0.00  0.00    +0.000 A 
ENDROOT
BRANCH   6  12
ATOM     12  C   UNL     1       2.720   5.871  18.194  0.00  0.00    +0.000 A 
ATOM     13  C   UNL     1       2.095   4.707  18.602  0.00  0.00    +0.000 A 
ATOM     14  S   UNL     1       2.898   3.306  18.069  0.00  0.00    +0.000 S 
ATOM     15  C   UNL     1       4.101   4.221  17.248  0.00  0.00    +0.000 A 
ATOM     16  C   UNL     1       5.205   3.703  16.544  0.00  0.00    +0.000 A 
ATOM     17  C   UNL     1       6.086   4.584  15.917  0.00  0.00    +0.000 A 
ATOM     18  C   UNL     1       5.873   5.951  15.985  0.00  0.00    +0.000 A 
ATOM     19  C   UNL     1       4.785   6.464  16.698  0.00  0.00    +0.000 A 
ATOM     20  C   UNL     1       3.870   5.599  17.356  0.00  0.00    +0.000 A 
ENDBRANCH   6  12
BRANCH   1  22
ATOM     21  C   UNL     1      -1.539  11.971  21.920  0.00  0.00    +0.000 C 
ATOM     22  O   UNL     1      -0.119  11.947  22.128  0.00  0.00    +0.000 OA
ENDBRANCH   1  22
BRANCH   2  23
ATOM     23  O   UNL     1       0.269   9.625  23.674  0.00  0.00    +0.000 OA
ATOM     24  H   UNL     1      -0.641   9.276  23.683  0.00  0.00    +0.000 HD
ENDBRANCH   2  23
BRANCH  11  25
ATOM     25  O   UNL     1       0.783  11.892  19.465  0.00  0.00    +0.000 OA
ATOM     26  H   UNL     1       1.536  12.003  18.878  0.00  0.00    +0.000 HD
ENDBRANCH  11  25
TORSDOF 4
ENDMDL
MODEL 5
REMARK VINA RESULT:      -7.7      1.489      2.862
REMARK  Name = 
REMARK  5 active torsions:
REMARK  status: ('A' for Active; 'I' for Inactive)
REMARK    1  A    between atoms: C_1  and  O_2
REMARK    2  A    between atoms: O_2  and  C_3
REMARK    3  A    between atoms: C_4  and  O_5
REMARK    4  A    between atoms: C_9  and  C_10
REMARK    5  A    between atoms: C_23  and  O_24
REMARK                            x       y       z     vdW  Elec       q    Type
REMARK                         _______ _______ _______ _____ _____    ______ ____
ROOT
ATOM      1  C   UNL     1      -0.741  12.279  20.095  0.00  0.00    +0.000 A 
ATOM      2  C   UNL     1      -0.676  11.913  18.732  0.00  0.00    +0.000 A 
ATOM      3  C   UNL     1      -0.034  10.732  18.346  0.00  0.00    +0.000 A 
ATOM      4  C   UNL     1       0.539   9.912  19.304  0.00  0.00    +0.000 A 
ATOM      5  O   UNL     1       1.207   8.789  18.869  0.00  0.00    +0.000 OA
ATOM      6  C   UNL     1       1.769   7.930  19.804  0.00  0.00    +0.000 A 
ATOM      7  C   UNL     1       1.725   8.153  21.123  0.00  0.00    +0.000 A 
ATOM      8  C   UNL     1       1.053   9.352  21.645  0.00  0.00    +0.000 A 
ATOM      9  O   UNL     1       1.010   9.594  22.834  0.00  0.00    +0.000 OA
ATOM     10  C   UNL     1       0.437  10.242  20.656  0.00  0.00    +0.000 A 
ATOM     11  C   UNL     1      -0.216  11.396  21.039  0.00  0.00    +0.000 A 
ENDROOT
BRANCH   6  12
ATOM     12  C   UNL     1       2.407   6.766  19.251  0.00  0.00    +0.000 A 
ATOM     13  C   UNL     1       3.360   6.872  18.255  0.00  0.00    +0.000 A 
ATOM     14  S   UNL     1       3.883   5.360  17.679  0.00  0.00    +0.000 S 
ATOM     15  C   UNL     1       2.862   4.511  18.772  0.00  0.00    +0.000 A 
ATOM     16  C   UNL     1       2.721   3.112  18.864  0.00  0.00    +0.000 A 
ATOM     17  C   UNL     1       1.858   2.578  19.819  0.00  0.00    +0.000 A 
ATOM     18  C   UNL     1       1.150   3.413  20.668  0.00  0.00    +0.000 A 
ATOM     19  C   UNL     1       1.280   4.802  20.564  0.00  0.00    +0.000 A 
ATOM     20  C   UNL     1       2.144   5.385  19.599  0.00  0.00    +0.000 A 
ENDBRANCH   6  12
BRANCH   1  22
ATOM     21  C   UNL     1      -2.682  13.474  20.667  0.00  0.00    +0.000 C 
ATOM     22  O   UNL     1      -1.269  13.516  20.423  0.00  0.00    +0.000 OA
ENDBRANCH   1  22
BRANCH   2  23
ATOM     23  O   UNL     1      -1.119  12.713  17.728  0.00  0.00    +0.000 OA
ATOM     24  H   UNL     1      -1.423  13.544  18.137  0.00  0.00    +0.000 HD
ENDBRANCH   2  23
BRANCH  11  25
ATOM     25  O   UNL     1      -0.330  11.710  22.364  0.00  0.00    +0.000 OA
ATOM     26  H   UNL     1       0.520  11.712  22.813  0.00  0.00    +0.000 HD
ENDBRANCH  11  25
TORSDOF 4
ENDMDL
MODEL 6
REMARK VINA RESULT:      -7.7      3.158      7.068
REMARK  Name = 
REMARK  5 active torsions:
REMARK  status: ('A' for Active; 'I' for Inactive)
REMARK    1  A    between atoms: C_1  and  O_2
REMARK    2  A    between atoms: O_2  and  C_3
REMARK    3  A    between atoms: C_4  and  O_5
REMARK    4  A    between atoms: C_9  and  C_10
REMARK    5  A    between atoms: C_23  and  O_24
REMARK                            x       y       z     vdW  Elec       q    Type
REMARK                         _______ _______ _______ _____ _____    ______ ____
ROOT
ATOM      1  C   UNL     1       3.505   3.849  19.572  0.00  0.00    +0.000 A 
ATOM      2  C   UNL     1       2.611   3.943  20.661  0.00  0.00    +0.000 A 
ATOM      3  C   UNL     1       1.905   5.127  20.898  0.00  0.00    +0.000 A 
ATOM      4  C   UNL     1       2.079   6.215  20.059  0.00  0.00    +0.000 A 
ATOM      5  O   UNL     1       1.404   7.375  20.365  0.00  0.00    +0.000 OA
ATOM      6  C   UNL     1       1.534   8.476  19.529  0.00  0.00    +0.000 A 
ATOM      7  C   UNL     1       2.316   8.483  18.444  0.00  0.00    +0.000 A 
ATOM      8  C   UNL     1       3.085   7.283  18.083  0.00  0.00    +0.000 A 
ATOM      9  O   UNL     1       3.819   7.261  17.115  0.00  0.00    +0.000 OA
ATOM     10  C   UNL     1       2.925   6.114  18.952  0.00  0.00    +0.000 A 
ATOM     11  C   UNL     1       3.604   4.938  18.706  0.00  0.00    +0.000 A 
ENDROOT
BRANCH   6  12
ATOM     12  C   UNL     1       0.757   9.624  19.913  0.00  0.00    +0.000 A 
ATOM     13  C   UNL     1       0.974  10.271  21.114  0.00  0.00    +0.000 A 
ATOM     14  S   UNL     1      -0.142  11.522  21.401  0.00  0.00    +0.000 S 
ATOM     15  C   UNL     1      -0.940  11.249  19.903  0.00  0.00    +0.000 A 
ATOM     16  C   UNL     1      -2.072  11.939  19.424  0.00  0.00    +0.000 A 
ATOM     17  C   UNL     1      -2.593  11.605  18.174  0.00  0.00    +0.000 A 
ATOM     18  C   UNL     1      -2.002  10.610  17.413  0.00  0.00    +0.000 A 
ATOM     19  C   UNL     1      -0.888   9.916  17.898  0.00  0.00    +0.000 A 
ATOM     20  C   UNL     1      -0.333  10.221  19.169  0.00  0.00    +0.000 A 
ENDBRANCH   6  12
BRANCH   1  22
ATOM     21  C   UNL     1       3.644   1.681  18.676  0.00  0.00    +0.000 C 
ATOM     22  O   UNL     1       4.281   2.708  19.449  0.00  0.00    +0.000 OA
ENDBRANCH   1  22
BRANCH   2  23
ATOM     23  O   UNL     1       2.466   2.960  21.588  0.00  0.00    +0.000 OA
ATOM     24  H   UNL     1       2.539   3.380  22.465  0.00  0.00    +0.000 HD
ENDBRANCH   2  23
BRANCH  11  25
ATOM     25  O   UNL     1       4.419   4.835  17.615  0.00  0.00    +0.000 OA
ATOM     26  H   UNL     1       5.277   4.461  17.833  0.00  0.00    +0.000 HD
ENDBRANCH  11  25
TORSDOF 4
ENDMDL
MODEL 7
REMARK VINA RESULT:      -7.6      1.583      2.841
REMARK  Name = 
REMARK  5 active torsions:
REMARK  status: ('A' for Active; 'I' for Inactive)
REMARK    1  A    between atoms: C_1  and  O_2
REMARK    2  A    between atoms: O_2  and  C_3
REMARK    3  A    between atoms: C_4  and  O_5
REMARK    4  A    between atoms: C_9  and  C_10
REMARK    5  A    between atoms: C_23  and  O_24
REMARK                            x       y       z     vdW  Elec       q    Type
REMARK                         _______ _______ _______ _____ _____    ______ ____
ROOT
ATOM      1  C   UNL     1      -1.008  11.755  19.846  0.00  0.00    +0.000 A 
ATOM      2  C   UNL     1      -0.804  11.652  18.452  0.00  0.00    +0.000 A 
ATOM      3  C   UNL     1       0.008  10.641  17.928  0.00  0.00    +0.000 A 
ATOM      4  C   UNL     1       0.615   9.731  18.779  0.00  0.00    +0.000 A 
ATOM      5  O   UNL     1       1.448   8.789  18.220  0.00  0.00    +0.000 OA
ATOM      6  C   UNL     1       2.050   7.844  19.041  0.00  0.00    +0.000 A 
ATOM      7  C   UNL     1       1.888   7.819  20.369  0.00  0.00    +0.000 A 
ATOM      8  C   UNL     1       1.034   8.818  21.026  0.00  0.00    +0.000 A 
ATOM      9  O   UNL     1       0.879   8.835  22.230  0.00  0.00    +0.000 OA
ATOM     10  C   UNL     1       0.379   9.798  20.153  0.00  0.00    +0.000 A 
ATOM     11  C   UNL     1      -0.441  10.781  20.668  0.00  0.00    +0.000 A 
ENDROOT
BRANCH   6  12
ATOM     12  C   UNL     1       2.868   6.880  18.356  0.00  0.00    +0.000 A 
ATOM     13  C   UNL     1       4.007   7.258  17.672  0.00  0.00    +0.000 A 
ATOM     14  S   UNL     1       4.741   5.966  16.845  0.00  0.00    +0.000 S 
ATOM     15  C   UNL     1       3.560   4.846  17.403  0.00  0.00    +0.000 A 
ATOM     16  C   UNL     1       3.493   3.477  17.079  0.00  0.00    +0.000 A 
ATOM     17  C   UNL     1       2.475   2.698  17.629  0.00  0.00    +0.000 A 
ATOM     18  C   UNL     1       1.546   3.265  18.486  0.00  0.00    +0.000 A 
ATOM     19  C   UNL     1       1.607   4.628  18.794  0.00  0.00    +0.000 A 
ATOM     20  C   UNL     1       2.623   5.456  18.247  0.00  0.00    +0.000 A 
ENDBRANCH   6  12
BRANCH   1  22
ATOM     21  C   UNL     1      -3.127  12.622  20.377  0.00  0.00    +0.000 C 
ATOM     22  O   UNL     1      -1.711  12.845  20.333  0.00  0.00    +0.000 OA
ENDBRANCH   1  22
BRANCH   2  23
ATOM     23  O   UNL     1      -1.275  12.566  17.565  0.00  0.00    +0.000 OA
ATOM     24  H   UNL     1      -0.904  12.337  16.693  0.00  0.00    +0.000 HD
ENDBRANCH   2  23
BRANCH  11  25
ATOM     25  O   UNL     1      -0.684  10.836  22.011  0.00  0.00    +0.000 OA
ATOM     26  H   UNL     1      -1.258  10.125  22.308  0.00  0.00    +0.000 HD
ENDBRANCH  11  25
TORSDOF 4
ENDMDL
MODEL 8
REMARK VINA RESULT:      -7.5      1.415      2.753
REMARK  Name = 
REMARK  5 active torsions:
REMARK  status: ('A' for Active; 'I' for Inactive)
REMARK    1  A    between atoms: C_1  and  O_2
REMARK    2  A    between atoms: O_2  and  C_3
REMARK    3  A    between atoms: C_4  and  O_5
REMARK    4  A    between atoms: C_9  and  C_10
REMARK    5  A    between atoms: C_23  and  O_24
REMARK                            x       y       z     vdW  Elec       q    Type
REMARK                         _______ _______ _______ _____ _____    ______ ____
ROOT
ATOM      1  C   UNL     1      -0.253  10.591  21.357  0.00  0.00    +0.000 A 
ATOM      2  C   UNL     1       0.143   9.647  22.331  0.00  0.00    +0.000 A 
ATOM      3  C   UNL     1       0.953   8.563  21.979  0.00  0.00    +0.000 A 
ATOM      4  C   UNL     1       1.375   8.413  20.668  0.00  0.00    +0.000 A 
ATOM      5  O   UNL     1       2.126   7.301  20.360  0.00  0.00    +0.000 OA
ATOM      6  C   UNL     1       2.588   7.134  19.061  0.00  0.00    +0.000 A 
ATOM      7  C   UNL     1       2.314   7.990  18.071  0.00  0.00    +0.000 A 
ATOM      8  C   UNL     1       1.492   9.181  18.332  0.00  0.00    +0.000 A 
ATOM      9  O   UNL     1       1.209   9.969  17.453  0.00  0.00    +0.000 OA
ATOM     10  C   UNL     1       1.027   9.368  19.710  0.00  0.00    +0.000 A 
ATOM     11  C   UNL     1       0.247  10.449  20.063  0.00  0.00    +0.000 A 
ENDROOT
BRANCH   6  12
ATOM     12  C   UNL     1       3.397   5.963  18.852  0.00  0.00    +0.000 A 
ATOM     13  C   UNL     1       3.019   4.730  19.349  0.00  0.00    +0.000 A 
ATOM     14  S   UNL     1       4.188   3.524  19.080  0.00  0.00    +0.000 S 
ATOM     15  C   UNL     1       5.231   4.620  18.261  0.00  0.00    +0.000 A 
ATOM     16  C   UNL     1       6.504   4.322  17.734  0.00  0.00    +0.000 A 
ATOM     17  C   UNL     1       7.221   5.324  17.082  0.00  0.00    +0.000 A 
ATOM     18  C   UNL     1       6.685   6.595  16.950  0.00  0.00    +0.000 A 
ATOM     19  C   UNL     1       5.428   6.892  17.488  0.00  0.00    +0.000 A 
ATOM     20  C   UNL     1       4.671   5.900  18.166  0.00  0.00    +0.000 A 
ENDBRANCH   6  12
BRANCH   1  22
ATOM     21  C   UNL     1      -0.527  12.776  22.177  0.00  0.00    +0.000 C 
ATOM     22  O   UNL     1      -1.160  11.574  21.718  0.00  0.00    +0.000 OA
ENDBRANCH   1  22
BRANCH   2  23
ATOM     23  O   UNL     1      -0.315   9.666  23.610  0.00  0.00    +0.000 OA
ATOM     24  H   UNL     1      -1.228   9.324  23.593  0.00  0.00    +0.000 HD
ENDBRANCH   2  23
BRANCH  11  25
ATOM     25  O   UNL     1      -0.080  11.391  19.129  0.00  0.00    +0.000 OA
ATOM     26  H   UNL     1      -0.750  11.080  18.515  0.00  0.00    +0.000 HD
ENDBRANCH  11  25
TORSDOF 4
ENDMDL
MODEL 9
REMARK VINA RESULT:      -7.5      3.284      7.547
REMARK  Name = 
REMARK  5 active torsions:
REMARK  status: ('A' for Active; 'I' for Inactive)
REMARK    1  A    between atoms: C_1  and  O_2
REMARK    2  A    between atoms: O_2  and  C_3
REMARK    3  A    between atoms: C_4  and  O_5
REMARK    4  A    between atoms: C_9  and  C_10
REMARK    5  A    between atoms: C_23  and  O_24
REMARK                            x       y       z     vdW  Elec       q    Type
REMARK                         _______ _______ _______ _____ _____    ______ ____
ROOT
ATOM      1  C   UNL     1       5.694   4.688  16.449  0.00  0.00    +0.000 A 
ATOM      2  C   UNL     1       6.269   5.979  16.482  0.00  0.00    +0.000 A 
ATOM      3  C   UNL     1       5.547   7.064  16.987  0.00  0.00    +0.000 A 
ATOM      4  C   UNL     1       4.260   6.875  17.465  0.00  0.00    +0.000 A 
ATOM      5  O   UNL     1       3.570   7.983  17.902  0.00  0.00    +0.000 OA
ATOM      6  C   UNL     1       2.288   7.825  18.413  0.00  0.00    +0.000 A 
ATOM      7  C   UNL     1       1.665   6.643  18.475  0.00  0.00    +0.000 A 
ATOM      8  C   UNL     1       2.340   5.429  17.994  0.00  0.00    +0.000 A 
ATOM      9  O   UNL     1       1.797   4.343  18.020  0.00  0.00    +0.000 OA
ATOM     10  C   UNL     1       3.703   5.594  17.481  0.00  0.00    +0.000 A 
ATOM     11  C   UNL     1       4.425   4.520  17.002  0.00  0.00    +0.000 A 
ENDROOT
BRANCH   6  12
ATOM     12  C   UNL     1       1.669   9.037  18.880  0.00  0.00    +0.000 A 
ATOM     13  C   UNL     1       1.689  10.193  18.124  0.00  0.00    +0.000 A 
ATOM     14  S   UNL     1       1.000  11.522  18.932  0.00  0.00    +0.000 S 
ATOM     15  C   UNL     1       0.630  10.575  20.320  0.00  0.00    +0.000 A 
ATOM     16  C   UNL     1       0.030  11.038  21.507  0.00  0.00    +0.000 A 
ATOM     17  C   UNL     1      -0.219  10.135  22.540  0.00  0.00    +0.000 A 
ATOM     18  C   UNL     1       0.118   8.799  22.397  0.00  0.00    +0.000 A 
ATOM     19  C   UNL     1       0.728   8.345  21.223  0.00  0.00    +0.000 A 
ATOM     20  C   UNL     1       1.005   9.236  20.152  0.00  0.00    +0.000 A 
ENDBRANCH   6  12
BRANCH   1  22
ATOM     21  C   UNL     1       6.254   3.695  14.394  0.00  0.00    +0.000 C 
ATOM     22  O   UNL     1       6.391   3.669  15.822  0.00  0.00    +0.000 OA
ENDBRANCH   1  22
BRANCH   2  23
ATOM     23  O   UNL     1       7.480   6.263  15.937  0.00  0.00    +0.000 OA
ATOM     24  H   UNL     1       7.654   5.587  15.256  0.00  0.00    +0.000 HD
ENDBRANCH   2  23
BRANCH  11  25
ATOM     25  O   UNL     1       3.885   3.265  17.033  0.00  0.00    +0.000 OA
ATOM     26  H   UNL     1       2.999   3.258  17.406  0.00  0.00    +0.000 HD
ENDBRANCH  11  25
TORSDOF 4
ENDMDL
