MODEL 1
REMARK VINA RESULT:      -8.6      0.000      0.000
REMARK  Name = 
REMARK  11 active torsions:
REMARK  status: ('A' for Active; 'I' for Inactive)
REMARK    1  A    between atoms: C_1  and  C_2
REMARK    2  A    between atoms: C_2  and  C_3
REMARK    3  A    between atoms: C_5  and  C_6
REMARK    4  A    between atoms: C_7  and  C_8
REMARK    5  A    between atoms: C_11  and  C_12
REMARK    6  A    between atoms: C_12  and  C_13
REMARK    7  A    between atoms: C_13  and  O_14
REMARK    8  A    between atoms: O_14  and  C_15
REMARK    9  A    between atoms: C_18  and  C_19
REMARK   10  A    between atoms: C_24  and  C_25
REMARK   11  A    between atoms: C_28  and  C_29
REMARK                            x       y       z     vdW  Elec       q    Type
REMARK                         _______ _______ _______ _____ _____    ______ ____
ROOT
ATOM      1  C   UNL     1       2.582   6.189  19.347  0.00  0.00    +0.000 A 
ATOM      2  C   UNL     1       3.403   5.014  19.305  0.00  0.00    +0.000 A 
ATOM      3  C   UNL     1       4.426   4.792  18.376  0.00  0.00    +0.000 A 
ATOM      4  C   UNL     1       5.165   3.476  18.419  0.00  0.00    +0.000 C 
ATOM      5  C   UNL     1       4.680   5.787  17.433  0.00  0.00    +0.000 A 
ATOM      6  C   UNL     1       3.904   6.978  17.514  0.00  0.00    +0.000 A 
ATOM      7  C   UNL     1       2.831   7.242  18.451  0.00  0.00    +0.000 A 
ENDROOT
BRANCH   7   8
ATOM      8  C   UNL     1       2.146   8.606  18.190  0.00  0.00    +0.000 C 
ATOM      9  O   UNL     1       2.255   8.979  17.006  0.00  0.00    +0.000 OA
ATOM     10  N   UNL     1       1.385   9.476  19.023  0.00  0.00    +0.000 N 
ATOM     11  C   UNL     1       0.645  10.529  18.297  0.00  0.00    +0.000 C 
ATOM     12  C   UNL     1      -0.635  10.936  19.027  0.00  0.00    +0.000 C 
ATOM     13  C   UNL     1      -0.267  11.698  20.305  0.00  0.00    +0.000 C 
ATOM     14  C   UNL     1       0.951  11.032  20.994  0.00  0.00    +0.000 C 
ATOM     15  C   UNL     1       1.294   9.605  20.483  0.00  0.00    +0.000 C 
BRANCH  13  16
ATOM     16  C   UNL     1      -1.473  11.976  21.207  0.00  0.00    +0.000 A 
ATOM     17  C   UNL     1      -1.481  11.650  22.570  0.00  0.00    +0.000 A 
ATOM     18  C   UNL     1      -2.612  11.903  23.368  0.00  0.00    +0.000 A 
ATOM     19  C   UNL     1      -3.759  12.489  22.823  0.00  0.00    +0.000 A 
ATOM     20  C   UNL     1      -3.766  12.817  21.466  0.00  0.00    +0.000 A 
ATOM     21  C   UNL     1      -2.637  12.561  20.669  0.00  0.00    +0.000 A 
BRANCH  19  22
ATOM     22  C   UNL     1      -4.906  12.750  23.639  0.00  0.00    +0.000 C 
ATOM     23  N   UNL     1      -5.838  12.963  24.304  0.00  0.00    +0.000 NA
ENDBRANCH  19  22
ENDBRANCH  13  16
ENDBRANCH   7   8
BRANCH   5  24
ATOM     24  C   UNL     1       5.705   5.600  16.385  0.00  0.00    +0.000 A 
ATOM     25  N   UNL     1       6.982   5.943  16.442  0.00  0.00    +0.000 NA
ATOM     26  N   UNL     1       7.608   5.576  15.276  0.00  0.00    +0.000 NA
ATOM     27  C   UNL     1       6.708   5.008  14.507  0.00  0.00    +0.000 A 
ATOM     28  N   UNL     1       5.510   4.985  15.173  0.00  0.00    +0.000 N 
ATOM     29  H   UNL     1       4.657   4.575  14.817  0.00  0.00    +0.000 HD
BRANCH  27  30
ATOM     30  C   UNL     1       6.891   4.528  13.109  0.00  0.00    +0.000 C 
BRANCH  30  31
ATOM     31  C   UNL     1       6.004   3.334  12.758  0.00  0.00    +0.000 C 
BRANCH  31  32
ATOM     32  O   UNL     1       4.706   3.805  12.371  0.00  0.00    +0.000 OA
ATOM     33  C   UNL     1       4.168   3.039  11.300  0.00  0.00    +0.000 C 
ENDBRANCH  31  32
ENDBRANCH  30  31
ENDBRANCH  27  30
ENDBRANCH   5  24
BRANCH   1  35
ATOM     34  C   UNL     1       1.095   4.645  20.644  0.00  0.00    +0.000 C 
ATOM     35  C   UNL     1       1.516   6.088  20.398  0.00  0.00    +0.000 C 
ENDBRANCH   1  35
TORSDOF 8
ENDMDL
MODEL 2
REMARK VINA RESULT:      -8.1      3.093     11.726
REMARK  Name = 
REMARK  11 active torsions:
REMARK  status: ('A' for Active; 'I' for Inactive)
REMARK    1  A    between atoms: C_1  and  C_2
REMARK    2  A    between atoms: C_2  and  C_3
REMARK    3  A    between atoms: C_5  and  C_6
REMARK    4  A    between atoms: C_7  and  C_8
REMARK    5  A    between atoms: C_11  and  C_12
REMARK    6  A    between atoms: C_12  and  C_13
REMARK    7  A    between atoms: C_13  and  O_14
REMARK    8  A    between atoms: O_14  and  C_15
REMARK    9  A    between atoms: C_18  and  C_19
REMARK   10  A    between atoms: C_24  and  C_25
REMARK   11  A    between atoms: C_28  and  C_29
REMARK                            x       y       z     vdW  Elec       q    Type
REMARK                         _______ _______ _______ _____ _____    ______ ____
ROOT
ATOM      1  C   UNL     1       0.460  13.112  21.177  0.00  0.00    +0.000 A 
ATOM      2  C   UNL     1       0.043  13.906  22.295  0.00  0.00    +0.000 A 
ATOM      3  C   UNL     1      -1.179  13.760  22.962  0.00  0.00    +0.000 A 
ATOM      4  C   UNL     1      -1.506  14.714  24.086  0.00  0.00    +0.000 C 
ATOM      5  C   UNL     1      -2.048  12.762  22.523  0.00  0.00    +0.000 A 
ATOM      6  C   UNL     1      -1.606  11.935  21.452  0.00  0.00    +0.000 A 
ATOM      7  C   UNL     1      -0.357  12.061  20.729  0.00  0.00    +0.000 A 
ENDROOT
BRANCH   7   8
ATOM      8  C   UNL     1      -0.248  11.046  19.563  0.00  0.00    +0.000 C 
ATOM      9  O   UNL     1      -1.002  11.328  18.611  0.00  0.00    +0.000 OA
ATOM     10  N   UNL     1       0.573   9.901  19.357  0.00  0.00    +0.000 N 
ATOM     11  C   UNL     1       0.583   9.394  17.970  0.00  0.00    +0.000 C 
ATOM     12  C   UNL     1       1.907   8.717  17.617  0.00  0.00    +0.000 C 
ATOM     13  C   UNL     1       2.019   7.396  18.386  0.00  0.00    +0.000 C 
ATOM     14  C   UNL     1       1.493   7.572  19.833  0.00  0.00    +0.000 C 
ATOM     15  C   UNL     1       1.317   9.047  20.291  0.00  0.00    +0.000 C 
BRANCH  13  16
ATOM     16  C   UNL     1       3.396   6.739  18.253  0.00  0.00    +0.000 A 
ATOM     17  C   UNL     1       4.317   7.118  17.268  0.00  0.00    +0.000 A 
ATOM     18  C   UNL     1       5.568   6.483  17.163  0.00  0.00    +0.000 A 
ATOM     19  C   UNL     1       5.928   5.455  18.040  0.00  0.00    +0.000 A 
ATOM     20  C   UNL     1       5.019   5.065  19.026  0.00  0.00    +0.000 A 
ATOM     21  C   UNL     1       3.768   5.698  19.128  0.00  0.00    +0.000 A 
BRANCH  19  22
ATOM     22  C   UNL     1       7.203   4.815  17.934  0.00  0.00    +0.000 C 
ATOM     23  N   UNL     1       8.241   4.294  17.846  0.00  0.00    +0.000 NA
ENDBRANCH  19  22
ENDBRANCH  13  16
ENDBRANCH   7   8
BRANCH   5  24
ATOM     24  C   UNL     1      -3.379  12.585  23.140  0.00  0.00    +0.000 A 
ATOM     25  N   UNL     1      -3.676  11.876  24.218  0.00  0.00    +0.000 NA
ATOM     26  N   UNL     1      -5.019  11.986  24.484  0.00  0.00    +0.000 NA
ATOM     27  C   UNL     1      -5.541  12.763  23.564  0.00  0.00    +0.000 A 
ATOM     28  N   UNL     1      -4.544  13.176  22.717  0.00  0.00    +0.000 N 
ATOM     29  H   UNL     1      -4.671  13.807  21.937  0.00  0.00    +0.000 HD
BRANCH  27  30
ATOM     30  C   UNL     1      -6.980  13.103  23.381  0.00  0.00    +0.000 C 
BRANCH  30  31
ATOM     31  C   UNL     1      -7.708  12.160  22.426  0.00  0.00    +0.000 C 
BRANCH  31  32
ATOM     32  O   UNL     1      -6.749  11.495  21.592  0.00  0.00    +0.000 OA
ATOM     33  C   UNL     1      -7.274  11.227  20.298  0.00  0.00    +0.000 C 
ENDBRANCH  31  32
ENDBRANCH  30  31
ENDBRANCH  27  30
ENDBRANCH   5  24
BRANCH   1  35
ATOM     34  C   UNL     1       1.608  14.679  19.595  0.00  0.00    +0.000 C 
ATOM     35  C   UNL     1       1.778  13.571  20.626  0.00  0.00    +0.000 C 
ENDBRANCH   1  35
TORSDOF 8
ENDMDL
MODEL 3
REMARK VINA RESULT:      -7.8      3.965     12.070
REMARK  Name = 
REMARK  11 active torsions:
REMARK  status: ('A' for Active; 'I' for Inactive)
REMARK    1  A    between atoms: C_1  and  C_2
REMARK    2  A    between atoms: C_2  and  C_3
REMARK    3  A    between atoms: C_5  and  C_6
REMARK    4  A    between atoms: C_7  and  C_8
REMARK    5  A    between atoms: C_11  and  C_12
REMARK    6  A    between atoms: C_12  and  C_13
REMARK    7  A    between atoms: C_13  and  O_14
REMARK    8  A    between atoms: O_14  and  C_15
REMARK    9  A    between atoms: C_18  and  C_19
REMARK   10  A    between atoms: C_24  and  C_25
REMARK   11  A    between atoms: C_28  and  C_29
REMARK                            x       y       z     vdW  Elec       q    Type
REMARK                         _______ _______ _______ _____ _____    ______ ____
ROOT
ATOM      1  C   UNL     1      -3.351  11.561  17.320  0.00  0.00    +0.000 A 
ATOM      2  C   UNL     1      -4.759  11.774  17.146  0.00  0.00    +0.000 A 
ATOM      3  C   UNL     1      -5.664  11.998  18.190  0.00  0.00    +0.000 A 
ATOM      4  C   UNL     1      -7.128  12.143  17.855  0.00  0.00    +0.000 C 
ATOM      5  C   UNL     1      -5.164  12.036  19.491  0.00  0.00    +0.000 A 
ATOM      6  C   UNL     1      -3.758  11.885  19.656  0.00  0.00    +0.000 A 
ATOM      7  C   UNL     1      -2.792  11.640  18.606  0.00  0.00    +0.000 A 
ENDROOT
BRANCH   7   8
ATOM      8  C   UNL     1      -1.359  11.437  19.160  0.00  0.00    +0.000 C 
ATOM      9  O   UNL     1      -1.032  12.321  19.976  0.00  0.00    +0.000 OA
ATOM     10  N   UNL     1      -0.381  10.422  18.955  0.00  0.00    +0.000 N 
ATOM     11  C   UNL     1       0.736  10.442  19.920  0.00  0.00    +0.000 C 
ATOM     12  C   UNL     1       1.317   9.047  20.152  0.00  0.00    +0.000 C 
ATOM     13  C   UNL     1       2.060   8.593  18.891  0.00  0.00    +0.000 C 
ATOM     14  C   UNL     1       1.264   9.002  17.624  0.00  0.00    +0.000 C 
ATOM     15  C   UNL     1      -0.206   9.432  17.884  0.00  0.00    +0.000 C 
BRANCH  13  16
ATOM     16  C   UNL     1       2.507   7.129  18.952  0.00  0.00    +0.000 A 
ATOM     17  C   UNL     1       3.239   6.525  17.921  0.00  0.00    +0.000 A 
ATOM     18  C   UNL     1       3.620   5.173  18.000  0.00  0.00    +0.000 A 
ATOM     19  C   UNL     1       3.281   4.395  19.112  0.00  0.00    +0.000 A 
ATOM     20  C   UNL     1       2.550   4.983  20.145  0.00  0.00    +0.000 A 
ATOM     21  C   UNL     1       2.167   6.333  20.063  0.00  0.00    +0.000 A 
BRANCH  19  22
ATOM     22  C   UNL     1       3.675   3.021  19.191  0.00  0.00    +0.000 C 
ATOM     23  N   UNL     1       3.996   1.903  19.255  0.00  0.00    +0.000 NA
ENDBRANCH  19  22
ENDBRANCH  13  16
ENDBRANCH   7   8
BRANCH   5  24
ATOM     24  C   UNL     1      -6.066  12.211  20.648  0.00  0.00    +0.000 A 
ATOM     25  N   UNL     1      -6.866  11.305  21.186  0.00  0.00    +0.000 NA
ATOM     26  N   UNL     1      -7.520  11.851  22.263  0.00  0.00    +0.000 NA
ATOM     27  C   UNL     1      -7.117  13.094  22.381  0.00  0.00    +0.000 A 
ATOM     28  N   UNL     1      -6.191  13.352  21.402  0.00  0.00    +0.000 N 
ATOM     29  H   UNL     1      -5.700  14.229  21.286  0.00  0.00    +0.000 HD
BRANCH  27  30
ATOM     30  C   UNL     1      -7.611  14.116  23.346  0.00  0.00    +0.000 C 
BRANCH  30  31
ATOM     31  C   UNL     1      -6.795  15.407  23.332  0.00  0.00    +0.000 C 
BRANCH  31  32
ATOM     32  O   UNL     1      -5.493  15.151  23.875  0.00  0.00    +0.000 OA
ATOM     33  C   UNL     1      -4.516  16.033  23.337  0.00  0.00    +0.000 C 
ENDBRANCH  31  32
ENDBRANCH  30  31
ENDBRANCH  27  30
ENDBRANCH   5  24
BRANCH   1  35
ATOM     34  C   UNL     1      -3.241  10.013  15.352  0.00  0.00    +0.000 C 
ATOM     35  C   UNL     1      -2.667  11.257  16.019  0.00  0.00    +0.000 C 
ENDBRANCH   1  35
TORSDOF 8
ENDMDL
MODEL 4
REMARK VINA RESULT:      -7.6      3.076     12.160
REMARK  Name = 
REMARK  11 active torsions:
REMARK  status: ('A' for Active; 'I' for Inactive)
REMARK    1  A    between atoms: C_1  and  C_2
REMARK    2  A    between atoms: C_2  and  C_3
REMARK    3  A    between atoms: C_5  and  C_6
REMARK    4  A    between atoms: C_7  and  C_8
REMARK    5  A    between atoms: C_11  and  C_12
REMARK    6  A    between atoms: C_12  and  C_13
REMARK    7  A    between atoms: C_13  and  O_14
REMARK    8  A    between atoms: O_14  and  C_15
REMARK    9  A    between atoms: C_18  and  C_19
REMARK   10  A    between atoms: C_24  and  C_25
REMARK   11  A    between atoms: C_28  and  C_29
REMARK                            x       y       z     vdW  Elec       q    Type
REMARK                         _______ _______ _______ _____ _____    ______ ____
ROOT
ATOM      1  C   UNL     1       0.617  13.134  21.032  0.00  0.00    +0.000 A 
ATOM      2  C   UNL     1       0.197  13.969  22.119  0.00  0.00    +0.000 A 
ATOM      3  C   UNL     1      -1.039  13.867  22.769  0.00  0.00    +0.000 A 
ATOM      4  C   UNL     1      -1.365  14.860  23.857  0.00  0.00    +0.000 C 
ATOM      5  C   UNL     1      -1.920  12.873  22.344  0.00  0.00    +0.000 A 
ATOM      6  C   UNL     1      -1.476  12.006  21.305  0.00  0.00    +0.000 A 
ATOM      7  C   UNL     1      -0.213  12.086  20.602  0.00  0.00    +0.000 A 
ENDROOT
BRANCH   7   8
ATOM      8  C   UNL     1      -0.104  11.035  19.468  0.00  0.00    +0.000 C 
ATOM      9  O   UNL     1      -0.863  11.283  18.510  0.00  0.00    +0.000 OA
ATOM     10  N   UNL     1       0.721   9.887  19.295  0.00  0.00    +0.000 N 
ATOM     11  C   UNL     1       0.727   9.336  17.925  0.00  0.00    +0.000 C 
ATOM     12  C   UNL     1       2.053   8.653  17.588  0.00  0.00    +0.000 C 
ATOM     13  C   UNL     1       2.173   7.358  18.398  0.00  0.00    +0.000 C 
ATOM     14  C   UNL     1       1.652   7.578  19.842  0.00  0.00    +0.000 C 
ATOM     15  C   UNL     1       1.472   9.066  20.253  0.00  0.00    +0.000 C 
BRANCH  13  16
ATOM     16  C   UNL     1       3.552   6.702  18.282  0.00  0.00    +0.000 A 
ATOM     17  C   UNL     1       4.444   7.011  17.247  0.00  0.00    +0.000 A 
ATOM     18  C   UNL     1       5.698   6.378  17.158  0.00  0.00    +0.000 A 
ATOM     19  C   UNL     1       6.089   5.424  18.103  0.00  0.00    +0.000 A 
ATOM     20  C   UNL     1       5.209   5.105  19.139  0.00  0.00    +0.000 A 
ATOM     21  C   UNL     1       3.956   5.736  19.224  0.00  0.00    +0.000 A 
BRANCH  19  22
ATOM     22  C   UNL     1       7.367   4.786  18.013  0.00  0.00    +0.000 C 
ATOM     23  N   UNL     1       8.408   4.267  17.939  0.00  0.00    +0.000 NA
ENDBRANCH  19  22
ENDBRANCH  13  16
ENDBRANCH   7   8
BRANCH   5  24
ATOM     24  C   UNL     1      -3.265  12.741  22.942  0.00  0.00    +0.000 A 
ATOM     25  N   UNL     1      -3.618  11.971  23.959  0.00  0.00    +0.000 NA
ATOM     26  N   UNL     1      -4.952  12.153  24.230  0.00  0.00    +0.000 NA
ATOM     27  C   UNL     1      -5.412  13.035  23.374  0.00  0.00    +0.000 A 
ATOM     28  N   UNL     1      -4.382  13.443  22.565  0.00  0.00    +0.000 N 
ATOM     29  H   UNL     1      -4.460  14.142  21.838  0.00  0.00    +0.000 HD
BRANCH  27  30
ATOM     30  C   UNL     1      -6.822  13.488  23.217  0.00  0.00    +0.000 C 
BRANCH  30  31
ATOM     31  C   UNL     1      -7.133  14.775  23.978  0.00  0.00    +0.000 C 
BRANCH  31  32
ATOM     32  O   UNL     1      -5.926  15.532  24.144  0.00  0.00    +0.000 OA
ATOM     33  C   UNL     1      -6.069  16.861  23.659  0.00  0.00    +0.000 C 
ENDBRANCH  31  32
ENDBRANCH  30  31
ENDBRANCH  27  30
ENDBRANCH   5  24
BRANCH   1  35
ATOM     34  C   UNL     1       1.833  14.706  19.506  0.00  0.00    +0.000 C 
ATOM     35  C   UNL     1       1.954  13.551  20.491  0.00  0.00    +0.000 C 
ENDBRANCH   1  35
TORSDOF 8
ENDMDL
MODEL 5
REMARK VINA RESULT:      -7.6      3.020     11.654
REMARK  Name = 
REMARK  11 active torsions:
REMARK  status: ('A' for Active; 'I' for Inactive)
REMARK    1  A    between atoms: C_1  and  C_2
REMARK    2  A    between atoms: C_2  and  C_3
REMARK    3  A    between atoms: C_5  and  C_6
REMARK    4  A    between atoms: C_7  and  C_8
REMARK    5  A    between atoms: C_11  and  C_12
REMARK    6  A    between atoms: C_12  and  C_13
REMARK    7  A    between atoms: C_13  and  O_14
REMARK    8  A    between atoms: O_14  and  C_15
REMARK    9  A    between atoms: C_18  and  C_19
REMARK   10  A    between atoms: C_24  and  C_25
REMARK   11  A    between atoms: C_28  and  C_29
REMARK                            x       y       z     vdW  Elec       q    Type
REMARK                         _______ _______ _______ _____ _____    ______ ____
ROOT
ATOM      1  C   UNL     1       0.573  13.081  21.035  0.00  0.00    +0.000 A 
ATOM      2  C   UNL     1       0.121  13.875  22.140  0.00  0.00    +0.000 A 
ATOM      3  C   UNL     1      -1.129  13.740  22.757  0.00  0.00    +0.000 A 
ATOM      4  C   UNL     1      -1.489  14.692  23.871  0.00  0.00    +0.000 C 
ATOM      5  C   UNL     1      -1.990  12.754  22.279  0.00  0.00    +0.000 A 
ATOM      6  C   UNL     1      -1.516  11.927  21.222  0.00  0.00    +0.000 A 
ATOM      7  C   UNL     1      -0.238  12.041  20.550  0.00  0.00    +0.000 A 
ENDROOT
BRANCH   7   8
ATOM      8  C   UNL     1      -0.094  11.031  19.385  0.00  0.00    +0.000 C 
ATOM      9  O   UNL     1      -0.786  11.340  18.395  0.00  0.00    +0.000 OA
ATOM     10  N   UNL     1       0.704   9.863  19.215  0.00  0.00    +0.000 N 
ATOM     11  C   UNL     1       0.776   9.365  17.827  0.00  0.00    +0.000 C 
ATOM     12  C   UNL     1       2.098   8.652  17.542  0.00  0.00    +0.000 C 
ATOM     13  C   UNL     1       2.130   7.323  18.306  0.00  0.00    +0.000 C 
ATOM     14  C   UNL     1       1.530   7.507  19.724  0.00  0.00    +0.000 C 
ATOM     15  C   UNL     1       1.371   8.983  20.182  0.00  0.00    +0.000 C 
BRANCH  13  16
ATOM     16  C   UNL     1       3.493   6.628  18.244  0.00  0.00    +0.000 A 
ATOM     17  C   UNL     1       3.997   5.870  19.309  0.00  0.00    +0.000 A 
ATOM     18  C   UNL     1       5.261   5.258  19.228  0.00  0.00    +0.000 A 
ATOM     19  C   UNL     1       6.049   5.386  18.079  0.00  0.00    +0.000 A 
ATOM     20  C   UNL     1       5.559   6.140  17.011  0.00  0.00    +0.000 A 
ATOM     21  C   UNL     1       4.298   6.754  17.095  0.00  0.00    +0.000 A 
BRANCH  19  22
ATOM     22  C   UNL     1       7.332   4.757  17.997  0.00  0.00    +0.000 C 
ATOM     23  N   UNL     1       8.375   4.244  17.931  0.00  0.00    +0.000 NA
ENDBRANCH  19  22
ENDBRANCH  13  16
ENDBRANCH   7   8
BRANCH   5  24
ATOM     24  C   UNL     1      -3.347  12.590  22.842  0.00  0.00    +0.000 A 
ATOM     25  N   UNL     1      -3.671  12.072  24.016  0.00  0.00    +0.000 NA
ATOM     26  N   UNL     1      -5.034  12.123  24.179  0.00  0.00    +0.000 NA
ATOM     27  C   UNL     1      -5.541  12.672  23.100  0.00  0.00    +0.000 A 
ATOM     28  N   UNL     1      -4.516  12.997  22.248  0.00  0.00    +0.000 N 
ATOM     29  H   UNL     1      -4.630  13.461  21.356  0.00  0.00    +0.000 HD
BRANCH  27  30
ATOM     30  C   UNL     1      -6.983  12.857  22.774  0.00  0.00    +0.000 C 
BRANCH  30  31
ATOM     31  C   UNL     1      -7.222  13.352  21.349  0.00  0.00    +0.000 C 
BRANCH  31  32
ATOM     32  O   UNL     1      -6.900  12.306  20.422  0.00  0.00    +0.000 OA
ATOM     33  C   UNL     1      -7.622  11.114  20.704  0.00  0.00    +0.000 C 
ENDBRANCH  31  32
ENDBRANCH  30  31
ENDBRANCH  27  30
ENDBRANCH   5  24
BRANCH   1  35
ATOM     34  C   UNL     1       2.514  14.618  21.420  0.00  0.00    +0.000 C 
ATOM     35  C   UNL     1       1.917  13.527  20.540  0.00  0.00    +0.000 C 
ENDBRANCH   1  35
TORSDOF 8
ENDMDL
MODEL 6
REMARK VINA RESULT:      -7.6      3.987     12.272
REMARK  Name = 
REMARK  11 active torsions:
REMARK  status: ('A' for Active; 'I' for Inactive)
REMARK    1  A    between atoms: C_1  and  C_2
REMARK    2  A    between atoms: C_2  and  C_3
REMARK    3  A    between atoms: C_5  and  C_6
REMARK    4  A    between atoms: C_7  and  C_8
REMARK    5  A    between atoms: C_11  and  C_12
REMARK    6  A    between atoms: C_12  and  C_13
REMARK    7  A    between atoms: C_13  and  O_14
REMARK    8  A    between atoms: O_14  and  C_15
REMARK    9  A    between atoms: C_18  and  C_19
REMARK   10  A    between atoms: C_24  and  C_25
REMARK   11  A    between atoms: C_28  and  C_29
REMARK                            x       y       z     vdW  Elec       q    Type
REMARK                         _______ _______ _______ _____ _____    ______ ____
ROOT
ATOM      1  C   UNL     1      -3.316  11.460  17.263  0.00  0.00    +0.000 A 
ATOM      2  C   UNL     1      -4.703  11.731  17.020  0.00  0.00    +0.000 A 
ATOM      3  C   UNL     1      -5.624  12.111  18.004  0.00  0.00    +0.000 A 
ATOM      4  C   UNL     1      -7.067  12.301  17.606  0.00  0.00    +0.000 C 
ATOM      5  C   UNL     1      -5.160  12.257  19.311  0.00  0.00    +0.000 A 
ATOM      6  C   UNL     1      -3.771  12.046  19.539  0.00  0.00    +0.000 A 
ATOM      7  C   UNL     1      -2.790  11.641  18.553  0.00  0.00    +0.000 A 
ENDROOT
BRANCH   7   8
ATOM      8  C   UNL     1      -1.388  11.419  19.175  0.00  0.00    +0.000 C 
ATOM      9  O   UNL     1      -1.097  12.286  20.021  0.00  0.00    +0.000 OA
ATOM     10  N   UNL     1      -0.408  10.400  19.001  0.00  0.00    +0.000 N 
ATOM     11  C   UNL     1       0.660  10.396  20.020  0.00  0.00    +0.000 C 
ATOM     12  C   UNL     1       1.220   8.993  20.258  0.00  0.00    +0.000 C 
ATOM     13  C   UNL     1       2.021   8.554  19.027  0.00  0.00    +0.000 C 
ATOM     14  C   UNL     1       1.292   8.990  17.730  0.00  0.00    +0.000 C 
ATOM     15  C   UNL     1      -0.186   9.427  17.924  0.00  0.00    +0.000 C 
BRANCH  13  16
ATOM     16  C   UNL     1       2.455   7.086  19.086  0.00  0.00    +0.000 A 
ATOM     17  C   UNL     1       2.149   6.256  20.172  0.00  0.00    +0.000 A 
ATOM     18  C   UNL     1       2.578   4.916  20.202  0.00  0.00    +0.000 A 
ATOM     19  C   UNL     1       3.320   4.375  19.148  0.00  0.00    +0.000 A 
ATOM     20  C   UNL     1       3.634   5.192  18.060  0.00  0.00    +0.000 A 
ATOM     21  C   UNL     1       3.208   6.531  18.032  0.00  0.00    +0.000 A 
BRANCH  19  22
ATOM     22  C   UNL     1       3.750   3.010  19.179  0.00  0.00    +0.000 C 
ATOM     23  N   UNL     1       4.098   1.899  19.205  0.00  0.00    +0.000 NA
ENDBRANCH  19  22
ENDBRANCH  13  16
ENDBRANCH   7   8
BRANCH   5  24
ATOM     24  C   UNL     1      -6.083  12.600  20.413  0.00  0.00    +0.000 A 
ATOM     25  N   UNL     1      -6.757  11.763  21.185  0.00  0.00    +0.000 NA
ATOM     26  N   UNL     1      -7.484  12.474  22.108  0.00  0.00    +0.000 NA
ATOM     27  C   UNL     1      -7.252  13.749  21.896  0.00  0.00    +0.000 A 
ATOM     28  N   UNL     1      -6.364  13.869  20.857  0.00  0.00    +0.000 N 
ATOM     29  H   UNL     1      -5.995  14.744  20.509  0.00  0.00    +0.000 HD
BRANCH  27  30
ATOM     30  C   UNL     1      -7.884  14.907  22.586  0.00  0.00    +0.000 C 
BRANCH  30  31
ATOM     31  C   UNL     1      -7.257  16.249  22.213  0.00  0.00    +0.000 C 
BRANCH  31  32
ATOM     32  O   UNL     1      -6.946  16.977  23.409  0.00  0.00    +0.000 OA
ATOM     33  C   UNL     1      -5.817  16.430  24.078  0.00  0.00    +0.000 C 
ENDBRANCH  31  32
ENDBRANCH  30  31
ENDBRANCH  27  30
ENDBRANCH   5  24
BRANCH   1  35
ATOM     34  C   UNL     1      -3.586  10.400  15.009  0.00  0.00    +0.000 C 
ATOM     35  C   UNL     1      -2.614  10.986  16.025  0.00  0.00    +0.000 C 
ENDBRANCH   1  35
TORSDOF 8
ENDMDL
MODEL 7
REMARK VINA RESULT:      -7.5      1.043      1.103
REMARK  Name = 
REMARK  11 active torsions:
REMARK  status: ('A' for Active; 'I' for Inactive)
REMARK    1  A    between atoms: C_1  and  C_2
REMARK    2  A    between atoms: C_2  and  C_3
REMARK    3  A    between atoms: C_5  and  C_6
REMARK    4  A    between atoms: C_7  and  C_8
REMARK    5  A    between atoms: C_11  and  C_12
REMARK    6  A    between atoms: C_12  and  C_13
REMARK    7  A    between atoms: C_13  and  O_14
REMARK    8  A    between atoms: O_14  and  C_15
REMARK    9  A    between atoms: C_18  and  C_19
REMARK   10  A    between atoms: C_24  and  C_25
REMARK   11  A    between atoms: C_28  and  C_29
REMARK                            x       y       z     vdW  Elec       q    Type
REMARK                         _______ _______ _______ _____ _____    ______ ____
ROOT
ATOM      1  C   UNL     1       2.408   5.707  19.257  0.00  0.00    +0.000 A 
ATOM      2  C   UNL     1       2.985   4.404  19.095  0.00  0.00    +0.000 A 
ATOM      3  C   UNL     1       3.866   4.047  18.067  0.00  0.00    +0.000 A 
ATOM      4  C   UNL     1       4.344   2.618  17.990  0.00  0.00    +0.000 C 
ATOM      5  C   UNL     1       4.225   5.029  17.144  0.00  0.00    +0.000 A 
ATOM      6  C   UNL     1       3.698   6.337  17.342  0.00  0.00    +0.000 A 
ATOM      7  C   UNL     1       2.777   6.743  18.383  0.00  0.00    +0.000 A 
ENDROOT
BRANCH   7   8
ATOM      8  C   UNL     1       2.343   8.223  18.239  0.00  0.00    +0.000 C 
ATOM      9  O   UNL     1       2.664   8.712  17.138  0.00  0.00    +0.000 OA
ATOM     10  N   UNL     1       1.616   9.101  19.094  0.00  0.00    +0.000 N 
ATOM     11  C   UNL     1       1.145  10.340  18.444  0.00  0.00    +0.000 C 
ATOM     12  C   UNL     1      -0.146  10.863  19.075  0.00  0.00    +0.000 C 
ATOM     13  C   UNL     1       0.159  11.396  20.479  0.00  0.00    +0.000 C 
ATOM     14  C   UNL     1       1.161  10.459  21.202  0.00  0.00    +0.000 C 
ATOM     15  C   UNL     1       1.352   9.067  20.538  0.00  0.00    +0.000 C 
BRANCH  13  16
ATOM     16  C   UNL     1      -1.102  11.759  21.270  0.00  0.00    +0.000 A 
ATOM     17  C   UNL     1      -1.250  11.449  22.628  0.00  0.00    +0.000 A 
ATOM     18  C   UNL     1      -2.429  11.781  23.322  0.00  0.00    +0.000 A 
ATOM     19  C   UNL     1      -3.484  12.432  22.675  0.00  0.00    +0.000 A 
ATOM     20  C   UNL     1      -3.350  12.745  21.321  0.00  0.00    +0.000 A 
ATOM     21  C   UNL     1      -2.174  12.410  20.628  0.00  0.00    +0.000 A 
BRANCH  19  22
ATOM     22  C   UNL     1      -4.679  12.774  23.385  0.00  0.00    +0.000 C 
ATOM     23  N   UNL     1      -5.651  13.051  23.964  0.00  0.00    +0.000 NA
ENDBRANCH  19  22
ENDBRANCH  13  16
ENDBRANCH   7   8
BRANCH   5  24
ATOM     24  C   UNL     1       5.105   4.714  15.999  0.00  0.00    +0.000 A 
ATOM     25  N   UNL     1       6.419   4.858  15.934  0.00  0.00    +0.000 NA
ATOM     26  N   UNL     1       6.868   4.427  14.710  0.00  0.00    +0.000 NA
ATOM     27  C   UNL     1       5.823   4.021  14.027  0.00  0.00    +0.000 A 
ATOM     28  N   UNL     1       4.704   4.164  14.807  0.00  0.00    +0.000 N 
ATOM     29  H   UNL     1       3.768   3.897  14.531  0.00  0.00    +0.000 HD
BRANCH  27  30
ATOM     30  C   UNL     1       5.796   3.551  12.614  0.00  0.00    +0.000 C 
BRANCH  30  31
ATOM     31  C   UNL     1       7.137   3.706  11.899  0.00  0.00    +0.000 C 
BRANCH  31  32
ATOM     32  O   UNL     1       7.642   2.410  11.551  0.00  0.00    +0.000 OA
ATOM     33  C   UNL     1       6.622   1.574  11.019  0.00  0.00    +0.000 C 
ENDBRANCH  31  32
ENDBRANCH  30  31
ENDBRANCH  27  30
ENDBRANCH   5  24
BRANCH   1  35
ATOM     34  C   UNL     1       0.927   4.358  20.762  0.00  0.00    +0.000 C 
ATOM     35  C   UNL     1       1.433   5.748  20.397  0.00  0.00    +0.000 C 
ENDBRANCH   1  35
TORSDOF 8
ENDMDL
MODEL 8
REMARK VINA RESULT:      -7.2      4.034     12.239
REMARK  Name = 
REMARK  11 active torsions:
REMARK  status: ('A' for Active; 'I' for Inactive)
REMARK    1  A    between atoms: C_1  and  C_2
REMARK    2  A    between atoms: C_2  and  C_3
REMARK    3  A    between atoms: C_5  and  C_6
REMARK    4  A    between atoms: C_7  and  C_8
REMARK    5  A    between atoms: C_11  and  C_12
REMARK    6  A    between atoms: C_12  and  C_13
REMARK    7  A    between atoms: C_13  and  O_14
REMARK    8  A    between atoms: O_14  and  C_15
REMARK    9  A    between atoms: C_18  and  C_19
REMARK   10  A    between atoms: C_24  and  C_25
REMARK   11  A    between atoms: C_28  and  C_29
REMARK                            x       y       z     vdW  Elec       q    Type
REMARK                         _______ _______ _______ _____ _____    ______ ____
ROOT
ATOM      1  C   UNL     1      -3.720  11.070  17.582  0.00  0.00    +0.000 A 
ATOM      2  C   UNL     1      -5.056  11.462  17.240  0.00  0.00    +0.000 A 
ATOM      3  C   UNL     1      -5.840  12.352  17.985  0.00  0.00    +0.000 A 
ATOM      4  C   UNL     1      -7.254  12.621  17.532  0.00  0.00    +0.000 C 
ATOM      5  C   UNL     1      -5.279  12.913  19.131  0.00  0.00    +0.000 A 
ATOM      6  C   UNL     1      -3.932  12.569  19.436  0.00  0.00    +0.000 A 
ATOM      7  C   UNL     1      -3.093  11.646  18.700  0.00  0.00    +0.000 A 
ENDROOT
BRANCH   7   8
ATOM      8  C   UNL     1      -1.711  11.443  19.371  0.00  0.00    +0.000 C 
ATOM      9  O   UNL     1      -1.505  12.251  20.297  0.00  0.00    +0.000 OA
ATOM     10  N   UNL     1      -0.671  10.491  19.165  0.00  0.00    +0.000 N 
ATOM     11  C   UNL     1       0.348  10.456  20.233  0.00  0.00    +0.000 C 
ATOM     12  C   UNL     1       0.970   9.067  20.385  0.00  0.00    +0.000 C 
ATOM     13  C   UNL     1       1.848   8.771  19.165  0.00  0.00    +0.000 C 
ATOM     14  C   UNL     1       1.157   9.275  17.872  0.00  0.00    +0.000 C 
ATOM     15  C   UNL     1      -0.350   9.621  18.027  0.00  0.00    +0.000 C 
BRANCH  13  16
ATOM     16  C   UNL     1       2.357   7.327  19.128  0.00  0.00    +0.000 A 
ATOM     17  C   UNL     1       3.090   6.817  18.048  0.00  0.00    +0.000 A 
ATOM     18  C   UNL     1       3.528   5.480  18.037  0.00  0.00    +0.000 A 
ATOM     19  C   UNL     1       3.245   4.623  19.106  0.00  0.00    +0.000 A 
ATOM     20  C   UNL     1       2.514   5.117  20.187  0.00  0.00    +0.000 A 
ATOM     21  C   UNL     1       2.074   6.451  20.195  0.00  0.00    +0.000 A 
BRANCH  19  22
ATOM     22  C   UNL     1       3.698   3.265  19.094  0.00  0.00    +0.000 C 
ATOM     23  N   UNL     1       4.065   2.159  19.084  0.00  0.00    +0.000 NA
ENDBRANCH  19  22
ENDBRANCH  13  16
ENDBRANCH   7   8
BRANCH   5  24
ATOM     24  C   UNL     1      -6.064  13.816  20.000  0.00  0.00    +0.000 A 
ATOM     25  N   UNL     1      -6.720  14.907  19.638  0.00  0.00    +0.000 NA
ATOM     26  N   UNL     1      -7.345  15.450  20.733  0.00  0.00    +0.000 NA
ATOM     27  C   UNL     1      -7.067  14.688  21.765  0.00  0.00    +0.000 A 
ATOM     28  N   UNL     1      -6.285  13.643  21.344  0.00  0.00    +0.000 N 
ATOM     29  H   UNL     1      -5.955  12.892  21.935  0.00  0.00    +0.000 HD
BRANCH  27  30
ATOM     30  C   UNL     1      -7.446  14.922  23.187  0.00  0.00    +0.000 C 
BRANCH  30  31
ATOM     31  C   UNL     1      -6.368  15.649  23.988  0.00  0.00    +0.000 C 
BRANCH  31  32
ATOM     32  O   UNL     1      -5.135  14.923  23.892  0.00  0.00    +0.000 OA
ATOM     33  C   UNL     1      -4.043  15.670  24.415  0.00  0.00    +0.000 C 
ENDBRANCH  31  32
ENDBRANCH  30  31
ENDBRANCH  27  30
ENDBRANCH   5  24
BRANCH   1  35
ATOM     34  C   UNL     1      -2.860  10.625  15.272  0.00  0.00    +0.000 C 
ATOM     35  C   UNL     1      -3.182  10.035  16.638  0.00  0.00    +0.000 C 
ENDBRANCH   1  35
TORSDOF 8
ENDMDL
MODEL 9
REMARK VINA RESULT:      -6.9      4.049     12.066
REMARK  Name = 
REMARK  11 active torsions:
REMARK  status: ('A' for Active; 'I' for Inactive)
REMARK    1  A    between atoms: C_1  and  C_2
REMARK    2  A    between atoms: C_2  and  C_3
REMARK    3  A    between atoms: C_5  and  C_6
REMARK    4  A    between atoms: C_7  and  C_8
REMARK    5  A    between atoms: C_11  and  C_12
REMARK    6  A    between atoms: C_12  and  C_13
REMARK    7  A    between atoms: C_13  and  O_14
REMARK    8  A    between atoms: O_14  and  C_15
REMARK    9  A    between atoms: C_18  and  C_19
REMARK   10  A    between atoms: C_24  and  C_25
REMARK   11  A    between atoms: C_28  and  C_29
REMARK                            x       y       z     vdW  Elec       q    Type
REMARK                         _______ _______ _______ _____ _____    ______ ____
ROOT
ATOM      1  C   UNL     1      -3.060  11.205  17.167  0.00  0.00    +0.000 A 
ATOM      2  C   UNL     1      -4.411  11.578  16.863  0.00  0.00    +0.000 A 
ATOM      3  C   UNL     1      -5.343  12.029  17.806  0.00  0.00    +0.000 A 
ATOM      4  C   UNL     1      -6.749  12.325  17.346  0.00  0.00    +0.000 C 
ATOM      5  C   UNL     1      -4.926  12.143  19.132  0.00  0.00    +0.000 A 
ATOM      6  C   UNL     1      -3.568  11.830  19.421  0.00  0.00    +0.000 A 
ATOM      7  C   UNL     1      -2.579  11.350  18.478  0.00  0.00    +0.000 A 
ENDROOT
BRANCH   7   8
ATOM      8  C   UNL     1      -1.226  11.026  19.160  0.00  0.00    +0.000 C 
ATOM      9  O   UNL     1      -0.983  11.778  20.124  0.00  0.00    +0.000 OA
ATOM     10  N   UNL     1      -0.248  10.016  18.929  0.00  0.00    +0.000 N 
ATOM     11  C   UNL     1       0.747   9.866  20.009  0.00  0.00    +0.000 C 
ATOM     12  C   UNL     1       1.272   8.434  20.110  0.00  0.00    +0.000 C 
ATOM     13  C   UNL     1       2.151   8.132  18.891  0.00  0.00    +0.000 C 
ATOM     14  C   UNL     1       1.519   8.737  17.611  0.00  0.00    +0.000 C 
ATOM     15  C   UNL     1       0.036   9.176  17.758  0.00  0.00    +0.000 C 
BRANCH  13  16
ATOM     16  C   UNL     1       2.563   6.659  18.797  0.00  0.00    +0.000 A 
ATOM     17  C   UNL     1       3.725   6.166  19.404  0.00  0.00    +0.000 A 
ATOM     18  C   UNL     1       4.085   4.811  19.284  0.00  0.00    +0.000 A 
ATOM     19  C   UNL     1       3.289   3.918  18.559  0.00  0.00    +0.000 A 
ATOM     20  C   UNL     1       2.129   4.396  17.948  0.00  0.00    +0.000 A 
ATOM     21  C   UNL     1       1.773   5.751  18.065  0.00  0.00    +0.000 A 
BRANCH  19  22
ATOM     22  C   UNL     1       3.655   2.538  18.444  0.00  0.00    +0.000 C 
ATOM     23  N   UNL     1       3.951   1.416  18.352  0.00  0.00    +0.000 NA
ENDBRANCH  19  22
ENDBRANCH  13  16
ENDBRANCH   7   8
BRANCH   5  24
ATOM     24  C   UNL     1      -5.869  12.558  20.193  0.00  0.00    +0.000 A 
ATOM     25  N   UNL     1      -7.090  13.043  20.036  0.00  0.00    +0.000 NA
ATOM     26  N   UNL     1      -7.650  13.281  21.267  0.00  0.00    +0.000 NA
ATOM     27  C   UNL     1      -6.767  12.940  22.176  0.00  0.00    +0.000 A 
ATOM     28  N   UNL     1      -5.646  12.463  21.544  0.00  0.00    +0.000 N 
ATOM     29  H   UNL     1      -4.826  12.105  22.014  0.00  0.00    +0.000 HD
BRANCH  27  30
ATOM     30  C   UNL     1      -6.883  13.100  23.652  0.00  0.00    +0.000 C 
BRANCH  30  31
ATOM     31  C   UNL     1      -6.547  14.510  24.136  0.00  0.00    +0.000 C 
BRANCH  31  32
ATOM     32  O   UNL     1      -5.404  14.997  23.420  0.00  0.00    +0.000 OA
ATOM     33  C   UNL     1      -5.426  16.414  23.297  0.00  0.00    +0.000 C 
ENDBRANCH  31  32
ENDBRANCH  30  31
ENDBRANCH  27  30
ENDBRANCH   5  24
BRANCH   1  35
ATOM     34  C   UNL     1      -3.302  10.362  14.820  0.00  0.00    +0.000 C 
ATOM     35  C   UNL     1      -2.342  10.676  15.960  0.00  0.00    +0.000 C 
ENDBRANCH   1  35
TORSDOF 8
ENDMDL
