MODEL 1
REMARK VINA RESULT:      -8.4      0.000      0.000
REMARK  Name = 
REMARK  9 active torsions:
REMARK  status: ('A' for Active; 'I' for Inactive)
REMARK    1  A    between atoms: C_1  and  C_2
REMARK    2  A    between atoms: C_4  and  C_5
REMARK    3  A    between atoms: C_6  and  N_7
REMARK    4  A    between atoms: C_8  and  C_10
REMARK    5  A    between atoms: C_10  and  C_11
REMARK    6  A    between atoms: C_11  and  N_12
REMARK    7  A    between atoms: C_16  and  C_17
REMARK    8  A    between atoms: C_19  and  C_20
REMARK    9  A    between atoms: C_28  and  C_29
REMARK                            x       y       z     vdW  Elec       q    Type
REMARK                         _______ _______ _______ _____ _____    ______ ____
ROOT
ATOM      1  N   UNL     1       6.821   6.677  17.383  0.00  0.00    +0.000 NA
ATOM      2  C   UNL     1       7.478   5.454  16.900  0.00  0.00    +0.000 C 
ATOM      3  C   UNL     1       7.030   5.304  15.464  0.00  0.00    +0.000 C 
ATOM      4  C   UNL     1       5.583   5.742  15.512  0.00  0.00    +0.000 C 
ATOM      5  C   UNL     1       5.515   6.766  16.653  0.00  0.00    +0.000 C 
ENDROOT
BRANCH   5   6
ATOM      6  C   UNL     1       4.353   6.426  17.533  0.00  0.00    +0.000 A 
ATOM      7  N   UNL     1       4.011   5.262  18.037  0.00  0.00    +0.000 NA
ATOM      8  C   UNL     1       2.871   5.560  18.749  0.00  0.00    +0.000 A 
ATOM      9  N   UNL     1       2.478   6.841  18.637  0.00  0.00    +0.000 NA
ATOM     10  O   UNL     1       3.473   7.423  17.841  0.00  0.00    +0.000 OA
BRANCH   8  11
ATOM     11  C   UNL     1       2.231   4.556  19.587  0.00  0.00    +0.000 A 
ATOM     12  C   UNL     1       2.542   4.504  20.950  0.00  0.00    +0.000 A 
ATOM     13  C   UNL     1       1.939   3.537  21.732  0.00  0.00    +0.000 A 
ATOM     14  N   UNL     1       1.051   2.641  21.257  0.00  0.00    +0.000 NA
ATOM     15  C   UNL     1       0.745   2.724  19.943  0.00  0.00    +0.000 A 
ATOM     16  C   UNL     1       1.296   3.654  19.078  0.00  0.00    +0.000 A 
ENDBRANCH   8  11
ENDBRANCH   5   6
BRANCH   1  17
ATOM     17  C   UNL     1       7.672   7.866  17.214  0.00  0.00    +0.000 C 
BRANCH  17  18
ATOM     18  C   UNL     1       8.352   8.323  18.501  0.00  0.00    +0.000 C 
BRANCH  18  20
ATOM     19  N   UNL     1       9.662  10.097  19.594  0.00  0.00    +0.000 N 
ATOM     20  C   UNL     1       8.732   9.797  18.626  0.00  0.00    +0.000 C 
ATOM     21  O   UNL     1       8.232  10.615  17.854  0.00  0.00    +0.000 OA
ATOM     22  H   UNL     1      10.050   9.349  20.151  0.00  0.00    +0.000 HD
BRANCH  19  28
ATOM     23  C   UNL     1      10.986  15.468  21.105  0.00  0.00    +0.000 C 
ATOM     24  C   UNL     1      10.650  14.063  20.704  0.00  0.00    +0.000 A 
ATOM     25  C   UNL     1      11.225  13.489  19.567  0.00  0.00    +0.000 A 
ATOM     26  C   UNL     1      10.936  12.160  19.201  0.00  0.00    +0.000 A 
ATOM     27  C   UNL     1      11.481  11.667  17.899  0.00  0.00    +0.000 C 
ATOM     28  C   UNL     1      10.053  11.398  19.991  0.00  0.00    +0.000 A 
ATOM     29  C   UNL     1       9.412  11.990  21.097  0.00  0.00    +0.000 A 
ATOM     30  C   UNL     1       8.443  11.234  21.960  0.00  0.00    +0.000 C 
ATOM     31  C   UNL     1       9.753  13.303  21.466  0.00  0.00    +0.000 A 
ENDBRANCH  19  28
ENDBRANCH  18  20
ENDBRANCH  17  18
ENDBRANCH   1  17
TORSDOF 6
ENDMDL
MODEL 2
REMARK VINA RESULT:      -8.4      5.756      8.681
REMARK  Name = 
REMARK  9 active torsions:
REMARK  status: ('A' for Active; 'I' for Inactive)
REMARK    1  A    between atoms: C_1  and  C_2
REMARK    2  A    between atoms: C_4  and  C_5
REMARK    3  A    between atoms: C_6  and  N_7
REMARK    4  A    between atoms: C_8  and  C_10
REMARK    5  A    between atoms: C_10  and  C_11
REMARK    6  A    between atoms: C_11  and  N_12
REMARK    7  A    between atoms: C_16  and  C_17
REMARK    8  A    between atoms: C_19  and  C_20
REMARK    9  A    between atoms: C_28  and  C_29
REMARK                            x       y       z     vdW  Elec       q    Type
REMARK                         _______ _______ _______ _____ _____    ______ ____
ROOT
ATOM      1  N   UNL     1       3.035   5.945  18.181  0.00  0.00    +0.000 NA
ATOM      2  C   UNL     1       2.106   4.824  18.377  0.00  0.00    +0.000 C 
ATOM      3  C   UNL     1       2.551   4.159  19.659  0.00  0.00    +0.000 C 
ATOM      4  C   UNL     1       4.060   4.241  19.577  0.00  0.00    +0.000 C 
ATOM      5  C   UNL     1       4.346   5.509  18.762  0.00  0.00    +0.000 C 
ENDROOT
BRANCH   5   6
ATOM      6  C   UNL     1       5.351   5.180  17.702  0.00  0.00    +0.000 A 
ATOM      7  N   UNL     1       5.163   4.991  16.416  0.00  0.00    +0.000 NA
ATOM      8  C   UNL     1       6.433   4.720  15.958  0.00  0.00    +0.000 A 
ATOM      9  N   UNL     1       7.363   4.672  16.928  0.00  0.00    +0.000 NA
ATOM     10  O   UNL     1       6.647   4.995  18.088  0.00  0.00    +0.000 OA
BRANCH   8  11
ATOM     11  C   UNL     1       6.698   4.575  14.535  0.00  0.00    +0.000 A 
ATOM     12  C   UNL     1       5.974   3.631  13.797  0.00  0.00    +0.000 A 
ATOM     13  C   UNL     1       6.244   3.493  12.449  0.00  0.00    +0.000 A 
ATOM     14  N   UNL     1       7.163   4.230  11.794  0.00  0.00    +0.000 NA
ATOM     15  C   UNL     1       7.833   5.153  12.518  0.00  0.00    +0.000 A 
ATOM     16  C   UNL     1       7.637   5.366  13.872  0.00  0.00    +0.000 A 
ENDBRANCH   8  11
ENDBRANCH   5   6
BRANCH   1  17
ATOM     17  C   UNL     1       2.522   7.196  18.761  0.00  0.00    +0.000 C 
BRANCH  17  18
ATOM     18  C   UNL     1       2.443   8.350  17.764  0.00  0.00    +0.000 C 
BRANCH  18  20
ATOM     19  N   UNL     1       0.502   9.401  18.853  0.00  0.00    +0.000 N 
ATOM     20  C   UNL     1       1.685   9.608  18.183  0.00  0.00    +0.000 C 
ATOM     21  O   UNL     1       2.174  10.712  17.944  0.00  0.00    +0.000 OA
ATOM     22  H   UNL     1       0.205   8.455  19.044  0.00  0.00    +0.000 HD
BRANCH  19  28
ATOM     23  C   UNL     1      -3.423  13.259  20.459  0.00  0.00    +0.000 C 
ATOM     24  C   UNL     1      -2.400  12.253  20.028  0.00  0.00    +0.000 A 
ATOM     25  C   UNL     1      -2.498  11.625  18.784  0.00  0.00    +0.000 A 
ATOM     26  C   UNL     1      -1.524  10.700  18.361  0.00  0.00    +0.000 A 
ATOM     27  C   UNL     1      -1.773   9.969  17.080  0.00  0.00    +0.000 C 
ATOM     28  C   UNL     1      -0.436  10.401  19.204  0.00  0.00    +0.000 A 
ATOM     29  C   UNL     1      -0.366  10.974  20.490  0.00  0.00    +0.000 A 
ATOM     30  C   UNL     1       0.757  10.674  21.441  0.00  0.00    +0.000 C 
ATOM     31  C   UNL     1      -1.327  11.928  20.869  0.00  0.00    +0.000 A 
ENDBRANCH  19  28
ENDBRANCH  18  20
ENDBRANCH  17  18
ENDBRANCH   1  17
TORSDOF 6
ENDMDL
MODEL 3
REMARK VINA RESULT:      -8.4      0.268      1.607
REMARK  Name = 
REMARK  9 active torsions:
REMARK  status: ('A' for Active; 'I' for Inactive)
REMARK    1  A    between atoms: C_1  and  C_2
REMARK    2  A    between atoms: C_4  and  C_5
REMARK    3  A    between atoms: C_6  and  N_7
REMARK    4  A    between atoms: C_8  and  C_10
REMARK    5  A    between atoms: C_10  and  C_11
REMARK    6  A    between atoms: C_11  and  N_12
REMARK    7  A    between atoms: C_16  and  C_17
REMARK    8  A    between atoms: C_19  and  C_20
REMARK    9  A    between atoms: C_28  and  C_29
REMARK                            x       y       z     vdW  Elec       q    Type
REMARK                         _______ _______ _______ _____ _____    ______ ____
ROOT
ATOM      1  N   UNL     1       6.791   6.909  17.544  0.00  0.00    +0.000 NA
ATOM      2  C   UNL     1       7.596   5.710  17.270  0.00  0.00    +0.000 C 
ATOM      3  C   UNL     1       7.265   5.329  15.845  0.00  0.00    +0.000 C 
ATOM      4  C   UNL     1       5.782   5.614  15.752  0.00  0.00    +0.000 C 
ATOM      5  C   UNL     1       5.536   6.764  16.738  0.00  0.00    +0.000 C 
ENDROOT
BRANCH   5   6
ATOM      6  C   UNL     1       4.354   6.420  17.590  0.00  0.00    +0.000 A 
ATOM      7  N   UNL     1       4.031   5.265  18.127  0.00  0.00    +0.000 NA
ATOM      8  C   UNL     1       2.858   5.552  18.787  0.00  0.00    +0.000 A 
ATOM      9  N   UNL     1       2.429   6.815  18.611  0.00  0.00    +0.000 NA
ATOM     10  O   UNL     1       3.433   7.398  17.828  0.00  0.00    +0.000 OA
BRANCH   8  11
ATOM     11  C   UNL     1       2.220   4.561  19.640  0.00  0.00    +0.000 A 
ATOM     12  C   UNL     1       2.650   4.419  20.963  0.00  0.00    +0.000 A 
ATOM     13  C   UNL     1       2.046   3.465  21.760  0.00  0.00    +0.000 A 
ATOM     14  N   UNL     1       1.050   2.663  21.336  0.00  0.00    +0.000 NA
ATOM     15  C   UNL     1       0.631   2.832  20.062  0.00  0.00    +0.000 A 
ATOM     16  C   UNL     1       1.173   3.758  19.186  0.00  0.00    +0.000 A 
ENDBRANCH   8  11
ENDBRANCH   5   6
BRANCH   1  17
ATOM     17  C   UNL     1       7.532   8.149  17.263  0.00  0.00    +0.000 C 
BRANCH  17  18
ATOM     18  C   UNL     1       8.431   8.601  18.410  0.00  0.00    +0.000 C 
BRANCH  18  20
ATOM     19  N   UNL     1       9.622  10.441  19.530  0.00  0.00    +0.000 N 
ATOM     20  C   UNL     1       8.747  10.091  18.529  0.00  0.00    +0.000 C 
ATOM     21  O   UNL     1       8.250  10.877  17.722  0.00  0.00    +0.000 OA
ATOM     22  H   UNL     1      10.014   9.717  20.115  0.00  0.00    +0.000 HD
BRANCH  19  28
ATOM     23  C   UNL     1      11.183  15.691  21.227  0.00  0.00    +0.000 C 
ATOM     24  C   UNL     1      10.764  14.320  20.788  0.00  0.00    +0.000 A 
ATOM     25  C   UNL     1       9.808  13.602  21.510  0.00  0.00    +0.000 A 
ATOM     26  C   UNL     1       9.389  12.325  21.089  0.00  0.00    +0.000 A 
ATOM     27  C   UNL     1       8.467  11.566  21.989  0.00  0.00    +0.000 C 
ATOM     28  C   UNL     1       9.944  11.762  19.923  0.00  0.00    +0.000 A 
ATOM     29  C   UNL     1      10.962  12.446  19.229  0.00  0.00    +0.000 A 
ATOM     30  C   UNL     1      11.606  11.884  17.994  0.00  0.00    +0.000 C 
ATOM     31  C   UNL     1      11.328  13.738  19.646  0.00  0.00    +0.000 A 
ENDBRANCH  19  28
ENDBRANCH  18  20
ENDBRANCH  17  18
ENDBRANCH   1  17
TORSDOF 6
ENDMDL
MODEL 4
REMARK VINA RESULT:      -8.3      5.306      8.238
REMARK  Name = 
REMARK  9 active torsions:
REMARK  status: ('A' for Active; 'I' for Inactive)
REMARK    1  A    between atoms: C_1  and  C_2
REMARK    2  A    between atoms: C_4  and  C_5
REMARK    3  A    between atoms: C_6  and  N_7
REMARK    4  A    between atoms: C_8  and  C_10
REMARK    5  A    between atoms: C_10  and  C_11
REMARK    6  A    between atoms: C_11  and  N_12
REMARK    7  A    between atoms: C_16  and  C_17
REMARK    8  A    between atoms: C_19  and  C_20
REMARK    9  A    between atoms: C_28  and  C_29
REMARK                            x       y       z     vdW  Elec       q    Type
REMARK                         _______ _______ _______ _____ _____    ______ ____
ROOT
ATOM      1  N   UNL     1       3.017   6.328  18.168  0.00  0.00    +0.000 NA
ATOM      2  C   UNL     1       2.176   5.131  18.312  0.00  0.00    +0.000 C 
ATOM      3  C   UNL     1       2.749   4.384  19.495  0.00  0.00    +0.000 C 
ATOM      4  C   UNL     1       4.240   4.579  19.329  0.00  0.00    +0.000 C 
ATOM      5  C   UNL     1       4.389   5.932  18.622  0.00  0.00    +0.000 C 
ENDROOT
BRANCH   5   6
ATOM      6  C   UNL     1       5.339   5.773  17.476  0.00  0.00    +0.000 A 
ATOM      7  N   UNL     1       5.194   5.072  16.375  0.00  0.00    +0.000 NA
ATOM      8  C   UNL     1       6.377   5.300  15.709  0.00  0.00    +0.000 A 
ATOM      9  N   UNL     1       7.252   6.054  16.396  0.00  0.00    +0.000 NA
ATOM     10  O   UNL     1       6.556   6.383  17.567  0.00  0.00    +0.000 OA
BRANCH   8  11
ATOM     11  C   UNL     1       6.579   4.803  14.356  0.00  0.00    +0.000 A 
ATOM     12  C   UNL     1       7.608   5.343  13.577  0.00  0.00    +0.000 A 
ATOM     13  C   UNL     1       7.782   4.873  12.288  0.00  0.00    +0.000 A 
ATOM     14  N   UNL     1       7.019   3.909  11.737  0.00  0.00    +0.000 NA
ATOM     15  C   UNL     1       6.046   3.383  12.514  0.00  0.00    +0.000 A 
ATOM     16  C   UNL     1       5.791   3.787  13.815  0.00  0.00    +0.000 A 
ENDBRANCH   8  11
ENDBRANCH   5   6
BRANCH   1  17
ATOM     17  C   UNL     1       2.465   7.482  18.895  0.00  0.00    +0.000 C 
BRANCH  17  18
ATOM     18  C   UNL     1       1.834   8.535  17.989  0.00  0.00    +0.000 C 
BRANCH  18  20
ATOM     19  N   UNL     1       1.306  10.036  19.866  0.00  0.00    +0.000 N 
ATOM     20  C   UNL     1       0.917   9.575  18.630  0.00  0.00    +0.000 C 
ATOM     21  O   UNL     1      -0.072   9.968  18.012  0.00  0.00    +0.000 OA
ATOM     22  H   UNL     1       2.160   9.686  20.275  0.00  0.00    +0.000 HD
BRANCH  19  28
ATOM     23  C   UNL     1      -1.526  13.514  23.439  0.00  0.00    +0.000 C 
ATOM     24  C   UNL     1      -0.794  12.597  22.507  0.00  0.00    +0.000 A 
ATOM     25  C   UNL     1      -0.936  11.211  22.614  0.00  0.00    +0.000 A 
ATOM     26  C   UNL     1      -0.273  10.344  21.723  0.00  0.00    +0.000 A 
ATOM     27  C   UNL     1      -0.365   8.875  21.989  0.00  0.00    +0.000 C 
ATOM     28  C   UNL     1       0.546  10.881  20.710  0.00  0.00    +0.000 A 
ATOM     29  C   UNL     1       0.753  12.273  20.640  0.00  0.00    +0.000 A 
ATOM     30  C   UNL     1       1.634  12.900  19.597  0.00  0.00    +0.000 C 
ATOM     31  C   UNL     1       0.044  13.117  21.513  0.00  0.00    +0.000 A 
ENDBRANCH  19  28
ENDBRANCH  18  20
ENDBRANCH  17  18
ENDBRANCH   1  17
TORSDOF 6
ENDMDL
MODEL 5
REMARK VINA RESULT:      -8.3      2.867      9.117
REMARK  Name = 
REMARK  9 active torsions:
REMARK  status: ('A' for Active; 'I' for Inactive)
REMARK    1  A    between atoms: C_1  and  C_2
REMARK    2  A    between atoms: C_4  and  C_5
REMARK    3  A    between atoms: C_6  and  N_7
REMARK    4  A    between atoms: C_8  and  C_10
REMARK    5  A    between atoms: C_10  and  C_11
REMARK    6  A    between atoms: C_11  and  N_12
REMARK    7  A    between atoms: C_16  and  C_17
REMARK    8  A    between atoms: C_19  and  C_20
REMARK    9  A    between atoms: C_28  and  C_29
REMARK                            x       y       z     vdW  Elec       q    Type
REMARK                         _______ _______ _______ _____ _____    ______ ____
ROOT
ATOM      1  N   UNL     1       8.804  10.488  19.026  0.00  0.00    +0.000 NA
ATOM      2  C   UNL     1       9.086  11.413  17.919  0.00  0.00    +0.000 C 
ATOM      3  C   UNL     1      10.568  11.698  18.010  0.00  0.00    +0.000 C 
ATOM      4  C   UNL     1      10.808  11.777  19.501  0.00  0.00    +0.000 C 
ATOM      5  C   UNL     1       9.761  10.843  20.123  0.00  0.00    +0.000 C 
ENDROOT
BRANCH   5   6
ATOM      6  C   UNL     1       9.087  11.562  21.250  0.00  0.00    +0.000 A 
ATOM      7  N   UNL     1       8.464  11.063  22.293  0.00  0.00    +0.000 NA
ATOM      8  C   UNL     1       8.052  12.189  22.971  0.00  0.00    +0.000 A 
ATOM      9  N   UNL     1       8.345  13.340  22.341  0.00  0.00    +0.000 NA
ATOM     10  O   UNL     1       9.048  12.926  21.203  0.00  0.00    +0.000 OA
BRANCH   8  11
ATOM     11  C   UNL     1       7.425  12.084  24.279  0.00  0.00    +0.000 A 
ATOM     12  C   UNL     1       8.013  12.727  25.373  0.00  0.00    +0.000 A 
ATOM     13  C   UNL     1       7.416  12.609  26.614  0.00  0.00    +0.000 A 
ATOM     14  N   UNL     1       6.282  11.913  26.832  0.00  0.00    +0.000 NA
ATOM     15  C   UNL     1       5.715  11.320  25.758  0.00  0.00    +0.000 A 
ATOM     16  C   UNL     1       6.237  11.378  24.476  0.00  0.00    +0.000 A 
ENDBRANCH   8  11
ENDBRANCH   5   6
BRANCH   1  17
ATOM     17  C   UNL     1       8.886   9.080  18.606  0.00  0.00    +0.000 C 
BRANCH  17  18
ATOM     18  C   UNL     1       7.842   8.688  17.564  0.00  0.00    +0.000 C 
BRANCH  18  20
ATOM     19  N   UNL     1       6.091   7.107  16.862  0.00  0.00    +0.000 N 
ATOM     20  C   UNL     1       7.123   7.352  17.738  0.00  0.00    +0.000 C 
ATOM     21  O   UNL     1       7.514   6.566  18.601  0.00  0.00    +0.000 OA
ATOM     22  H   UNL     1       5.872   7.796  16.156  0.00  0.00    +0.000 HD
BRANCH  19  28
ATOM     23  C   UNL     1       2.505   2.667  17.411  0.00  0.00    +0.000 C 
ATOM     24  C   UNL     1       3.448   3.822  17.258  0.00  0.00    +0.000 A 
ATOM     25  C   UNL     1       4.707   3.643  16.680  0.00  0.00    +0.000 A 
ATOM     26  C   UNL     1       5.586   4.730  16.507  0.00  0.00    +0.000 A 
ATOM     27  C   UNL     1       6.964   4.433  16.008  0.00  0.00    +0.000 C 
ATOM     28  C   UNL     1       5.192   6.016  16.926  0.00  0.00    +0.000 A 
ATOM     29  C   UNL     1       3.956   6.194  17.577  0.00  0.00    +0.000 A 
ATOM     30  C   UNL     1       3.494   7.537  18.066  0.00  0.00    +0.000 C 
ATOM     31  C   UNL     1       3.079   5.101  17.696  0.00  0.00    +0.000 A 
ENDBRANCH  19  28
ENDBRANCH  18  20
ENDBRANCH  17  18
ENDBRANCH   1  17
TORSDOF 6
ENDMDL
MODEL 6
REMARK VINA RESULT:      -8.0      5.573      8.708
REMARK  Name = 
REMARK  9 active torsions:
REMARK  status: ('A' for Active; 'I' for Inactive)
REMARK    1  A    between atoms: C_1  and  C_2
REMARK    2  A    between atoms: C_4  and  C_5
REMARK    3  A    between atoms: C_6  and  N_7
REMARK    4  A    between atoms: C_8  and  C_10
REMARK    5  A    between atoms: C_10  and  C_11
REMARK    6  A    between atoms: C_11  and  N_12
REMARK    7  A    between atoms: C_16  and  C_17
REMARK    8  A    between atoms: C_19  and  C_20
REMARK    9  A    between atoms: C_28  and  C_29
REMARK                            x       y       z     vdW  Elec       q    Type
REMARK                         _______ _______ _______ _____ _____    ______ ____
ROOT
ATOM      1  N   UNL     1       2.750   6.167  18.035  0.00  0.00    +0.000 NA
ATOM      2  C   UNL     1       2.109   4.891  18.383  0.00  0.00    +0.000 C 
ATOM      3  C   UNL     1       2.788   4.441  19.657  0.00  0.00    +0.000 C 
ATOM      4  C   UNL     1       4.231   4.839  19.431  0.00  0.00    +0.000 C 
ATOM      5  C   UNL     1       4.166   6.069  18.517  0.00  0.00    +0.000 C 
ENDROOT
BRANCH   5   6
ATOM      6  C   UNL     1       5.133   5.881  17.391  0.00  0.00    +0.000 A 
ATOM      7  N   UNL     1       5.018   5.131  16.319  0.00  0.00    +0.000 NA
ATOM      8  C   UNL     1       6.204   5.355  15.658  0.00  0.00    +0.000 A 
ATOM      9  N   UNL     1       7.055   6.156  16.324  0.00  0.00    +0.000 NA
ATOM     10  O   UNL     1       6.337   6.521  17.470  0.00  0.00    +0.000 OA
BRANCH   8  11
ATOM     11  C   UNL     1       6.435   4.805  14.331  0.00  0.00    +0.000 A 
ATOM     12  C   UNL     1       7.553   5.226  13.601  0.00  0.00    +0.000 A 
ATOM     13  C   UNL     1       7.754   4.708  12.336  0.00  0.00    +0.000 A 
ATOM     14  N   UNL     1       6.935   3.803  11.763  0.00  0.00    +0.000 NA
ATOM     15  C   UNL     1       5.876   3.391  12.493  0.00  0.00    +0.000 A 
ATOM     16  C   UNL     1       5.587   3.851  13.767  0.00  0.00    +0.000 A 
ENDBRANCH   8  11
ENDBRANCH   5   6
BRANCH   1  17
ATOM     17  C   UNL     1       2.019   7.320  18.583  0.00  0.00    +0.000 C 
BRANCH  17  18
ATOM     18  C   UNL     1       2.437   8.657  17.976  0.00  0.00    +0.000 C 
BRANCH  18  20
ATOM     19  N   UNL     1       0.416   9.646  18.975  0.00  0.00    +0.000 N 
ATOM     20  C   UNL     1       1.590   9.887  18.300  0.00  0.00    +0.000 C 
ATOM     21  O   UNL     1       2.006  11.002  17.988  0.00  0.00    +0.000 OA
ATOM     22  H   UNL     1       0.182   8.697  19.229  0.00  0.00    +0.000 HD
BRANCH  19  28
ATOM     23  C   UNL     1      -3.784  13.326  20.276  0.00  0.00    +0.000 C 
ATOM     24  C   UNL     1      -2.688  12.365  19.925  0.00  0.00    +0.000 A 
ATOM     25  C   UNL     1      -2.720  11.658  18.721  0.00  0.00    +0.000 A 
ATOM     26  C   UNL     1      -1.680  10.775  18.371  0.00  0.00    +0.000 A 
ATOM     27  C   UNL     1      -1.855   9.954  17.133  0.00  0.00    +0.000 C 
ATOM     28  C   UNL     1      -0.592  10.601  19.248  0.00  0.00    +0.000 A 
ATOM     29  C   UNL     1      -0.586  11.253  20.497  0.00  0.00    +0.000 A 
ATOM     30  C   UNL     1       0.535  11.087  21.483  0.00  0.00    +0.000 C 
ATOM     31  C   UNL     1      -1.614  12.162  20.801  0.00  0.00    +0.000 A 
ENDBRANCH  19  28
ENDBRANCH  18  20
ENDBRANCH  17  18
ENDBRANCH   1  17
TORSDOF 6
ENDMDL
MODEL 7
REMARK VINA RESULT:      -8.0      2.861      9.339
REMARK  Name = 
REMARK  9 active torsions:
REMARK  status: ('A' for Active; 'I' for Inactive)
REMARK    1  A    between atoms: C_1  and  C_2
REMARK    2  A    between atoms: C_4  and  C_5
REMARK    3  A    between atoms: C_6  and  N_7
REMARK    4  A    between atoms: C_8  and  C_10
REMARK    5  A    between atoms: C_10  and  C_11
REMARK    6  A    between atoms: C_11  and  N_12
REMARK    7  A    between atoms: C_16  and  C_17
REMARK    8  A    between atoms: C_19  and  C_20
REMARK    9  A    between atoms: C_28  and  C_29
REMARK                            x       y       z     vdW  Elec       q    Type
REMARK                         _______ _______ _______ _____ _____    ______ ____
ROOT
ATOM      1  N   UNL     1       8.937  10.647  19.068  0.00  0.00    +0.000 NA
ATOM      2  C   UNL     1       9.044  11.471  17.856  0.00  0.00    +0.000 C 
ATOM      3  C   UNL     1      10.513  11.809  17.736  0.00  0.00    +0.000 C 
ATOM      4  C   UNL     1      10.928  12.036  19.173  0.00  0.00    +0.000 C 
ATOM      5  C   UNL     1      10.005  11.133  20.001  0.00  0.00    +0.000 C 
ENDROOT
BRANCH   5   6
ATOM      6  C   UNL     1       9.442  11.934  21.134  0.00  0.00    +0.000 A 
ATOM      7  N   UNL     1       8.428  11.654  21.919  0.00  0.00    +0.000 NA
ATOM      8  C   UNL     1       8.378  12.747  22.756  0.00  0.00    +0.000 A 
ATOM      9  N   UNL     1       9.279  13.700  22.460  0.00  0.00    +0.000 NA
ATOM     10  O   UNL     1       9.999  13.154  21.390  0.00  0.00    +0.000 OA
BRANCH   8  11
ATOM     11  C   UNL     1       7.460  12.781  23.885  0.00  0.00    +0.000 A 
ATOM     12  C   UNL     1       7.600  11.836  24.908  0.00  0.00    +0.000 A 
ATOM     13  C   UNL     1       6.714  11.869  25.968  0.00  0.00    +0.000 A 
ATOM     14  N   UNL     1       5.721  12.774  26.081  0.00  0.00    +0.000 NA
ATOM     15  C   UNL     1       5.619  13.694  25.097  0.00  0.00    +0.000 A 
ATOM     16  C   UNL     1       6.456  13.742  23.994  0.00  0.00    +0.000 A 
ENDBRANCH   8  11
ENDBRANCH   5   6
BRANCH   1  17
ATOM     17  C   UNL     1       9.028   9.209  18.769  0.00  0.00    +0.000 C 
BRANCH  17  18
ATOM     18  C   UNL     1       8.046   8.741  17.697  0.00  0.00    +0.000 C 
BRANCH  18  20
ATOM     19  N   UNL     1       6.262   7.161  17.084  0.00  0.00    +0.000 N 
ATOM     20  C   UNL     1       7.331   7.410  17.913  0.00  0.00    +0.000 C 
ATOM     21  O   UNL     1       7.755   6.630  18.765  0.00  0.00    +0.000 OA
ATOM     22  H   UNL     1       6.016   7.845  16.382  0.00  0.00    +0.000 HD
BRANCH  19  28
ATOM     23  C   UNL     1       2.579   2.770  17.244  0.00  0.00    +0.000 C 
ATOM     24  C   UNL     1       3.536   3.923  17.211  0.00  0.00    +0.000 A 
ATOM     25  C   UNL     1       3.146   5.185  17.665  0.00  0.00    +0.000 A 
ATOM     26  C   UNL     1       4.049   6.266  17.663  0.00  0.00    +0.000 A 
ATOM     27  C   UNL     1       3.516   7.614  18.033  0.00  0.00    +0.000 C 
ATOM     28  C   UNL     1       5.364   6.073  17.195  0.00  0.00    +0.000 A 
ATOM     29  C   UNL     1       5.744   4.823  16.668  0.00  0.00    +0.000 A 
ATOM     30  C   UNL     1       7.124   4.566  16.134  0.00  0.00    +0.000 C 
ATOM     31  C   UNL     1       4.838   3.750  16.723  0.00  0.00    +0.000 A 
ENDBRANCH  19  28
ENDBRANCH  18  20
ENDBRANCH  17  18
ENDBRANCH   1  17
TORSDOF 6
ENDMDL
MODEL 8
REMARK VINA RESULT:      -7.9      5.186      8.077
REMARK  Name = 
REMARK  9 active torsions:
REMARK  status: ('A' for Active; 'I' for Inactive)
REMARK    1  A    between atoms: C_1  and  C_2
REMARK    2  A    between atoms: C_4  and  C_5
REMARK    3  A    between atoms: C_6  and  N_7
REMARK    4  A    between atoms: C_8  and  C_10
REMARK    5  A    between atoms: C_10  and  C_11
REMARK    6  A    between atoms: C_11  and  N_12
REMARK    7  A    between atoms: C_16  and  C_17
REMARK    8  A    between atoms: C_19  and  C_20
REMARK    9  A    between atoms: C_28  and  C_29
REMARK                            x       y       z     vdW  Elec       q    Type
REMARK                         _______ _______ _______ _____ _____    ______ ____
ROOT
ATOM      1  N   UNL     1       2.992   5.812  18.141  0.00  0.00    +0.000 NA
ATOM      2  C   UNL     1       1.933   4.798  18.039  0.00  0.00    +0.000 C 
ATOM      3  C   UNL     1       2.203   3.830  19.168  0.00  0.00    +0.000 C 
ATOM      4  C   UNL     1       3.713   3.741  19.186  0.00  0.00    +0.000 C 
ATOM      5  C   UNL     1       4.199   5.106  18.681  0.00  0.00    +0.000 C 
ENDROOT
BRANCH   5   6
ATOM      6  C   UNL     1       5.241   4.885  17.629  0.00  0.00    +0.000 A 
ATOM      7  N   UNL     1       5.087   4.714  16.336  0.00  0.00    +0.000 NA
ATOM      8  C   UNL     1       6.380   4.556  15.892  0.00  0.00    +0.000 A 
ATOM      9  N   UNL     1       7.297   4.558  16.875  0.00  0.00    +0.000 NA
ATOM     10  O   UNL     1       6.542   4.793  18.031  0.00  0.00    +0.000 OA
BRANCH   8  11
ATOM     11  C   UNL     1       6.675   4.470  14.469  0.00  0.00    +0.000 A 
ATOM     12  C   UNL     1       7.635   5.325  13.917  0.00  0.00    +0.000 A 
ATOM     13  C   UNL     1       7.896   5.243  12.562  0.00  0.00    +0.000 A 
ATOM     14  N   UNL     1       7.284   4.372  11.736  0.00  0.00    +0.000 NA
ATOM     15  C   UNL     1       6.378   3.538  12.293  0.00  0.00    +0.000 A 
ATOM     16  C   UNL     1       6.046   3.543  13.638  0.00  0.00    +0.000 A 
ENDBRANCH   8  11
ENDBRANCH   5   6
BRANCH   1  17
ATOM     17  C   UNL     1       2.575   6.968  18.950  0.00  0.00    +0.000 C 
BRANCH  17  18
ATOM     18  C   UNL     1       2.088   8.155  18.123  0.00  0.00    +0.000 C 
BRANCH  18  20
ATOM     19  N   UNL     1       1.069  10.394  18.082  0.00  0.00    +0.000 N 
ATOM     20  C   UNL     1       1.431   9.320  18.860  0.00  0.00    +0.000 C 
ATOM     21  O   UNL     1       1.227   9.228  20.071  0.00  0.00    +0.000 OA
ATOM     22  H   UNL     1       1.237  10.359  17.087  0.00  0.00    +0.000 HD
BRANCH  19  28
ATOM     23  C   UNL     1      -1.010  15.471  19.752  0.00  0.00    +0.000 C 
ATOM     24  C   UNL     1      -0.456  14.147  19.319  0.00  0.00    +0.000 A 
ATOM     25  C   UNL     1       0.899  14.008  19.011  0.00  0.00    +0.000 A 
ATOM     26  C   UNL     1       1.433  12.761  18.631  0.00  0.00    +0.000 A 
ATOM     27  C   UNL     1       2.859  12.725  18.185  0.00  0.00    +0.000 C 
ATOM     28  C   UNL     1       0.587  11.637  18.559  0.00  0.00    +0.000 A 
ATOM     29  C   UNL     1      -0.794  11.781  18.797  0.00  0.00    +0.000 A 
ATOM     30  C   UNL     1      -1.747  10.623  18.711  0.00  0.00    +0.000 C 
ATOM     31  C   UNL     1      -1.292  13.027  19.217  0.00  0.00    +0.000 A 
ENDBRANCH  19  28
ENDBRANCH  18  20
ENDBRANCH  17  18
ENDBRANCH   1  17
TORSDOF 6
ENDMDL
MODEL 9
REMARK VINA RESULT:      -7.9      5.345      8.165
REMARK  Name = 
REMARK  9 active torsions:
REMARK  status: ('A' for Active; 'I' for Inactive)
REMARK    1  A    between atoms: C_1  and  C_2
REMARK    2  A    between atoms: C_4  and  C_5
REMARK    3  A    between atoms: C_6  and  N_7
REMARK    4  A    between atoms: C_8  and  C_10
REMARK    5  A    between atoms: C_10  and  C_11
REMARK    6  A    between atoms: C_11  and  N_12
REMARK    7  A    between atoms: C_16  and  C_17
REMARK    8  A    between atoms: C_19  and  C_20
REMARK    9  A    between atoms: C_28  and  C_29
REMARK                            x       y       z     vdW  Elec       q    Type
REMARK                         _______ _______ _______ _____ _____    ______ ____
ROOT
ATOM      1  N   UNL     1       2.780   6.075  18.285  0.00  0.00    +0.000 NA
ATOM      2  C   UNL     1       1.981   4.842  18.321  0.00  0.00    +0.000 C 
ATOM      3  C   UNL     1       2.595   4.004  19.420  0.00  0.00    +0.000 C 
ATOM      4  C   UNL     1       4.076   4.264  19.259  0.00  0.00    +0.000 C 
ATOM      5  C   UNL     1       4.171   5.685  18.686  0.00  0.00    +0.000 C 
ENDROOT
BRANCH   5   6
ATOM      6  C   UNL     1       5.110   5.669  17.520  0.00  0.00    +0.000 A 
ATOM      7  N   UNL     1       5.086   4.908  16.450  0.00  0.00    +0.000 NA
ATOM      8  C   UNL     1       6.186   5.339  15.743  0.00  0.00    +0.000 A 
ATOM      9  N   UNL     1       6.906   6.281  16.378  0.00  0.00    +0.000 NA
ATOM     10  O   UNL     1       6.182   6.514  17.554  0.00  0.00    +0.000 OA
BRANCH   8  11
ATOM     11  C   UNL     1       6.456   4.837  14.405  0.00  0.00    +0.000 A 
ATOM     12  C   UNL     1       7.555   5.336  13.696  0.00  0.00    +0.000 A 
ATOM     13  C   UNL     1       7.794   4.861  12.420  0.00  0.00    +0.000 A 
ATOM     14  N   UNL     1       7.031   3.928  11.817  0.00  0.00    +0.000 NA
ATOM     15  C   UNL     1       5.990   3.440  12.527  0.00  0.00    +0.000 A 
ATOM     16  C   UNL     1       5.667   3.852  13.810  0.00  0.00    +0.000 A 
ENDBRANCH   8  11
ENDBRANCH   5   6
BRANCH   1  17
ATOM     17  C   UNL     1       2.200   7.133  19.127  0.00  0.00    +0.000 C 
BRANCH  17  18
ATOM     18  C   UNL     1       2.021   8.465  18.404  0.00  0.00    +0.000 C 
BRANCH  18  20
ATOM     19  N   UNL     1       1.461   9.985  20.257  0.00  0.00    +0.000 N 
ATOM     20  C   UNL     1       1.085   9.499  19.027  0.00  0.00    +0.000 C 
ATOM     21  O   UNL     1       0.091   9.865  18.401  0.00  0.00    +0.000 OA
ATOM     22  H   UNL     1       2.321   9.656  20.673  0.00  0.00    +0.000 HD
BRANCH  19  28
ATOM     23  C   UNL     1      -1.921  13.335  23.453  0.00  0.00    +0.000 C 
ATOM     24  C   UNL     1      -1.029  12.468  22.616  0.00  0.00    +0.000 A 
ATOM     25  C   UNL     1      -0.144  13.035  21.697  0.00  0.00    +0.000 A 
ATOM     26  C   UNL     1       0.718  12.228  20.928  0.00  0.00    +0.000 A 
ATOM     27  C   UNL     1       1.535  12.899  19.870  0.00  0.00    +0.000 C 
ATOM     28  C   UNL     1       0.684  10.829  21.087  0.00  0.00    +0.000 A 
ATOM     29  C   UNL     1      -0.256  10.243  21.958  0.00  0.00    +0.000 A 
ATOM     30  C   UNL     1      -0.353   8.756  22.149  0.00  0.00    +0.000 C 
ATOM     31  C   UNL     1      -1.072  11.074  22.745  0.00  0.00    +0.000 A 
ENDBRANCH  19  28
ENDBRANCH  18  20
ENDBRANCH  17  18
ENDBRANCH   1  17
TORSDOF 6
ENDMDL
