MODEL 1
REMARK VINA RESULT:      -8.3      0.000      0.000
REMARK  Name = 
REMARK  8 active torsions:
REMARK  status: ('A' for Active; 'I' for Inactive)
REMARK    1  A    between atoms: C_1  and  C_2
REMARK    2  A    between atoms: C_5  and  C_6
REMARK    3  A    between atoms: C_6  and  N_7
REMARK    4  A    between atoms: C_8  and  C_10
REMARK    5  A    between atoms: C_10  and  O_11
REMARK    6  A    between atoms: O_11  and  C_12
REMARK    7  A    between atoms: C_15  and  S_16
REMARK    8  A    between atoms: S_16  and  N_19
REMARK                            x       y       z     vdW  Elec       q    Type
REMARK                         _______ _______ _______ _____ _____    ______ ____
ROOT
ATOM      1  O   UNL     1       6.972   5.650  19.755  0.00  0.00    +0.000 OA
ENDROOT
BRANCH   1   2
ATOM      2  C   UNL     1       5.800   5.073  19.338  0.00  0.00    +0.000 A 
ATOM      3  C   UNL     1       4.791   5.960  18.951  0.00  0.00    +0.000 A 
ATOM      4  C   UNL     1       3.548   5.482  18.520  0.00  0.00    +0.000 A 
ATOM      5  C   UNL     1       3.324   4.104  18.454  0.00  0.00    +0.000 A 
ATOM      6  C   UNL     1       4.335   3.209  18.802  0.00  0.00    +0.000 A 
ATOM      7  C   UNL     1       5.572   3.695  19.246  0.00  0.00    +0.000 A 
BRANCH   5   8
ATOM      8  S   UNL     1       1.717   3.475  18.024  0.00  0.00    +0.000 S 
ATOM      9  O   UNL     1       1.070   4.489  17.218  0.00  0.00    +0.000 OA
ATOM     10  O   UNL     1       1.883   2.122  17.529  0.00  0.00    +0.000 OA
BRANCH   8  11
ATOM     11  N   UNL     1       0.873   3.370  19.507  0.00  0.00    +0.000 NA
ATOM     12  C   UNL     1       1.006   4.506  20.449  0.00  0.00    +0.000 C 
ATOM     13  C   UNL     1       2.085   4.084  21.425  0.00  0.00    +0.000 C 
ATOM     14  C   UNL     1       1.846   2.596  21.594  0.00  0.00    +0.000 C 
ATOM     15  C   UNL     1       1.202   2.134  20.289  0.00  0.00    +0.000 C 
ENDBRANCH   8  11
ENDBRANCH   5   8
ENDBRANCH   1   2
BRANCH   1  16
ATOM     16  C   UNL     1       8.013   5.689  18.779  0.00  0.00    +0.000 C 
BRANCH  16  18
ATOM     17  N   UNL     1       8.250   8.106  18.410  0.00  0.00    +0.000 N 
ATOM     18  C   UNL     1       7.925   6.897  17.844  0.00  0.00    +0.000 C 
ATOM     19  O   UNL     1       7.558   6.775  16.676  0.00  0.00    +0.000 OA
ATOM     20  H   UNL     1       8.553   8.114  19.378  0.00  0.00    +0.000 HD
BRANCH  17  21
ATOM     21  C   UNL     1       8.148   9.355  17.690  0.00  0.00    +0.000 C 
BRANCH  21  26
ATOM     22  C   UNL     1      10.919  13.698  20.415  0.00  0.00    +0.000 C 
ATOM     23  C   UNL     1      10.180  12.584  19.735  0.00  0.00    +0.000 A 
ATOM     24  C   UNL     1      10.114  11.310  20.307  0.00  0.00    +0.000 A 
ATOM     25  C   UNL     1       9.439  10.275  19.655  0.00  0.00    +0.000 A 
ATOM     26  C   UNL     1       8.812  10.494  18.421  0.00  0.00    +0.000 A 
ATOM     27  C   UNL     1       8.879  11.772  17.850  0.00  0.00    +0.000 A 
ATOM     28  C   UNL     1       9.557  12.807  18.502  0.00  0.00    +0.000 A 
ENDBRANCH  21  26
ENDBRANCH  17  21
ENDBRANCH  16  18
ENDBRANCH   1  16
TORSDOF 7
ENDMDL
MODEL 2
REMARK VINA RESULT:      -8.1      0.669      1.444
REMARK  Name = 
REMARK  8 active torsions:
REMARK  status: ('A' for Active; 'I' for Inactive)
REMARK    1  A    between atoms: C_1  and  C_2
REMARK    2  A    between atoms: C_5  and  C_6
REMARK    3  A    between atoms: C_6  and  N_7
REMARK    4  A    between atoms: C_8  and  C_10
REMARK    5  A    between atoms: C_10  and  O_11
REMARK    6  A    between atoms: O_11  and  C_12
REMARK    7  A    between atoms: C_15  and  S_16
REMARK    8  A    between atoms: S_16  and  N_19
REMARK                            x       y       z     vdW  Elec       q    Type
REMARK                         _______ _______ _______ _____ _____    ______ ____
ROOT
ATOM      1  O   UNL     1       7.328   4.847  18.289  0.00  0.00    +0.000 OA
ENDROOT
BRANCH   1   2
ATOM      2  C   UNL     1       5.979   4.606  18.244  0.00  0.00    +0.000 A 
ATOM      3  C   UNL     1       5.550   3.439  18.884  0.00  0.00    +0.000 A 
ATOM      4  C   UNL     1       4.196   3.087  18.891  0.00  0.00    +0.000 A 
ATOM      5  C   UNL     1       3.262   3.923  18.271  0.00  0.00    +0.000 A 
ATOM      6  C   UNL     1       3.673   5.108  17.661  0.00  0.00    +0.000 A 
ATOM      7  C   UNL     1       5.033   5.446  17.647  0.00  0.00    +0.000 A 
BRANCH   5   8
ATOM      8  S   UNL     1       1.554   3.437  18.163  0.00  0.00    +0.000 S 
ATOM      9  O   UNL     1       0.921   4.330  17.216  0.00  0.00    +0.000 OA
ATOM     10  O   UNL     1       1.508   1.999  17.977  0.00  0.00    +0.000 OA
BRANCH   8  11
ATOM     11  N   UNL     1       0.903   3.767  19.709  0.00  0.00    +0.000 NA
ATOM     12  C   UNL     1       1.328   5.022  20.373  0.00  0.00    +0.000 C 
ATOM     13  C   UNL     1       2.446   4.612  21.309  0.00  0.00    +0.000 C 
ATOM     14  C   UNL     1       2.008   3.249  21.809  0.00  0.00    +0.000 C 
ATOM     15  C   UNL     1       1.138   2.666  20.698  0.00  0.00    +0.000 C 
ENDBRANCH   8  11
ENDBRANCH   5   8
ENDBRANCH   1   2
BRANCH   1  16
ATOM     16  C   UNL     1       7.708   6.073  18.913  0.00  0.00    +0.000 C 
BRANCH  16  18
ATOM     17  N   UNL     1       8.292   8.419  18.477  0.00  0.00    +0.000 N 
ATOM     18  C   UNL     1       7.935   7.215  17.920  0.00  0.00    +0.000 C 
ATOM     19  O   UNL     1       7.776   7.051  16.711  0.00  0.00    +0.000 OA
ATOM     20  H   UNL     1       8.412   8.463  19.483  0.00  0.00    +0.000 HD
BRANCH  17  21
ATOM     21  C   UNL     1       8.471   9.618  17.690  0.00  0.00    +0.000 C 
BRANCH  21  26
ATOM     22  C   UNL     1      10.674  14.016  20.817  0.00  0.00    +0.000 C 
ATOM     23  C   UNL     1      10.137  12.880  19.998  0.00  0.00    +0.000 A 
ATOM     24  C   UNL     1       9.808  13.057  18.650  0.00  0.00    +0.000 A 
ATOM     25  C   UNL     1       9.291  11.997  17.902  0.00  0.00    +0.000 A 
ATOM     26  C   UNL     1       9.097  10.737  18.483  0.00  0.00    +0.000 A 
ATOM     27  C   UNL     1       9.428  10.562  19.834  0.00  0.00    +0.000 A 
ATOM     28  C   UNL     1       9.943  11.623  20.583  0.00  0.00    +0.000 A 
ENDBRANCH  21  26
ENDBRANCH  17  21
ENDBRANCH  16  18
ENDBRANCH   1  16
TORSDOF 7
ENDMDL
MODEL 3
REMARK VINA RESULT:      -8.0      1.599      2.361
REMARK  Name = 
REMARK  8 active torsions:
REMARK  status: ('A' for Active; 'I' for Inactive)
REMARK    1  A    between atoms: C_1  and  C_2
REMARK    2  A    between atoms: C_5  and  C_6
REMARK    3  A    between atoms: C_6  and  N_7
REMARK    4  A    between atoms: C_8  and  C_10
REMARK    5  A    between atoms: C_10  and  O_11
REMARK    6  A    between atoms: O_11  and  C_12
REMARK    7  A    between atoms: C_15  and  S_16
REMARK    8  A    between atoms: S_16  and  N_19
REMARK                            x       y       z     vdW  Elec       q    Type
REMARK                         _______ _______ _______ _____ _____    ______ ____
ROOT
ATOM      1  O   UNL     1       6.167   7.585  16.669  0.00  0.00    +0.000 OA
ENDROOT
BRANCH   1   2
ATOM      2  C   UNL     1       5.228   6.638  16.984  0.00  0.00    +0.000 A 
ATOM      3  C   UNL     1       5.608   5.310  16.765  0.00  0.00    +0.000 A 
ATOM      4  C   UNL     1       4.724   4.261  17.040  0.00  0.00    +0.000 A 
ATOM      5  C   UNL     1       3.458   4.543  17.562  0.00  0.00    +0.000 A 
ATOM      6  C   UNL     1       3.081   5.861  17.820  0.00  0.00    +0.000 A 
ATOM      7  C   UNL     1       3.967   6.907  17.528  0.00  0.00    +0.000 A 
BRANCH   5   8
ATOM      8  S   UNL     1       2.276   3.237  17.807  0.00  0.00    +0.000 S 
ATOM      9  O   UNL     1       0.969   3.857  17.859  0.00  0.00    +0.000 OA
ATOM     10  O   UNL     1       2.565   2.186  16.851  0.00  0.00    +0.000 OA
BRANCH   8  11
ATOM     11  N   UNL     1       2.621   2.616  19.362  0.00  0.00    +0.000 NA
ATOM     12  C   UNL     1       1.505   1.988  20.108  0.00  0.00    +0.000 C 
ATOM     13  C   UNL     1       0.989   3.073  21.030  0.00  0.00    +0.000 C 
ATOM     14  C   UNL     1       2.246   3.817  21.440  0.00  0.00    +0.000 C 
ATOM     15  C   UNL     1       3.226   3.631  20.284  0.00  0.00    +0.000 C 
ENDBRANCH   8  11
ENDBRANCH   5   8
ENDBRANCH   1   2
BRANCH   1  16
ATOM     16  C   UNL     1       7.524   7.191  16.874  0.00  0.00    +0.000 C 
BRANCH  16  18
ATOM     17  N   UNL     1       8.342   9.240  17.953  0.00  0.00    +0.000 N 
ATOM     18  C   UNL     1       8.182   7.881  18.071  0.00  0.00    +0.000 C 
ATOM     19  O   UNL     1       8.561   7.239  19.049  0.00  0.00    +0.000 OA
ATOM     20  H   UNL     1       7.990   9.692  17.115  0.00  0.00    +0.000 HD
BRANCH  17  21
ATOM     21  C   UNL     1       9.013  10.035  18.957  0.00  0.00    +0.000 C 
BRANCH  21  26
ATOM     22  C   UNL     1      11.292  15.024  16.985  0.00  0.00    +0.000 C 
ATOM     23  C   UNL     1      10.689  13.736  17.463  0.00  0.00    +0.000 A 
ATOM     24  C   UNL     1       9.358  13.678  17.888  0.00  0.00    +0.000 A 
ATOM     25  C   UNL     1       8.813  12.478  18.350  0.00  0.00    +0.000 A 
ATOM     26  C   UNL     1       9.586  11.309  18.391  0.00  0.00    +0.000 A 
ATOM     27  C   UNL     1      10.919  11.369  17.963  0.00  0.00    +0.000 A 
ATOM     28  C   UNL     1      11.464  12.572  17.503  0.00  0.00    +0.000 A 
ENDBRANCH  21  26
ENDBRANCH  17  21
ENDBRANCH  16  18
ENDBRANCH   1  16
TORSDOF 7
ENDMDL
MODEL 4
REMARK VINA RESULT:      -8.0      5.422      8.577
REMARK  Name = 
REMARK  8 active torsions:
REMARK  status: ('A' for Active; 'I' for Inactive)
REMARK    1  A    between atoms: C_1  and  C_2
REMARK    2  A    between atoms: C_5  and  C_6
REMARK    3  A    between atoms: C_6  and  N_7
REMARK    4  A    between atoms: C_8  and  C_10
REMARK    5  A    between atoms: C_10  and  O_11
REMARK    6  A    between atoms: O_11  and  C_12
REMARK    7  A    between atoms: C_15  and  S_16
REMARK    8  A    between atoms: S_16  and  N_19
REMARK                            x       y       z     vdW  Elec       q    Type
REMARK                         _______ _______ _______ _____ _____    ______ ____
ROOT
ATOM      1  O   UNL     1       0.822   7.575  21.196  0.00  0.00    +0.000 OA
ENDROOT
BRANCH   1   2
ATOM      2  C   UNL     1       1.702   6.842  20.443  0.00  0.00    +0.000 A 
ATOM      3  C   UNL     1       1.870   5.509  20.832  0.00  0.00    +0.000 A 
ATOM      4  C   UNL     1       2.753   4.671  20.143  0.00  0.00    +0.000 A 
ATOM      5  C   UNL     1       3.455   5.165  19.040  0.00  0.00    +0.000 A 
ATOM      6  C   UNL     1       3.268   6.481  18.619  0.00  0.00    +0.000 A 
ATOM      7  C   UNL     1       2.393   7.319  19.323  0.00  0.00    +0.000 A 
BRANCH   5   8
ATOM      8  S   UNL     1       4.670   4.155  18.222  0.00  0.00    +0.000 S 
ATOM      9  O   UNL     1       5.504   3.581  19.256  0.00  0.00    +0.000 OA
ATOM     10  O   UNL     1       3.980   3.311  17.266  0.00  0.00    +0.000 OA
BRANCH   8  11
ATOM     11  N   UNL     1       5.627   5.254  17.329  0.00  0.00    +0.000 NA
ATOM     12  C   UNL     1       5.090   5.727  16.032  0.00  0.00    +0.000 C 
ATOM     13  C   UNL     1       5.742   4.841  14.990  0.00  0.00    +0.000 C 
ATOM     14  C   UNL     1       7.140   4.621  15.536  0.00  0.00    +0.000 C 
ATOM     15  C   UNL     1       7.010   4.745  17.052  0.00  0.00    +0.000 C 
ENDBRANCH   8  11
ENDBRANCH   5   8
ENDBRANCH   1   2
BRANCH   1  16
ATOM     16  C   UNL     1       1.339   8.798  21.719  0.00  0.00    +0.000 C 
BRANCH  16  18
ATOM     17  N   UNL     1      -0.283  10.045  20.359  0.00  0.00    +0.000 N 
ATOM     18  C   UNL     1       0.380   9.980  21.561  0.00  0.00    +0.000 C 
ATOM     19  O   UNL     1       0.247  10.818  22.451  0.00  0.00    +0.000 OA
ATOM     20  H   UNL     1      -0.122   9.305  19.684  0.00  0.00    +0.000 HD
BRANCH  17  21
ATOM     21  C   UNL     1      -1.167  11.136  20.016  0.00  0.00    +0.000 C 
BRANCH  21  26
ATOM     22  C   UNL     1      -3.779  10.233  14.884  0.00  0.00    +0.000 C 
ATOM     23  C   UNL     1      -3.084  10.484  16.189  0.00  0.00    +0.000 A 
ATOM     24  C   UNL     1      -1.904   9.810  16.518  0.00  0.00    +0.000 A 
ATOM     25  C   UNL     1      -1.276  10.038  17.745  0.00  0.00    +0.000 A 
ATOM     26  C   UNL     1      -1.811  10.949  18.666  0.00  0.00    +0.000 A 
ATOM     27  C   UNL     1      -2.993  11.625  18.333  0.00  0.00    +0.000 A 
ATOM     28  C   UNL     1      -3.622  11.394  17.107  0.00  0.00    +0.000 A 
ENDBRANCH  21  26
ENDBRANCH  17  21
ENDBRANCH  16  18
ENDBRANCH   1  16
TORSDOF 7
ENDMDL
MODEL 5
REMARK VINA RESULT:      -7.9      2.332      3.291
REMARK  Name = 
REMARK  8 active torsions:
REMARK  status: ('A' for Active; 'I' for Inactive)
REMARK    1  A    between atoms: C_1  and  C_2
REMARK    2  A    between atoms: C_5  and  C_6
REMARK    3  A    between atoms: C_6  and  N_7
REMARK    4  A    between atoms: C_8  and  C_10
REMARK    5  A    between atoms: C_10  and  O_11
REMARK    6  A    between atoms: O_11  and  C_12
REMARK    7  A    between atoms: C_15  and  S_16
REMARK    8  A    between atoms: S_16  and  N_19
REMARK                            x       y       z     vdW  Elec       q    Type
REMARK                         _______ _______ _______ _____ _____    ______ ____
ROOT
ATOM      1  O   UNL     1       7.668   8.179  17.240  0.00  0.00    +0.000 OA
ENDROOT
BRANCH   1   2
ATOM      2  C   UNL     1       6.812   7.150  17.531  0.00  0.00    +0.000 A 
ATOM      3  C   UNL     1       7.263   6.237  18.490  0.00  0.00    +0.000 A 
ATOM      4  C   UNL     1       6.476   5.140  18.856  0.00  0.00    +0.000 A 
ATOM      5  C   UNL     1       5.217   4.969  18.274  0.00  0.00    +0.000 A 
ATOM      6  C   UNL     1       4.739   5.893  17.345  0.00  0.00    +0.000 A 
ATOM      7  C   UNL     1       5.539   6.981  16.973  0.00  0.00    +0.000 A 
BRANCH   5   8
ATOM      8  S   UNL     1       4.250   3.520  18.635  0.00  0.00    +0.000 S 
ATOM      9  O   UNL     1       4.089   2.801  17.389  0.00  0.00    +0.000 OA
ATOM     10  O   UNL     1       4.827   2.875  19.799  0.00  0.00    +0.000 OA
BRANCH   8  11
ATOM     11  N   UNL     1       2.716   4.116  19.095  0.00  0.00    +0.000 NA
ATOM     12  C   UNL     1       2.623   4.831  20.390  0.00  0.00    +0.000 C 
ATOM     13  C   UNL     1       2.137   3.792  21.379  0.00  0.00    +0.000 C 
ATOM     14  C   UNL     1       1.170   2.954  20.565  0.00  0.00    +0.000 C 
ATOM     15  C   UNL     1       1.653   3.060  19.120  0.00  0.00    +0.000 C 
ENDBRANCH   8  11
ENDBRANCH   5   8
ENDBRANCH   1   2
BRANCH   1  16
ATOM     16  C   UNL     1       8.529   8.577  18.307  0.00  0.00    +0.000 C 
BRANCH  16  18
ATOM     17  N   UNL     1       9.630  10.511  19.346  0.00  0.00    +0.000 N 
ATOM     18  C   UNL     1       8.784  10.085  18.352  0.00  0.00    +0.000 C 
ATOM     19  O   UNL     1       8.236  10.849  17.558  0.00  0.00    +0.000 OA
ATOM     20  H   UNL     1      10.047   9.811  19.951  0.00  0.00    +0.000 HD
BRANCH  17  21
ATOM     21  C   UNL     1       9.919  11.909  19.577  0.00  0.00    +0.000 C 
BRANCH  21  26
ATOM     22  C   UNL     1       7.977  13.764  24.750  0.00  0.00    +0.000 C 
ATOM     23  C   UNL     1       8.508  13.285  23.431  0.00  0.00    +0.000 A 
ATOM     24  C   UNL     1       9.206  14.147  22.580  0.00  0.00    +0.000 A 
ATOM     25  C   UNL     1       9.679  13.695  21.346  0.00  0.00    +0.000 A 
ATOM     26  C   UNL     1       9.469  12.370  20.940  0.00  0.00    +0.000 A 
ATOM     27  C   UNL     1       8.769  11.507  21.795  0.00  0.00    +0.000 A 
ATOM     28  C   UNL     1       8.294  11.962  23.029  0.00  0.00    +0.000 A 
ENDBRANCH  21  26
ENDBRANCH  17  21
ENDBRANCH  16  18
ENDBRANCH   1  16
TORSDOF 7
ENDMDL
MODEL 6
REMARK VINA RESULT:      -7.9      1.958      2.822
REMARK  Name = 
REMARK  8 active torsions:
REMARK  status: ('A' for Active; 'I' for Inactive)
REMARK    1  A    between atoms: C_1  and  C_2
REMARK    2  A    between atoms: C_5  and  C_6
REMARK    3  A    between atoms: C_6  and  N_7
REMARK    4  A    between atoms: C_8  and  C_10
REMARK    5  A    between atoms: C_10  and  O_11
REMARK    6  A    between atoms: O_11  and  C_12
REMARK    7  A    between atoms: C_15  and  S_16
REMARK    8  A    between atoms: S_16  and  N_19
REMARK                            x       y       z     vdW  Elec       q    Type
REMARK                         _______ _______ _______ _____ _____    ______ ____
ROOT
ATOM      1  O   UNL     1       7.747   7.544  16.835  0.00  0.00    +0.000 OA
ENDROOT
BRANCH   1   2
ATOM      2  C   UNL     1       6.830   6.567  17.129  0.00  0.00    +0.000 A 
ATOM      3  C   UNL     1       5.577   6.710  16.525  0.00  0.00    +0.000 A 
ATOM      4  C   UNL     1       4.561   5.779  16.764  0.00  0.00    +0.000 A 
ATOM      5  C   UNL     1       4.810   4.682  17.594  0.00  0.00    +0.000 A 
ATOM      6  C   UNL     1       6.067   4.509  18.173  0.00  0.00    +0.000 A 
ATOM      7  C   UNL     1       7.075   5.454  17.941  0.00  0.00    +0.000 A 
BRANCH   5   8
ATOM      8  S   UNL     1       3.500   3.552  18.007  0.00  0.00    +0.000 S 
ATOM      9  O   UNL     1       2.301   4.042  17.360  0.00  0.00    +0.000 OA
ATOM     10  O   UNL     1       3.979   2.204  17.766  0.00  0.00    +0.000 OA
BRANCH   8  11
ATOM     11  N   UNL     1       3.288   3.719  19.695  0.00  0.00    +0.000 NA
ATOM     12  C   UNL     1       2.412   2.735  20.372  0.00  0.00    +0.000 C 
ATOM     13  C   UNL     1       1.064   3.418  20.481  0.00  0.00    +0.000 C 
ATOM     14  C   UNL     1       1.422   4.868  20.743  0.00  0.00    +0.000 C 
ATOM     15  C   UNL     1       2.791   5.074  20.098  0.00  0.00    +0.000 C 
ENDBRANCH   8  11
ENDBRANCH   5   8
ENDBRANCH   1   2
BRANCH   1  16
ATOM     16  C   UNL     1       7.500   8.813  17.441  0.00  0.00    +0.000 C 
BRANCH  16  18
ATOM     17  N   UNL     1       8.997  10.500  18.414  0.00  0.00    +0.000 N 
ATOM     18  C   UNL     1       8.551   9.202  18.483  0.00  0.00    +0.000 C 
ATOM     19  O   UNL     1       8.975   8.385  19.299  0.00  0.00    +0.000 OA
ATOM     20  H   UNL     1       8.585  11.110  17.716  0.00  0.00    +0.000 HD
BRANCH  17  21
ATOM     21  C   UNL     1      10.041  11.011  19.273  0.00  0.00    +0.000 C 
BRANCH  21  26
ATOM     22  C   UNL     1      12.191  16.005  17.172  0.00  0.00    +0.000 C 
ATOM     23  C   UNL     1      11.668  14.705  17.708  0.00  0.00    +0.000 A 
ATOM     24  C   UNL     1      11.358  13.645  16.851  0.00  0.00    +0.000 A 
ATOM     25  C   UNL     1      10.853  12.446  17.361  0.00  0.00    +0.000 A 
ATOM     26  C   UNL     1      10.653  12.280  18.738  0.00  0.00    +0.000 A 
ATOM     27  C   UNL     1      10.966  13.345  19.595  0.00  0.00    +0.000 A 
ATOM     28  C   UNL     1      11.468  14.545  19.084  0.00  0.00    +0.000 A 
ENDBRANCH  21  26
ENDBRANCH  17  21
ENDBRANCH  16  18
ENDBRANCH   1  16
TORSDOF 7
ENDMDL
MODEL 7
REMARK VINA RESULT:      -7.8      2.257      3.171
REMARK  Name = 
REMARK  8 active torsions:
REMARK  status: ('A' for Active; 'I' for Inactive)
REMARK    1  A    between atoms: C_1  and  C_2
REMARK    2  A    between atoms: C_5  and  C_6
REMARK    3  A    between atoms: C_6  and  N_7
REMARK    4  A    between atoms: C_8  and  C_10
REMARK    5  A    between atoms: C_10  and  O_11
REMARK    6  A    between atoms: O_11  and  C_12
REMARK    7  A    between atoms: C_15  and  S_16
REMARK    8  A    between atoms: S_16  and  N_19
REMARK                            x       y       z     vdW  Elec       q    Type
REMARK                         _______ _______ _______ _____ _____    ______ ____
ROOT
ATOM      1  O   UNL     1       7.915   7.890  17.138  0.00  0.00    +0.000 OA
ENDROOT
BRANCH   1   2
ATOM      2  C   UNL     1       7.140   6.823  17.514  0.00  0.00    +0.000 A 
ATOM      3  C   UNL     1       5.791   6.896  17.154  0.00  0.00    +0.000 A 
ATOM      4  C   UNL     1       4.905   5.869  17.498  0.00  0.00    +0.000 A 
ATOM      5  C   UNL     1       5.380   4.748  18.186  0.00  0.00    +0.000 A 
ATOM      6  C   UNL     1       6.731   4.646  18.517  0.00  0.00    +0.000 A 
ATOM      7  C   UNL     1       7.609   5.686  18.183  0.00  0.00    +0.000 A 
BRANCH   5   8
ATOM      8  S   UNL     1       4.253   3.488  18.736  0.00  0.00    +0.000 S 
ATOM      9  O   UNL     1       3.919   2.686  17.578  0.00  0.00    +0.000 OA
ATOM     10  O   UNL     1       4.810   2.879  19.929  0.00  0.00    +0.000 OA
BRANCH   8  11
ATOM     11  N   UNL     1       2.844   4.332  19.211  0.00  0.00    +0.000 NA
ATOM     12  C   UNL     1       2.616   4.516  20.663  0.00  0.00    +0.000 C 
ATOM     13  C   UNL     1       1.668   3.403  21.057  0.00  0.00    +0.000 C 
ATOM     14  C   UNL     1       0.754   3.274  19.854  0.00  0.00    +0.000 C 
ATOM     15  C   UNL     1       1.584   3.738  18.659  0.00  0.00    +0.000 C 
ENDBRANCH   8  11
ENDBRANCH   5   8
ENDBRANCH   1   2
BRANCH   1  16
ATOM     16  C   UNL     1       7.512   9.152  17.669  0.00  0.00    +0.000 C 
BRANCH  16  18
ATOM     17  N   UNL     1       8.907  11.169  17.811  0.00  0.00    +0.000 N 
ATOM     18  C   UNL     1       8.655   9.924  18.333  0.00  0.00    +0.000 C 
ATOM     19  O   UNL     1       9.308   9.431  19.252  0.00  0.00    +0.000 OA
ATOM     20  H   UNL     1       8.312  11.502  17.060  0.00  0.00    +0.000 HD
BRANCH  17  21
ATOM     21  C   UNL     1       9.998  11.999  18.270  0.00  0.00    +0.000 C 
BRANCH  21  26
ATOM     22  C   UNL     1       8.603  17.658  18.284  0.00  0.00    +0.000 C 
ATOM     23  C   UNL     1       8.962  16.202  18.314  0.00  0.00    +0.000 A 
ATOM     24  C   UNL     1      10.268  15.788  18.592  0.00  0.00    +0.000 A 
ATOM     25  C   UNL     1      10.596  14.430  18.599  0.00  0.00    +0.000 A 
ATOM     26  C   UNL     1       9.622  13.457  18.333  0.00  0.00    +0.000 A 
ATOM     27  C   UNL     1       8.313  13.875  18.055  0.00  0.00    +0.000 A 
ATOM     28  C   UNL     1       7.987  15.234  18.047  0.00  0.00    +0.000 A 
ENDBRANCH  21  26
ENDBRANCH  17  21
ENDBRANCH  16  18
ENDBRANCH   1  16
TORSDOF 7
ENDMDL
MODEL 8
REMARK VINA RESULT:      -7.8      5.429      8.522
REMARK  Name = 
REMARK  8 active torsions:
REMARK  status: ('A' for Active; 'I' for Inactive)
REMARK    1  A    between atoms: C_1  and  C_2
REMARK    2  A    between atoms: C_5  and  C_6
REMARK    3  A    between atoms: C_6  and  N_7
REMARK    4  A    between atoms: C_8  and  C_10
REMARK    5  A    between atoms: C_10  and  O_11
REMARK    6  A    between atoms: O_11  and  C_12
REMARK    7  A    between atoms: C_15  and  S_16
REMARK    8  A    between atoms: S_16  and  N_19
REMARK                            x       y       z     vdW  Elec       q    Type
REMARK                         _______ _______ _______ _____ _____    ______ ____
ROOT
ATOM      1  O   UNL     1       0.748   7.879  21.067  0.00  0.00    +0.000 OA
ENDROOT
BRANCH   1   2
ATOM      2  C   UNL     1       1.644   7.100  20.381  0.00  0.00    +0.000 A 
ATOM      3  C   UNL     1       1.810   5.799  20.864  0.00  0.00    +0.000 A 
ATOM      4  C   UNL     1       2.709   4.919  20.250  0.00  0.00    +0.000 A 
ATOM      5  C   UNL     1       3.428   5.340  19.127  0.00  0.00    +0.000 A 
ATOM      6  C   UNL     1       3.243   6.624  18.613  0.00  0.00    +0.000 A 
ATOM      7  C   UNL     1       2.352   7.503  19.243  0.00  0.00    +0.000 A 
BRANCH   5   8
ATOM      8  S   UNL     1       4.660   4.283  18.402  0.00  0.00    +0.000 S 
ATOM      9  O   UNL     1       5.771   4.234  19.328  0.00  0.00    +0.000 OA
ATOM     10  O   UNL     1       4.004   3.068  17.959  0.00  0.00    +0.000 OA
BRANCH   8  11
ATOM     11  N   UNL     1       5.185   5.113  17.002  0.00  0.00    +0.000 NA
ATOM     12  C   UNL     1       4.921   4.473  15.692  0.00  0.00    +0.000 C 
ATOM     13  C   UNL     1       6.209   3.760  15.336  0.00  0.00    +0.000 C 
ATOM     14  C   UNL     1       7.286   4.692  15.857  0.00  0.00    +0.000 C 
ATOM     15  C   UNL     1       6.646   5.443  17.023  0.00  0.00    +0.000 C 
ENDBRANCH   8  11
ENDBRANCH   5   8
ENDBRANCH   1   2
BRANCH   1  16
ATOM     16  C   UNL     1       1.285   9.078  21.625  0.00  0.00    +0.000 C 
BRANCH  16  18
ATOM     17  N   UNL     1      -0.639  10.418  20.891  0.00  0.00    +0.000 N 
ATOM     18  C   UNL     1       0.731  10.350  20.979  0.00  0.00    +0.000 C 
ATOM     19  O   UNL     1       1.480  11.227  20.549  0.00  0.00    +0.000 OA
ATOM     20  H   UNL     1      -1.181   9.655  21.281  0.00  0.00    +0.000 HD
BRANCH  17  21
ATOM     21  C   UNL     1      -1.323  11.514  20.241  0.00  0.00    +0.000 C 
BRANCH  21  26
ATOM     22  C   UNL     1      -3.464  10.145  14.996  0.00  0.00    +0.000 C 
ATOM     23  C   UNL     1      -2.937  10.479  16.360  0.00  0.00    +0.000 A 
ATOM     24  C   UNL     1      -3.571  11.431  17.164  0.00  0.00    +0.000 A 
ATOM     25  C   UNL     1      -3.061  11.748  18.425  0.00  0.00    +0.000 A 
ATOM     26  C   UNL     1      -1.909  11.115  18.911  0.00  0.00    +0.000 A 
ATOM     27  C   UNL     1      -1.275  10.160  18.104  0.00  0.00    +0.000 A 
ATOM     28  C   UNL     1      -1.785   9.846  16.841  0.00  0.00    +0.000 A 
ENDBRANCH  21  26
ENDBRANCH  17  21
ENDBRANCH  16  18
ENDBRANCH   1  16
TORSDOF 7
ENDMDL
MODEL 9
REMARK VINA RESULT:      -7.7      4.252     10.754
REMARK  Name = 
REMARK  8 active torsions:
REMARK  status: ('A' for Active; 'I' for Inactive)
REMARK    1  A    between atoms: C_1  and  C_2
REMARK    2  A    between atoms: C_5  and  C_6
REMARK    3  A    between atoms: C_6  and  N_7
REMARK    4  A    between atoms: C_8  and  C_10
REMARK    5  A    between atoms: C_10  and  O_11
REMARK    6  A    between atoms: O_11  and  C_12
REMARK    7  A    between atoms: C_15  and  S_16
REMARK    8  A    between atoms: S_16  and  N_19
REMARK                            x       y       z     vdW  Elec       q    Type
REMARK                         _______ _______ _______ _____ _____    ______ ____
ROOT
ATOM      1  O   UNL     1       7.643   9.026  17.707  0.00  0.00    +0.000 OA
ENDROOT
BRANCH   1   2
ATOM      2  C   UNL     1       8.424  10.063  18.147  0.00  0.00    +0.000 A 
ATOM      3  C   UNL     1       8.244  11.281  17.483  0.00  0.00    +0.000 A 
ATOM      4  C   UNL     1       8.998  12.405  17.839  0.00  0.00    +0.000 A 
ATOM      5  C   UNL     1       9.920  12.314  18.886  0.00  0.00    +0.000 A 
ATOM      6  C   UNL     1      10.081  11.115  19.580  0.00  0.00    +0.000 A 
ATOM      7  C   UNL     1       9.334   9.991  19.208  0.00  0.00    +0.000 A 
BRANCH   5   8
ATOM      8  S   UNL     1      10.972  13.694  19.278  0.00  0.00    +0.000 S 
ATOM      9  O   UNL     1      10.634  14.113  20.621  0.00  0.00    +0.000 OA
ATOM     10  O   UNL     1      12.333  13.332  18.930  0.00  0.00    +0.000 OA
BRANCH   8  11
ATOM     11  N   UNL     1      10.489  14.935  18.206  0.00  0.00    +0.000 NA
ATOM     12  C   UNL     1      11.487  15.408  17.218  0.00  0.00    +0.000 C 
ATOM     13  C   UNL     1      12.097  16.648  17.836  0.00  0.00    +0.000 C 
ATOM     14  C   UNL     1      10.928  17.300  18.550  0.00  0.00    +0.000 C 
ATOM     15  C   UNL     1       9.980  16.158  18.908  0.00  0.00    +0.000 C 
ENDBRANCH   8  11
ENDBRANCH   5   8
ENDBRANCH   1   2
BRANCH   1  16
ATOM     16  C   UNL     1       8.066   7.727  18.121  0.00  0.00    +0.000 C 
BRANCH  16  18
ATOM     17  N   UNL     1       6.197   6.968  16.719  0.00  0.00    +0.000 N 
ATOM     18  C   UNL     1       7.320   6.592  17.416  0.00  0.00    +0.000 C 
ATOM     19  O   UNL     1       7.702   5.426  17.503  0.00  0.00    +0.000 OA
ATOM     20  H   UNL     1       5.960   7.954  16.691  0.00  0.00    +0.000 HD
BRANCH  17  21
ATOM     21  C   UNL     1       5.335   6.014  16.059  0.00  0.00    +0.000 C 
BRANCH  21  26
ATOM     22  C   UNL     1       1.295   3.981  19.736  0.00  0.00    +0.000 C 
ATOM     23  C   UNL     1       2.313   4.501  18.765  0.00  0.00    +0.000 A 
ATOM     24  C   UNL     1       2.985   3.638  17.895  0.00  0.00    +0.000 A 
ATOM     25  C   UNL     1       3.945   4.131  17.007  0.00  0.00    +0.000 A 
ATOM     26  C   UNL     1       4.248   5.499  16.968  0.00  0.00    +0.000 A 
ATOM     27  C   UNL     1       3.571   6.363  17.841  0.00  0.00    +0.000 A 
ATOM     28  C   UNL     1       2.613   5.867  18.730  0.00  0.00    +0.000 A 
ENDBRANCH  21  26
ENDBRANCH  17  21
ENDBRANCH  16  18
ENDBRANCH   1  16
TORSDOF 7
ENDMDL
