MODEL 1
REMARK VINA RESULT:      -6.5      0.000      0.000
REMARK  Name = 
REMARK  19 active torsions:
REMARK  status: ('A' for Active; 'I' for Inactive)
REMARK    1  A    between atoms: C_1  and  C_2
REMARK    2  A    between atoms: C_2  and  N_3
REMARK    3  A    between atoms: N_3  and  C_4
REMARK    4  A    between atoms: C_5  and  C_7
REMARK    5  A    between atoms: C_7  and  N_8
REMARK    6  A    between atoms: C_7  and  C_30
REMARK    7  A    between atoms: C_9  and  C_11
REMARK    8  A    between atoms: C_16  and  C_18
REMARK    9  A    between atoms: C_18  and  N_19
REMARK   10  A    between atoms: C_18  and  C_27
REMARK   11  A    between atoms: C_20  and  O_22
REMARK   12  A    between atoms: O_22  and  C_23
REMARK   13  A    between atoms: C_23  and  C_24
REMARK   14  A    between atoms: C_23  and  C_25
REMARK   15  A    between atoms: C_23  and  C_26
REMARK   16  A    between atoms: C_27  and  C_28
REMARK   17  A    between atoms: C_27  and  C_29
REMARK   18  A    between atoms: C_30  and  C_31
REMARK   19  A    between atoms: C_30  and  C_32
REMARK                            x       y       z     vdW  Elec       q    Type
REMARK                         _______ _______ _______ _____ _____    ______ ____
ROOT
ATOM      1  C   UNL     1       2.004   8.036  19.830  0.00  0.00    +0.000 C 
ATOM      2  C   UNL     1       1.244   7.286  20.926  0.00  0.00    +0.000 C 
ATOM      3  C   UNL     1       0.596   8.429  21.707  0.00  0.00    +0.000 C 
ATOM      4  C   UNL     1       0.259   9.473  20.638  0.00  0.00    +0.000 C 
ATOM      5  N   UNL     1       1.096   9.152  19.490  0.00  0.00    +0.000 N 
ATOM      6  C   UNL     1       1.416   9.983  18.437  0.00  0.00    +0.000 C 
ATOM      7  O   UNL     1       2.287   9.626  17.627  0.00  0.00    +0.000 OA
ENDROOT
BRANCH   1   9
ATOM      8  N   UNL     1       3.936   6.972  18.539  0.00  0.00    +0.000 N 
ATOM      9  C   UNL     1       2.570   7.180  18.642  0.00  0.00    +0.000 C 
ATOM     10  O   UNL     1       1.755   6.699  17.842  0.00  0.00    +0.000 OA
ATOM     11  H   UNL     1       4.575   7.633  18.956  0.00  0.00    +0.000 HD
BRANCH   8  12
ATOM     12  C   UNL     1       4.465   5.865  17.701  0.00  0.00    +0.000 C 
BRANCH  12  15
ATOM     13  N   UNL     1       3.295   3.728  18.816  0.00  0.00    +0.000 N 
ATOM     14  C   UNL     1       3.241   4.224  20.169  0.00  0.00    +0.000 C 
ATOM     15  C   UNL     1       3.845   4.368  17.706  0.00  0.00    +0.000 C 
ATOM     16  O   UNL     1       3.714   3.797  16.613  0.00  0.00    +0.000 OA
BRANCH  13  18
ATOM     17  C   UNL     1       1.163   2.402  18.805  0.00  0.00    +0.000 C 
ATOM     18  C   UNL     1       2.675   2.401  18.617  0.00  0.00    +0.000 C 
ENDBRANCH  13  18
ENDBRANCH  12  15
BRANCH  12  19
ATOM     19  C   UNL     1       6.037   5.711  17.811  0.00  0.00    +0.000 C 
ATOM     20  C   UNL     1       6.873   6.895  17.312  0.00  0.00    +0.000 C 
ATOM     21  C   UNL     1       6.515   5.353  19.223  0.00  0.00    +0.000 C 
ENDBRANCH  12  19
ENDBRANCH   8  12
ENDBRANCH   1   9
BRANCH   6  22
ATOM     22  C   UNL     1       0.865  11.433  18.239  0.00  0.00    +0.000 C 
BRANCH  22  23
ATOM     23  N   UNL     1      -0.560  11.780  17.961  0.00  0.00    +0.000 N 
ATOM     24  C   UNL     1      -1.623  10.986  17.628  0.00  0.00    +0.000 C 
ATOM     25  O   UNL     1      -1.531   9.833  17.242  0.00  0.00    +0.000 OA
ATOM     26  H   UNL     1      -0.872  12.652  18.370  0.00  0.00    +0.000 HD
BRANCH  24  27
ATOM     27  O   UNL     1      -2.802  11.662  17.835  0.00  0.00    +0.000 OA
BRANCH  27  28
ATOM     28  C   UNL     1      -4.089  11.240  17.251  0.00  0.00    +0.000 C 
ATOM     29  C   UNL     1      -3.979  10.934  15.752  0.00  0.00    +0.000 C 
ATOM     30  C   UNL     1      -4.516   9.924  17.947  0.00  0.00    +0.000 C 
ATOM     31  C   UNL     1      -5.203  12.262  17.519  0.00  0.00    +0.000 C 
ENDBRANCH  27  28
ENDBRANCH  24  27
ENDBRANCH  22  23
BRANCH  22  32
ATOM     32  C   UNL     1       1.679  12.414  19.130  0.00  0.00    +0.000 C 
ATOM     33  C   UNL     1       2.649  13.279  18.286  0.00  0.00    +0.000 C 
ATOM     34  C   UNL     1       0.775  13.363  19.912  0.00  0.00    +0.000 C 
ENDBRANCH  22  32
ENDBRANCH   6  22
TORSDOF 10
ENDMDL
MODEL 2
REMARK VINA RESULT:      -6.5      1.063      1.468
REMARK  Name = 
REMARK  19 active torsions:
REMARK  status: ('A' for Active; 'I' for Inactive)
REMARK    1  A    between atoms: C_1  and  C_2
REMARK    2  A    between atoms: C_2  and  N_3
REMARK    3  A    between atoms: N_3  and  C_4
REMARK    4  A    between atoms: C_5  and  C_7
REMARK    5  A    between atoms: C_7  and  N_8
REMARK    6  A    between atoms: C_7  and  C_30
REMARK    7  A    between atoms: C_9  and  C_11
REMARK    8  A    between atoms: C_16  and  C_18
REMARK    9  A    between atoms: C_18  and  N_19
REMARK   10  A    between atoms: C_18  and  C_27
REMARK   11  A    between atoms: C_20  and  O_22
REMARK   12  A    between atoms: O_22  and  C_23
REMARK   13  A    between atoms: C_23  and  C_24
REMARK   14  A    between atoms: C_23  and  C_25
REMARK   15  A    between atoms: C_23  and  C_26
REMARK   16  A    between atoms: C_27  and  C_28
REMARK   17  A    between atoms: C_27  and  C_29
REMARK   18  A    between atoms: C_30  and  C_31
REMARK   19  A    between atoms: C_30  and  C_32
REMARK                            x       y       z     vdW  Elec       q    Type
REMARK                         _______ _______ _______ _____ _____    ______ ____
ROOT
ATOM      1  C   UNL     1       2.361   7.509  19.695  0.00  0.00    +0.000 C 
ATOM      2  C   UNL     1       1.706   6.616  20.751  0.00  0.00    +0.000 C 
ATOM      3  C   UNL     1       1.049   7.641  21.676  0.00  0.00    +0.000 C 
ATOM      4  C   UNL     1       0.597   8.762  20.734  0.00  0.00    +0.000 C 
ATOM      5  N   UNL     1       1.379   8.600  19.517  0.00  0.00    +0.000 N 
ATOM      6  C   UNL     1       1.595   9.545  18.536  0.00  0.00    +0.000 C 
ATOM      7  O   UNL     1       2.433   9.316  17.648  0.00  0.00    +0.000 OA
ENDROOT
BRANCH   1   9
ATOM      8  N   UNL     1       4.242   6.901  18.075  0.00  0.00    +0.000 N 
ATOM      9  C   UNL     1       2.898   6.804  18.400  0.00  0.00    +0.000 C 
ATOM     10  O   UNL     1       2.088   6.159  17.719  0.00  0.00    +0.000 OA
ATOM     11  H   UNL     1       4.782   7.684  18.413  0.00  0.00    +0.000 HD
BRANCH   8  12
ATOM     12  C   UNL     1       4.854   5.941  17.121  0.00  0.00    +0.000 C 
BRANCH  12  15
ATOM     13  N   UNL     1       4.274   3.505  18.074  0.00  0.00    +0.000 N 
ATOM     14  C   UNL     1       4.588   3.762  19.459  0.00  0.00    +0.000 C 
ATOM     15  C   UNL     1       4.402   4.390  17.004  0.00  0.00    +0.000 C 
ATOM     16  O   UNL     1       3.998   3.990  15.902  0.00  0.00    +0.000 OA
BRANCH  13  18
ATOM     17  C   UNL     1       2.783   1.648  18.868  0.00  0.00    +0.000 C 
ATOM     18  C   UNL     1       3.746   2.153  17.800  0.00  0.00    +0.000 C 
ENDBRANCH  13  18
ENDBRANCH  12  15
BRANCH  12  19
ATOM     19  C   UNL     1       6.437   5.956  17.167  0.00  0.00    +0.000 C 
ATOM     20  C   UNL     1       7.158   5.262  16.006  0.00  0.00    +0.000 C 
ATOM     21  C   UNL     1       7.027   7.363  17.320  0.00  0.00    +0.000 C 
ENDBRANCH  12  19
ENDBRANCH   8  12
ENDBRANCH   1   9
BRANCH   6  22
ATOM     22  C   UNL     1       0.961  10.974  18.512  0.00  0.00    +0.000 C 
BRANCH  22  23
ATOM     23  N   UNL     1      -0.492  11.272  18.686  0.00  0.00    +0.000 N 
ATOM     24  C   UNL     1      -1.274  12.253  18.139  0.00  0.00    +0.000 C 
ATOM     25  O   UNL     1      -0.845  13.247  17.578  0.00  0.00    +0.000 OA
ATOM     26  H   UNL     1      -1.053  10.486  18.989  0.00  0.00    +0.000 HD
BRANCH  24  27
ATOM     27  O   UNL     1      -2.603  11.929  18.275  0.00  0.00    +0.000 OA
BRANCH  27  28
ATOM     28  C   UNL     1      -3.326  11.065  17.322  0.00  0.00    +0.000 C 
ATOM     29  C   UNL     1      -4.773  11.523  17.101  0.00  0.00    +0.000 C 
ATOM     30  C   UNL     1      -2.609  11.167  15.953  0.00  0.00    +0.000 C 
ATOM     31  C   UNL     1      -3.278   9.588  17.736  0.00  0.00    +0.000 C 
ENDBRANCH  27  28
ENDBRANCH  24  27
ENDBRANCH  22  23
BRANCH  22  32
ATOM     32  C   UNL     1       1.976  11.993  19.105  0.00  0.00    +0.000 C 
ATOM     33  C   UNL     1       2.394  13.056  18.057  0.00  0.00    +0.000 C 
ATOM     34  C   UNL     1       1.407  12.732  20.312  0.00  0.00    +0.000 C 
ENDBRANCH  22  32
ENDBRANCH   6  22
TORSDOF 10
ENDMDL
MODEL 3
REMARK VINA RESULT:      -6.5      0.946      1.131
REMARK  Name = 
REMARK  19 active torsions:
REMARK  status: ('A' for Active; 'I' for Inactive)
REMARK    1  A    between atoms: C_1  and  C_2
REMARK    2  A    between atoms: C_2  and  N_3
REMARK    3  A    between atoms: N_3  and  C_4
REMARK    4  A    between atoms: C_5  and  C_7
REMARK    5  A    between atoms: C_7  and  N_8
REMARK    6  A    between atoms: C_7  and  C_30
REMARK    7  A    between atoms: C_9  and  C_11
REMARK    8  A    between atoms: C_16  and  C_18
REMARK    9  A    between atoms: C_18  and  N_19
REMARK   10  A    between atoms: C_18  and  C_27
REMARK   11  A    between atoms: C_20  and  O_22
REMARK   12  A    between atoms: O_22  and  C_23
REMARK   13  A    between atoms: C_23  and  C_24
REMARK   14  A    between atoms: C_23  and  C_25
REMARK   15  A    between atoms: C_23  and  C_26
REMARK   16  A    between atoms: C_27  and  C_28
REMARK   17  A    between atoms: C_27  and  C_29
REMARK   18  A    between atoms: C_30  and  C_31
REMARK   19  A    between atoms: C_30  and  C_32
REMARK                            x       y       z     vdW  Elec       q    Type
REMARK                         _______ _______ _______ _____ _____    ______ ____
ROOT
ATOM      1  C   UNL     1       2.151   7.987  19.670  0.00  0.00    +0.000 C 
ATOM      2  C   UNL     1       1.586   7.247  20.883  0.00  0.00    +0.000 C 
ATOM      3  C   UNL     1       1.072   8.396  21.751  0.00  0.00    +0.000 C 
ATOM      4  C   UNL     1       0.559   9.429  20.742  0.00  0.00    +0.000 C 
ATOM      5  N   UNL     1       1.195   9.098  19.474  0.00  0.00    +0.000 N 
ATOM      6  C   UNL     1       1.334   9.920  18.376  0.00  0.00    +0.000 C 
ATOM      7  O   UNL     1       2.060   9.556  17.436  0.00  0.00    +0.000 OA
ENDROOT
BRANCH   1   9
ATOM      8  N   UNL     1       3.771   7.244  17.838  0.00  0.00    +0.000 N 
ATOM      9  C   UNL     1       2.515   7.121  18.413  0.00  0.00    +0.000 C 
ATOM     10  O   UNL     1       1.658   6.332  17.991  0.00  0.00    +0.000 OA
ATOM     11  H   UNL     1       4.291   8.101  17.955  0.00  0.00    +0.000 HD
BRANCH   8  12
ATOM     12  C   UNL     1       4.288   6.185  16.934  0.00  0.00    +0.000 C 
BRANCH  12  15
ATOM     13  N   UNL     1       4.568   4.022  18.492  0.00  0.00    +0.000 N 
ATOM     14  C   UNL     1       5.150   4.683  19.634  0.00  0.00    +0.000 C 
ATOM     15  C   UNL     1       4.206   4.603  17.277  0.00  0.00    +0.000 C 
ATOM     16  O   UNL     1       3.645   3.866  16.453  0.00  0.00    +0.000 OA
BRANCH  13  18
ATOM     17  C   UNL     1       4.432   2.115  20.119  0.00  0.00    +0.000 C 
ATOM     18  C   UNL     1       4.326   2.575  18.670  0.00  0.00    +0.000 C 
ENDBRANCH  13  18
ENDBRANCH  12  15
BRANCH  12  19
ATOM     19  C   UNL     1       5.765   6.471  16.439  0.00  0.00    +0.000 C 
ATOM     20  C   UNL     1       6.744   7.005  17.491  0.00  0.00    +0.000 C 
ATOM     21  C   UNL     1       6.419   5.267  15.749  0.00  0.00    +0.000 C 
ENDBRANCH  12  19
ENDBRANCH   8  12
ENDBRANCH   1   9
BRANCH   6  22
ATOM     22  C   UNL     1       0.752  11.366  18.258  0.00  0.00    +0.000 C 
BRANCH  22  23
ATOM     23  N   UNL     1      -0.701  11.708  18.222  0.00  0.00    +0.000 N 
ATOM     24  C   UNL     1      -1.795  10.926  17.969  0.00  0.00    +0.000 C 
ATOM     25  O   UNL     1      -1.752   9.817  17.465  0.00  0.00    +0.000 OA
ATOM     26  H   UNL     1      -0.956  12.531  18.753  0.00  0.00    +0.000 HD
BRANCH  24  27
ATOM     27  O   UNL     1      -2.937  11.555  18.407  0.00  0.00    +0.000 OA
BRANCH  27  28
ATOM     28  C   UNL     1      -4.250  11.392  17.756  0.00  0.00    +0.000 C 
ATOM     29  C   UNL     1      -4.147  11.386  16.225  0.00  0.00    +0.000 C 
ATOM     30  C   UNL     1      -4.817  10.012  18.172  0.00  0.00    +0.000 C 
ATOM     31  C   UNL     1      -5.260  12.446  18.230  0.00  0.00    +0.000 C 
ENDBRANCH  27  28
ENDBRANCH  24  27
ENDBRANCH  22  23
BRANCH  22  32
ATOM     32  C   UNL     1       1.702  12.359  18.988  0.00  0.00    +0.000 C 
ATOM     33  C   UNL     1       2.351  13.358  17.997  0.00  0.00    +0.000 C 
ATOM     34  C   UNL     1       0.972  13.172  20.053  0.00  0.00    +0.000 C 
ENDBRANCH  22  32
ENDBRANCH   6  22
TORSDOF 10
ENDMDL
MODEL 4
REMARK VINA RESULT:      -6.4      1.175      1.632
REMARK  Name = 
REMARK  19 active torsions:
REMARK  status: ('A' for Active; 'I' for Inactive)
REMARK    1  A    between atoms: C_1  and  C_2
REMARK    2  A    between atoms: C_2  and  N_3
REMARK    3  A    between atoms: N_3  and  C_4
REMARK    4  A    between atoms: C_5  and  C_7
REMARK    5  A    between atoms: C_7  and  N_8
REMARK    6  A    between atoms: C_7  and  C_30
REMARK    7  A    between atoms: C_9  and  C_11
REMARK    8  A    between atoms: C_16  and  C_18
REMARK    9  A    between atoms: C_18  and  N_19
REMARK   10  A    between atoms: C_18  and  C_27
REMARK   11  A    between atoms: C_20  and  O_22
REMARK   12  A    between atoms: O_22  and  C_23
REMARK   13  A    between atoms: C_23  and  C_24
REMARK   14  A    between atoms: C_23  and  C_25
REMARK   15  A    between atoms: C_23  and  C_26
REMARK   16  A    between atoms: C_27  and  C_28
REMARK   17  A    between atoms: C_27  and  C_29
REMARK   18  A    between atoms: C_30  and  C_31
REMARK   19  A    between atoms: C_30  and  C_32
REMARK                            x       y       z     vdW  Elec       q    Type
REMARK                         _______ _______ _______ _____ _____    ______ ____
ROOT
ATOM      1  C   UNL     1       2.129   7.933  19.949  0.00  0.00    +0.000 C 
ATOM      2  C   UNL     1       1.580   7.413  21.279  0.00  0.00    +0.000 C 
ATOM      3  C   UNL     1       1.022   8.687  21.916  0.00  0.00    +0.000 C 
ATOM      4  C   UNL     1       0.483   9.495  20.732  0.00  0.00    +0.000 C 
ATOM      5  N   UNL     1       1.139   8.955  19.549  0.00  0.00    +0.000 N 
ATOM      6  C   UNL     1       1.258   9.562  18.317  0.00  0.00    +0.000 C 
ATOM      7  O   UNL     1       2.003   9.054  17.462  0.00  0.00    +0.000 OA
ENDROOT
BRANCH   1   9
ATOM      8  N   UNL     1       3.824   6.840  18.380  0.00  0.00    +0.000 N 
ATOM      9  C   UNL     1       2.530   6.860  18.877  0.00  0.00    +0.000 C 
ATOM     10  O   UNL     1       1.664   6.046  18.526  0.00  0.00    +0.000 OA
ATOM     11  H   UNL     1       4.378   7.683  18.396  0.00  0.00    +0.000 HD
BRANCH   8  12
ATOM     12  C   UNL     1       4.346   5.628  17.698  0.00  0.00    +0.000 C 
BRANCH  12  15
ATOM     13  N   UNL     1       3.831   3.111  18.456  0.00  0.00    +0.000 N 
ATOM     14  C   UNL     1       2.531   2.988  17.843  0.00  0.00    +0.000 C 
ATOM     15  C   UNL     1       4.654   4.235  18.466  0.00  0.00    +0.000 C 
ATOM     16  O   UNL     1       5.773   4.101  18.985  0.00  0.00    +0.000 OA
BRANCH  13  18
ATOM     17  C   UNL     1       4.147   1.908  20.638  0.00  0.00    +0.000 C 
ATOM     18  C   UNL     1       4.319   1.886  19.124  0.00  0.00    +0.000 C 
ENDBRANCH  13  18
ENDBRANCH  12  15
BRANCH  12  19
ATOM     19  C   UNL     1       5.602   5.934  16.782  0.00  0.00    +0.000 C 
ATOM     20  C   UNL     1       5.323   6.125  15.287  0.00  0.00    +0.000 C 
ATOM     21  C   UNL     1       6.430   7.130  17.267  0.00  0.00    +0.000 C 
ENDBRANCH  12  19
ENDBRANCH   8  12
ENDBRANCH   1   9
BRANCH   6  22
ATOM     22  C   UNL     1       0.631  10.941  17.930  0.00  0.00    +0.000 C 
BRANCH  22  23
ATOM     23  N   UNL     1      -0.814  11.175  17.636  0.00  0.00    +0.000 N 
ATOM     24  C   UNL     1      -1.854  11.488  18.467  0.00  0.00    +0.000 C 
ATOM     25  O   UNL     1      -1.825  11.385  19.682  0.00  0.00    +0.000 OA
ATOM     26  H   UNL     1      -1.013  11.453  16.683  0.00  0.00    +0.000 HD
BRANCH  24  27
ATOM     27  O   UNL     1      -2.912  11.976  17.737  0.00  0.00    +0.000 OA
BRANCH  27  28
ATOM     28  C   UNL     1      -3.852  11.112  16.999  0.00  0.00    +0.000 C 
ATOM     29  C   UNL     1      -3.996   9.725  17.639  0.00  0.00    +0.000 C 
ATOM     30  C   UNL     1      -5.250  11.778  17.053  0.00  0.00    +0.000 C 
ATOM     31  C   UNL     1      -3.477  10.992  15.516  0.00  0.00    +0.000 C 
ENDBRANCH  27  28
ENDBRANCH  24  27
ENDBRANCH  22  23
BRANCH  22  32
ATOM     32  C   UNL     1       1.405  12.076  18.661  0.00  0.00    +0.000 C 
ATOM     33  C   UNL     1       2.797  12.316  18.024  0.00  0.00    +0.000 C 
ATOM     34  C   UNL     1       0.647  13.400  18.627  0.00  0.00    +0.000 C 
ENDBRANCH  22  32
ENDBRANCH   6  22
TORSDOF 10
ENDMDL
MODEL 5
REMARK VINA RESULT:      -6.3      1.924      4.206
REMARK  Name = 
REMARK  19 active torsions:
REMARK  status: ('A' for Active; 'I' for Inactive)
REMARK    1  A    between atoms: C_1  and  C_2
REMARK    2  A    between atoms: C_2  and  N_3
REMARK    3  A    between atoms: N_3  and  C_4
REMARK    4  A    between atoms: C_5  and  C_7
REMARK    5  A    between atoms: C_7  and  N_8
REMARK    6  A    between atoms: C_7  and  C_30
REMARK    7  A    between atoms: C_9  and  C_11
REMARK    8  A    between atoms: C_16  and  C_18
REMARK    9  A    between atoms: C_18  and  N_19
REMARK   10  A    between atoms: C_18  and  C_27
REMARK   11  A    between atoms: C_20  and  O_22
REMARK   12  A    between atoms: O_22  and  C_23
REMARK   13  A    between atoms: C_23  and  C_24
REMARK   14  A    between atoms: C_23  and  C_25
REMARK   15  A    between atoms: C_23  and  C_26
REMARK   16  A    between atoms: C_27  and  C_28
REMARK   17  A    between atoms: C_27  and  C_29
REMARK   18  A    between atoms: C_30  and  C_31
REMARK   19  A    between atoms: C_30  and  C_32
REMARK                            x       y       z     vdW  Elec       q    Type
REMARK                         _______ _______ _______ _____ _____    ______ ____
ROOT
ATOM      1  C   UNL     1       2.009   8.233  19.814  0.00  0.00    +0.000 C 
ATOM      2  C   UNL     1       1.491   7.486  21.045  0.00  0.00    +0.000 C 
ATOM      3  C   UNL     1       1.027   8.632  21.945  0.00  0.00    +0.000 C 
ATOM      4  C   UNL     1       0.479   9.679  20.969  0.00  0.00    +0.000 C 
ATOM      5  N   UNL     1       1.055   9.354  19.671  0.00  0.00    +0.000 N 
ATOM      6  C   UNL     1       1.153  10.184  18.575  0.00  0.00    +0.000 C 
ATOM      7  O   UNL     1       1.833   9.823  17.600  0.00  0.00    +0.000 OA
ENDROOT
BRANCH   1   9
ATOM      8  N   UNL     1       3.591   7.359  18.008  0.00  0.00    +0.000 N 
ATOM      9  C   UNL     1       2.309   7.375  18.535  0.00  0.00    +0.000 C 
ATOM     10  O   UNL     1       1.376   6.718  18.052  0.00  0.00    +0.000 OA
ATOM     11  H   UNL     1       4.211   8.136  18.178  0.00  0.00    +0.000 HD
BRANCH   8  12
ATOM     12  C   UNL     1       4.005   6.276  17.079  0.00  0.00    +0.000 C 
BRANCH  12  15
ATOM     13  N   UNL     1       4.758   4.217  18.619  0.00  0.00    +0.000 N 
ATOM     14  C   UNL     1       5.575   4.960  19.547  0.00  0.00    +0.000 C 
ATOM     15  C   UNL     1       4.082   4.715  17.506  0.00  0.00    +0.000 C 
ATOM     16  O   UNL     1       3.367   3.914  16.885  0.00  0.00    +0.000 OA
BRANCH  13  18
ATOM     17  C   UNL     1       3.754   2.481  20.130  0.00  0.00    +0.000 C 
ATOM     18  C   UNL     1       4.633   2.776  18.921  0.00  0.00    +0.000 C 
ENDBRANCH  13  18
ENDBRANCH  12  15
BRANCH  12  19
ATOM     19  C   UNL     1       5.351   6.608  16.313  0.00  0.00    +0.000 C 
ATOM     20  C   UNL     1       6.522   7.092  17.175  0.00  0.00    +0.000 C 
ATOM     21  C   UNL     1       5.852   5.455  15.435  0.00  0.00    +0.000 C 
ENDBRANCH  12  19
ENDBRANCH   8  12
ENDBRANCH   1   9
BRANCH   6  22
ATOM     22  C   UNL     1       0.580  11.637  18.495  0.00  0.00    +0.000 C 
BRANCH  22  23
ATOM     23  N   UNL     1       1.334  12.832  18.014  0.00  0.00    +0.000 N 
ATOM     24  C   UNL     1       1.438  14.092  18.537  0.00  0.00    +0.000 C 
ATOM     25  O   UNL     1       0.701  14.548  19.395  0.00  0.00    +0.000 OA
ATOM     26  H   UNL     1       2.118  12.623  17.409  0.00  0.00    +0.000 HD
BRANCH  24  27
ATOM     27  O   UNL     1       2.516  14.745  17.988  0.00  0.00    +0.000 OA
BRANCH  27  28
ATOM     28  C   UNL     1       3.659  15.229  18.785  0.00  0.00    +0.000 C 
ATOM     29  C   UNL     1       3.842  14.437  20.085  0.00  0.00    +0.000 C 
ATOM     30  C   UNL     1       4.944  15.016  17.946  0.00  0.00    +0.000 C 
ATOM     31  C   UNL     1       3.563  16.734  19.071  0.00  0.00    +0.000 C 
ENDBRANCH  27  28
ENDBRANCH  24  27
ENDBRANCH  22  23
BRANCH  22  32
ATOM     32  C   UNL     1      -0.939  11.569  18.165  0.00  0.00    +0.000 C 
ATOM     33  C   UNL     1      -1.358  10.151  17.700  0.00  0.00    +0.000 C 
ATOM     34  C   UNL     1      -1.804  11.935  19.368  0.00  0.00    +0.000 C 
ENDBRANCH  22  32
ENDBRANCH   6  22
TORSDOF 10
ENDMDL
MODEL 6
REMARK VINA RESULT:      -6.3      1.408      1.983
REMARK  Name = 
REMARK  19 active torsions:
REMARK  status: ('A' for Active; 'I' for Inactive)
REMARK    1  A    between atoms: C_1  and  C_2
REMARK    2  A    between atoms: C_2  and  N_3
REMARK    3  A    between atoms: N_3  and  C_4
REMARK    4  A    between atoms: C_5  and  C_7
REMARK    5  A    between atoms: C_7  and  N_8
REMARK    6  A    between atoms: C_7  and  C_30
REMARK    7  A    between atoms: C_9  and  C_11
REMARK    8  A    between atoms: C_16  and  C_18
REMARK    9  A    between atoms: C_18  and  N_19
REMARK   10  A    between atoms: C_18  and  C_27
REMARK   11  A    between atoms: C_20  and  O_22
REMARK   12  A    between atoms: O_22  and  C_23
REMARK   13  A    between atoms: C_23  and  C_24
REMARK   14  A    between atoms: C_23  and  C_25
REMARK   15  A    between atoms: C_23  and  C_26
REMARK   16  A    between atoms: C_27  and  C_28
REMARK   17  A    between atoms: C_27  and  C_29
REMARK   18  A    between atoms: C_30  and  C_31
REMARK   19  A    between atoms: C_30  and  C_32
REMARK                            x       y       z     vdW  Elec       q    Type
REMARK                         _______ _______ _______ _____ _____    ______ ____
ROOT
ATOM      1  C   UNL     1       2.115   8.065  19.693  0.00  0.00    +0.000 C 
ATOM      2  C   UNL     1       1.452   7.365  20.881  0.00  0.00    +0.000 C 
ATOM      3  C   UNL     1       1.047   8.545  21.764  0.00  0.00    +0.000 C 
ATOM      4  C   UNL     1       0.665   9.646  20.770  0.00  0.00    +0.000 C 
ATOM      5  N   UNL     1       1.285   9.274  19.506  0.00  0.00    +0.000 N 
ATOM      6  C   UNL     1       1.530  10.097  18.427  0.00  0.00    +0.000 C 
ATOM      7  O   UNL     1       2.231   9.677  17.491  0.00  0.00    +0.000 OA
ENDROOT
BRANCH   1   9
ATOM      8  N   UNL     1       3.717   6.861  18.107  0.00  0.00    +0.000 N 
ATOM      9  C   UNL     1       2.408   7.189  18.424  0.00  0.00    +0.000 C 
ATOM     10  O   UNL     1       1.439   6.801  17.757  0.00  0.00    +0.000 OA
ATOM     11  H   UNL     1       4.471   7.452  18.424  0.00  0.00    +0.000 HD
BRANCH   8  12
ATOM     12  C   UNL     1       4.004   5.731  17.186  0.00  0.00    +0.000 C 
BRANCH  12  15
ATOM     13  N   UNL     1       3.341   3.651  18.739  0.00  0.00    +0.000 N 
ATOM     14  C   UNL     1       3.575   4.282  20.015  0.00  0.00    +0.000 C 
ATOM     15  C   UNL     1       3.542   4.205  17.476  0.00  0.00    +0.000 C 
ATOM     16  O   UNL     1       3.200   3.515  16.505  0.00  0.00    +0.000 OA
BRANCH  13  18
ATOM     17  C   UNL     1       1.306   2.209  19.035  0.00  0.00    +0.000 C 
ATOM     18  C   UNL     1       2.813   2.273  18.818  0.00  0.00    +0.000 C 
ENDBRANCH  13  18
ENDBRANCH  12  15
BRANCH  12  19
ATOM     19  C   UNL     1       5.524   5.674  16.744  0.00  0.00    +0.000 C 
ATOM     20  C   UNL     1       6.415   4.681  17.499  0.00  0.00    +0.000 C 
ATOM     21  C   UNL     1       5.711   5.432  15.241  0.00  0.00    +0.000 C 
ENDBRANCH  12  19
ENDBRANCH   8  12
ENDBRANCH   1   9
BRANCH   6  22
ATOM     22  C   UNL     1       1.107  11.600  18.330  0.00  0.00    +0.000 C 
BRANCH  22  23
ATOM     23  N   UNL     1      -0.295  12.105  18.422  0.00  0.00    +0.000 N 
ATOM     24  C   UNL     1      -1.483  11.431  18.495  0.00  0.00    +0.000 C 
ATOM     25  O   UNL     1      -1.624  10.248  18.238  0.00  0.00    +0.000 OA
ATOM     26  H   UNL     1      -0.384  13.042  18.795  0.00  0.00    +0.000 HD
BRANCH  24  27
ATOM     27  O   UNL     1      -2.476  12.271  18.941  0.00  0.00    +0.000 OA
BRANCH  27  28
ATOM     28  C   UNL     1      -2.506  12.835  20.304  0.00  0.00    +0.000 C 
ATOM     29  C   UNL     1      -1.903  14.244  20.367  0.00  0.00    +0.000 C 
ATOM     30  C   UNL     1      -3.989  12.963  20.731  0.00  0.00    +0.000 C 
ATOM     31  C   UNL     1      -1.831  11.907  21.323  0.00  0.00    +0.000 C 
ENDBRANCH  27  28
ENDBRANCH  24  27
ENDBRANCH  22  23
BRANCH  22  32
ATOM     32  C   UNL     1       2.229  12.486  18.945  0.00  0.00    +0.000 C 
ATOM     33  C   UNL     1       2.611  13.656  18.004  0.00  0.00    +0.000 C 
ATOM     34  C   UNL     1       1.814  13.087  20.285  0.00  0.00    +0.000 C 
ENDBRANCH  22  32
ENDBRANCH   6  22
TORSDOF 10
ENDMDL
MODEL 7
REMARK VINA RESULT:      -6.3      1.865      3.595
REMARK  Name = 
REMARK  19 active torsions:
REMARK  status: ('A' for Active; 'I' for Inactive)
REMARK    1  A    between atoms: C_1  and  C_2
REMARK    2  A    between atoms: C_2  and  N_3
REMARK    3  A    between atoms: N_3  and  C_4
REMARK    4  A    between atoms: C_5  and  C_7
REMARK    5  A    between atoms: C_7  and  N_8
REMARK    6  A    between atoms: C_7  and  C_30
REMARK    7  A    between atoms: C_9  and  C_11
REMARK    8  A    between atoms: C_16  and  C_18
REMARK    9  A    between atoms: C_18  and  N_19
REMARK   10  A    between atoms: C_18  and  C_27
REMARK   11  A    between atoms: C_20  and  O_22
REMARK   12  A    between atoms: O_22  and  C_23
REMARK   13  A    between atoms: C_23  and  C_24
REMARK   14  A    between atoms: C_23  and  C_25
REMARK   15  A    between atoms: C_23  and  C_26
REMARK   16  A    between atoms: C_27  and  C_28
REMARK   17  A    between atoms: C_27  and  C_29
REMARK   18  A    between atoms: C_30  and  C_31
REMARK   19  A    between atoms: C_30  and  C_32
REMARK                            x       y       z     vdW  Elec       q    Type
REMARK                         _______ _______ _______ _____ _____    ______ ____
ROOT
ATOM      1  C   UNL     1       1.682   8.684  20.162  0.00  0.00    +0.000 C 
ATOM      2  C   UNL     1       1.655   8.377  21.660  0.00  0.00    +0.000 C 
ATOM      3  C   UNL     1       0.972   9.620  22.231  0.00  0.00    +0.000 C 
ATOM      4  C   UNL     1      -0.051  10.013  21.160  0.00  0.00    +0.000 C 
ATOM      5  N   UNL     1       0.390   9.365  19.932  0.00  0.00    +0.000 N 
ATOM      6  C   UNL     1       0.020   9.690  18.644  0.00  0.00    +0.000 C 
ATOM      7  O   UNL     1       0.620   9.165  17.691  0.00  0.00    +0.000 OA
ENDROOT
BRANCH   1   9
ATOM      8  N   UNL     1       3.058   7.676  18.259  0.00  0.00    +0.000 N 
ATOM      9  C   UNL     1       2.054   7.502  19.199  0.00  0.00    +0.000 C 
ATOM     10  O   UNL     1       1.440   6.435  19.335  0.00  0.00    +0.000 OA
ATOM     11  H   UNL     1       3.279   8.605  17.931  0.00  0.00    +0.000 HD
BRANCH   8  12
ATOM     12  C   UNL     1       3.706   6.498  17.628  0.00  0.00    +0.000 C 
BRANCH  12  15
ATOM     13  N   UNL     1       3.562   3.901  18.272  0.00  0.00    +0.000 N 
ATOM     14  C   UNL     1       2.466   3.549  17.403  0.00  0.00    +0.000 C 
ATOM     15  C   UNL     1       4.124   5.165  18.448  0.00  0.00    +0.000 C 
ATOM     16  O   UNL     1       5.117   5.234  19.187  0.00  0.00    +0.000 OA
BRANCH  13  18
ATOM     17  C   UNL     1       3.671   1.407  18.539  0.00  0.00    +0.000 C 
ATOM     18  C   UNL     1       4.139   2.772  19.030  0.00  0.00    +0.000 C 
ENDBRANCH  13  18
ENDBRANCH  12  15
BRANCH  12  19
ATOM     19  C   UNL     1       4.948   6.891  16.728  0.00  0.00    +0.000 C 
ATOM     20  C   UNL     1       6.239   7.253  17.472  0.00  0.00    +0.000 C 
ATOM     21  C   UNL     1       5.290   5.837  15.669  0.00  0.00    +0.000 C 
ENDBRANCH  12  19
ENDBRANCH   8  12
ENDBRANCH   1   9
BRANCH   6  22
ATOM     22  C   UNL     1      -1.025  10.788  18.259  0.00  0.00    +0.000 C 
BRANCH  22  23
ATOM     23  N   UNL     1      -0.768  12.259  18.271  0.00  0.00    +0.000 N 
ATOM     24  C   UNL     1       0.360  12.965  18.586  0.00  0.00    +0.000 C 
ATOM     25  O   UNL     1       1.323  12.505  19.175  0.00  0.00    +0.000 OA
ATOM     26  H   UNL     1      -1.383  12.801  17.677  0.00  0.00    +0.000 HD
BRANCH  24  27
ATOM     27  O   UNL     1       0.265  14.249  18.102  0.00  0.00    +0.000 OA
BRANCH  27  28
ATOM     28  C   UNL     1       0.226  15.440  18.971  0.00  0.00    +0.000 C 
ATOM     29  C   UNL     1      -0.437  16.641  18.287  0.00  0.00    +0.000 C 
ATOM     30  C   UNL     1      -0.640  15.094  20.208  0.00  0.00    +0.000 C 
ATOM     31  C   UNL     1       1.619  15.811  19.498  0.00  0.00    +0.000 C 
ENDBRANCH  27  28
ENDBRANCH  24  27
ENDBRANCH  22  23
BRANCH  22  32
ATOM     32  C   UNL     1      -1.961  10.234  17.147  0.00  0.00    +0.000 C 
ATOM     33  C   UNL     1      -3.198   9.520  17.747  0.00  0.00    +0.000 C 
ATOM     34  C   UNL     1      -2.467  11.337  16.222  0.00  0.00    +0.000 C 
ENDBRANCH  22  32
ENDBRANCH   6  22
TORSDOF 10
ENDMDL
MODEL 8
REMARK VINA RESULT:      -6.3      1.888      4.027
REMARK  Name = 
REMARK  19 active torsions:
REMARK  status: ('A' for Active; 'I' for Inactive)
REMARK    1  A    between atoms: C_1  and  C_2
REMARK    2  A    between atoms: C_2  and  N_3
REMARK    3  A    between atoms: N_3  and  C_4
REMARK    4  A    between atoms: C_5  and  C_7
REMARK    5  A    between atoms: C_7  and  N_8
REMARK    6  A    between atoms: C_7  and  C_30
REMARK    7  A    between atoms: C_9  and  C_11
REMARK    8  A    between atoms: C_16  and  C_18
REMARK    9  A    between atoms: C_18  and  N_19
REMARK   10  A    between atoms: C_18  and  C_27
REMARK   11  A    between atoms: C_20  and  O_22
REMARK   12  A    between atoms: O_22  and  C_23
REMARK   13  A    between atoms: C_23  and  C_24
REMARK   14  A    between atoms: C_23  and  C_25
REMARK   15  A    between atoms: C_23  and  C_26
REMARK   16  A    between atoms: C_27  and  C_28
REMARK   17  A    between atoms: C_27  and  C_29
REMARK   18  A    between atoms: C_30  and  C_31
REMARK   19  A    between atoms: C_30  and  C_32
REMARK                            x       y       z     vdW  Elec       q    Type
REMARK                         _______ _______ _______ _____ _____    ______ ____
ROOT
ATOM      1  C   UNL     1       1.984   8.236  19.793  0.00  0.00    +0.000 C 
ATOM      2  C   UNL     1       1.469   7.424  20.984  0.00  0.00    +0.000 C 
ATOM      3  C   UNL     1       0.957   8.518  21.921  0.00  0.00    +0.000 C 
ATOM      4  C   UNL     1       0.394   9.588  20.979  0.00  0.00    +0.000 C 
ATOM      5  N   UNL     1       1.000   9.333  19.680  0.00  0.00    +0.000 N 
ATOM      6  C   UNL     1       1.091  10.211  18.620  0.00  0.00    +0.000 C 
ATOM      7  O   UNL     1       1.797   9.910  17.643  0.00  0.00    +0.000 OA
ENDROOT
BRANCH   1   9
ATOM      8  N   UNL     1       3.566   6.824  18.366  0.00  0.00    +0.000 N 
ATOM      9  C   UNL     1       2.330   7.440  18.485  0.00  0.00    +0.000 C 
ATOM     10  O   UNL     1       1.460   7.376  17.605  0.00  0.00    +0.000 OA
ATOM     11  H   UNL     1       4.351   7.173  18.896  0.00  0.00    +0.000 HD
BRANCH   8  12
ATOM     12  C   UNL     1       3.775   5.752  17.359  0.00  0.00    +0.000 C 
BRANCH  12  15
ATOM     13  N   UNL     1       3.636   3.316  18.466  0.00  0.00    +0.000 N 
ATOM     14  C   UNL     1       4.722   3.469  19.404  0.00  0.00    +0.000 C 
ATOM     15  C   UNL     1       3.198   4.248  17.527  0.00  0.00    +0.000 C 
ATOM     16  O   UNL     1       2.191   3.943  16.870  0.00  0.00    +0.000 OA
BRANCH  13  18
ATOM     17  C   UNL     1       1.844   1.995  19.626  0.00  0.00    +0.000 C 
ATOM     18  C   UNL     1       2.923   2.025  18.551  0.00  0.00    +0.000 C 
ENDBRANCH  13  18
ENDBRANCH  12  15
BRANCH  12  19
ATOM     19  C   UNL     1       5.290   5.616  16.916  0.00  0.00    +0.000 C 
ATOM     20  C   UNL     1       5.538   5.100  15.495  0.00  0.00    +0.000 C 
ATOM     21  C   UNL     1       6.096   6.907  17.101  0.00  0.00    +0.000 C 
ENDBRANCH  12  19
ENDBRANCH   8  12
ENDBRANCH   1   9
BRANCH   6  22
ATOM     22  C   UNL     1       0.476  11.649  18.590  0.00  0.00    +0.000 C 
BRANCH  22  23
ATOM     23  N   UNL     1       1.224  12.895  18.247  0.00  0.00    +0.000 N 
ATOM     24  C   UNL     1       2.260  13.519  18.886  0.00  0.00    +0.000 C 
ATOM     25  O   UNL     1       2.606  13.287  20.032  0.00  0.00    +0.000 OA
ATOM     26  H   UNL     1       1.192  13.153  17.268  0.00  0.00    +0.000 HD
BRANCH  24  27
ATOM     27  O   UNL     1       2.875  14.406  18.035  0.00  0.00    +0.000 OA
BRANCH  27  28
ATOM     28  C   UNL     1       2.966  15.854  18.305  0.00  0.00    +0.000 C 
ATOM     29  C   UNL     1       3.108  16.679  17.020  0.00  0.00    +0.000 C 
ATOM     30  C   UNL     1       1.642  16.294  18.976  0.00  0.00    +0.000 C 
ATOM     31  C   UNL     1       4.093  16.184  19.293  0.00  0.00    +0.000 C 
ENDBRANCH  27  28
ENDBRANCH  24  27
ENDBRANCH  22  23
BRANCH  22  32
ATOM     32  C   UNL     1      -1.010  11.559  18.139  0.00  0.00    +0.000 C 
ATOM     33  C   UNL     1      -1.384  10.123  17.691  0.00  0.00    +0.000 C 
ATOM     34  C   UNL     1      -1.972  11.962  19.252  0.00  0.00    +0.000 C 
ENDBRANCH  22  32
ENDBRANCH   6  22
TORSDOF 10
ENDMDL
MODEL 9
REMARK VINA RESULT:      -6.2      1.436      1.906
REMARK  Name = 
REMARK  19 active torsions:
REMARK  status: ('A' for Active; 'I' for Inactive)
REMARK    1  A    between atoms: C_1  and  C_2
REMARK    2  A    between atoms: C_2  and  N_3
REMARK    3  A    between atoms: N_3  and  C_4
REMARK    4  A    between atoms: C_5  and  C_7
REMARK    5  A    between atoms: C_7  and  N_8
REMARK    6  A    between atoms: C_7  and  C_30
REMARK    7  A    between atoms: C_9  and  C_11
REMARK    8  A    between atoms: C_16  and  C_18
REMARK    9  A    between atoms: C_18  and  N_19
REMARK   10  A    between atoms: C_18  and  C_27
REMARK   11  A    between atoms: C_20  and  O_22
REMARK   12  A    between atoms: O_22  and  C_23
REMARK   13  A    between atoms: C_23  and  C_24
REMARK   14  A    between atoms: C_23  and  C_25
REMARK   15  A    between atoms: C_23  and  C_26
REMARK   16  A    between atoms: C_27  and  C_28
REMARK   17  A    between atoms: C_27  and  C_29
REMARK   18  A    between atoms: C_30  and  C_31
REMARK   19  A    between atoms: C_30  and  C_32
REMARK                            x       y       z     vdW  Elec       q    Type
REMARK                         _______ _______ _______ _____ _____    ______ ____
ROOT
ATOM      1  C   UNL     1       2.175   8.009  19.667  0.00  0.00    +0.000 C 
ATOM      2  C   UNL     1       1.537   7.282  20.853  0.00  0.00    +0.000 C 
ATOM      3  C   UNL     1       1.108   8.444  21.749  0.00  0.00    +0.000 C 
ATOM      4  C   UNL     1       0.692   9.543  20.767  0.00  0.00    +0.000 C 
ATOM      5  N   UNL     1       1.314   9.199  19.496  0.00  0.00    +0.000 N 
ATOM      6  C   UNL     1       1.532  10.038  18.424  0.00  0.00    +0.000 C 
ATOM      7  O   UNL     1       2.237   9.644  17.480  0.00  0.00    +0.000 OA
ENDROOT
BRANCH   1   9
ATOM      8  N   UNL     1       3.761   7.158  17.853  0.00  0.00    +0.000 N 
ATOM      9  C   UNL     1       2.482   7.152  18.389  0.00  0.00    +0.000 C 
ATOM     10  O   UNL     1       1.558   6.477  17.914  0.00  0.00    +0.000 OA
ATOM     11  H   UNL     1       4.367   7.948  18.016  0.00  0.00    +0.000 HD
BRANCH   8  12
ATOM     12  C   UNL     1       4.189   6.081  16.924  0.00  0.00    +0.000 C 
BRANCH  12  15
ATOM     13  N   UNL     1       4.306   3.887  18.458  0.00  0.00    +0.000 N 
ATOM     14  C   UNL     1       4.903   4.498  19.620  0.00  0.00    +0.000 C 
ATOM     15  C   UNL     1       4.005   4.503  17.244  0.00  0.00    +0.000 C 
ATOM     16  O   UNL     1       3.417   3.811  16.400  0.00  0.00    +0.000 OA
BRANCH  13  18
ATOM     17  C   UNL     1       2.683   2.209  19.382  0.00  0.00    +0.000 C 
ATOM     18  C   UNL     1       3.975   2.455  18.612  0.00  0.00    +0.000 C 
ENDBRANCH  13  18
ENDBRANCH  12  15
BRANCH  12  19
ATOM     19  C   UNL     1       5.673   6.274  16.405  0.00  0.00    +0.000 C 
ATOM     20  C   UNL     1       6.705   6.718  17.448  0.00  0.00    +0.000 C 
ATOM     21  C   UNL     1       6.228   5.042  15.681  0.00  0.00    +0.000 C 
ENDBRANCH  12  19
ENDBRANCH   8  12
ENDBRANCH   1   9
BRANCH   6  22
ATOM     22  C   UNL     1       1.071  11.530  18.343  0.00  0.00    +0.000 C 
BRANCH  22  23
ATOM     23  N   UNL     1      -0.348  11.994  18.381  0.00  0.00    +0.000 N 
ATOM     24  C   UNL     1      -1.512  11.293  18.540  0.00  0.00    +0.000 C 
ATOM     25  O   UNL     1      -1.612  10.083  18.429  0.00  0.00    +0.000 OA
ATOM     26  H   UNL     1      -0.470  12.965  18.639  0.00  0.00    +0.000 HD
BRANCH  24  27
ATOM     27  O   UNL     1      -2.534  12.145  18.887  0.00  0.00    +0.000 OA
BRANCH  27  28
ATOM     28  C   UNL     1      -2.649  12.769  20.219  0.00  0.00    +0.000 C 
ATOM     29  C   UNL     1      -4.102  12.844  20.705  0.00  0.00    +0.000 C 
ATOM     30  C   UNL     1      -1.883  11.877  21.227  0.00  0.00    +0.000 C 
ATOM     31  C   UNL     1      -1.987  14.153  20.263  0.00  0.00    +0.000 C 
ENDBRANCH  27  28
ENDBRANCH  24  27
ENDBRANCH  22  23
BRANCH  22  32
ATOM     32  C   UNL     1       2.136  12.430  19.033  0.00  0.00    +0.000 C 
ATOM     33  C   UNL     1       2.600  13.578  18.101  0.00  0.00    +0.000 C 
ATOM     34  C   UNL     1       1.607  13.062  20.317  0.00  0.00    +0.000 C 
ENDBRANCH  22  32
ENDBRANCH   6  22
TORSDOF 10
ENDMDL
