MODEL 1
REMARK VINA RESULT:      -6.5      0.000      0.000
REMARK  Name = 
REMARK  1 active torsions:
REMARK  status: ('A' for Active; 'I' for Inactive)
REMARK    1  A    between atoms: C_4  and  C_5
REMARK                            x       y       z     vdW  Elec       q    Type
REMARK                         _______ _______ _______ _____ _____    ______ ____
ROOT
ATOM      1  C   UNL     1       3.246   3.792  18.118  0.00  0.00    +0.000 A 
ATOM      2  N   UNL     1       2.888   2.522  17.792  0.00  0.00    +0.000 NA
ATOM      3  C   UNL     1       1.856   1.947  18.455  0.00  0.00    +0.000 A 
ATOM      4  C   UNL     1       1.112   2.549  19.462  0.00  0.00    +0.000 A 
ATOM      5  C   UNL     1       1.500   3.850  19.768  0.00  0.00    +0.000 A 
ATOM      6  N   UNL     1       1.037   4.772  20.673  0.00  0.00    +0.000 N 
ATOM      7  C   UNL     1       1.792   5.905  20.547  0.00  0.00    +0.000 A 
ATOM      8  N   UNL     1       2.719   5.774  19.626  0.00  0.00    +0.000 NA
ATOM      9  C   UNL     1       2.552   4.493  19.120  0.00  0.00    +0.000 A 
ATOM     10  H   UNL     1       0.272   4.641  21.318  0.00  0.00    +0.000 HD
ENDROOT
BRANCH   1  14
ATOM     11 BR   UNL     1       7.048   4.933  14.399  0.00  0.00    +0.000 Br
ATOM     12  C   UNL     1       6.010   4.947  15.960  0.00  0.00    +0.000 A 
ATOM     13  C   UNL     1       4.894   4.106  16.154  0.00  0.00    +0.000 A 
ATOM     14  C   UNL     1       4.371   4.377  17.412  0.00  0.00    +0.000 A 
ATOM     15  N   UNL     1       5.159   5.374  17.956  0.00  0.00    +0.000 N 
ATOM     16  C   UNL     1       6.156   5.713  17.087  0.00  0.00    +0.000 A 
ATOM     17 BR   UNL     1       7.459   6.998  17.434  0.00  0.00    +0.000 Br
ATOM     18  H   UNL     1       5.011   5.777  18.875  0.00  0.00    +0.000 HD
ENDBRANCH   1  14
TORSDOF 1
ENDMDL
MODEL 2
REMARK VINA RESULT:      -6.4      3.639      5.188
REMARK  Name = 
REMARK  1 active torsions:
REMARK  status: ('A' for Active; 'I' for Inactive)
REMARK    1  A    between atoms: C_4  and  C_5
REMARK                            x       y       z     vdW  Elec       q    Type
REMARK                         _______ _______ _______ _____ _____    ______ ____
ROOT
ATOM      1  C   UNL     1       3.066   5.899  19.406  0.00  0.00    +0.000 A 
ATOM      2  N   UNL     1       4.000   5.948  18.421  0.00  0.00    +0.000 NA
ATOM      3  C   UNL     1       4.730   4.838  18.161  0.00  0.00    +0.000 A 
ATOM      4  C   UNL     1       4.610   3.623  18.825  0.00  0.00    +0.000 A 
ATOM      5  C   UNL     1       3.640   3.603  19.822  0.00  0.00    +0.000 A 
ATOM      6  N   UNL     1       3.215   2.628  20.688  0.00  0.00    +0.000 N 
ATOM      7  C   UNL     1       2.221   3.156  21.467  0.00  0.00    +0.000 A 
ATOM      8  N   UNL     1       1.983   4.412  21.166  0.00  0.00    +0.000 NA
ATOM      9  C   UNL     1       2.859   4.713  20.134  0.00  0.00    +0.000 A 
ATOM     10  H   UNL     1       3.568   1.684  20.743  0.00  0.00    +0.000 HD
ENDROOT
BRANCH   1  14
ATOM     11 BR   UNL     1       0.613  10.733  18.960  0.00  0.00    +0.000 Br
ATOM     12  C   UNL     1       1.261   9.112  19.641  0.00  0.00    +0.000 A 
ATOM     13  C   UNL     1       1.990   8.184  18.866  0.00  0.00    +0.000 A 
ATOM     14  C   UNL     1       2.313   7.109  19.683  0.00  0.00    +0.000 A 
ATOM     15  N   UNL     1       1.776   7.388  20.926  0.00  0.00    +0.000 N 
ATOM     16  C   UNL     1       1.149   8.600  20.907  0.00  0.00    +0.000 A 
ATOM     17 BR   UNL     1       0.311   9.372  22.380  0.00  0.00    +0.000 Br
ATOM     18  H   UNL     1       1.854   6.773  21.729  0.00  0.00    +0.000 HD
ENDBRANCH   1  14
TORSDOF 1
ENDMDL
MODEL 3
REMARK VINA RESULT:      -6.4      3.086      5.448
REMARK  Name = 
REMARK  1 active torsions:
REMARK  status: ('A' for Active; 'I' for Inactive)
REMARK    1  A    between atoms: C_4  and  C_5
REMARK                            x       y       z     vdW  Elec       q    Type
REMARK                         _______ _______ _______ _____ _____    ______ ____
ROOT
ATOM      1  C   UNL     1       5.012   4.462  16.520  0.00  0.00    +0.000 A 
ATOM      2  N   UNL     1       5.067   3.740  15.369  0.00  0.00    +0.000 NA
ATOM      3  C   UNL     1       6.069   3.987  14.494  0.00  0.00    +0.000 A 
ATOM      4  C   UNL     1       7.072   4.934  14.666  0.00  0.00    +0.000 A 
ATOM      5  C   UNL     1       6.992   5.651  15.856  0.00  0.00    +0.000 A 
ATOM      6  N   UNL     1       7.764   6.647  16.397  0.00  0.00    +0.000 N 
ATOM      7  C   UNL     1       7.224   6.993  17.605  0.00  0.00    +0.000 A 
ATOM      8  N   UNL     1       6.147   6.292  17.876  0.00  0.00    +0.000 NA
ATOM      9  C   UNL     1       5.984   5.440  16.794  0.00  0.00    +0.000 A 
ATOM     10  H   UNL     1       8.589   7.053  15.981  0.00  0.00    +0.000 HD
ENDROOT
BRANCH   1  14
ATOM     11 BR   UNL     1       0.679   2.265  18.966  0.00  0.00    +0.000 Br
ATOM     12  C   UNL     1       2.112   3.396  18.541  0.00  0.00    +0.000 A 
ATOM     13  C   UNL     1       2.980   3.167  17.452  0.00  0.00    +0.000 A 
ATOM     14  C   UNL     1       3.913   4.196  17.431  0.00  0.00    +0.000 A 
ATOM     15  N   UNL     1       3.611   5.020  18.498  0.00  0.00    +0.000 N 
ATOM     16  C   UNL     1       2.518   4.547  19.164  0.00  0.00    +0.000 A 
ATOM     17 BR   UNL     1       1.756   5.370  20.652  0.00  0.00    +0.000 Br
ATOM     18  H   UNL     1       4.131   5.859  18.733  0.00  0.00    +0.000 HD
ENDBRANCH   1  14
TORSDOF 1
ENDMDL
MODEL 4
REMARK VINA RESULT:      -6.4      3.324      4.604
REMARK  Name = 
REMARK  1 active torsions:
REMARK  status: ('A' for Active; 'I' for Inactive)
REMARK    1  A    between atoms: C_4  and  C_5
REMARK                            x       y       z     vdW  Elec       q    Type
REMARK                         _______ _______ _______ _____ _____    ______ ____
ROOT
ATOM      1  C   UNL     1       3.109   4.859  19.304  0.00  0.00    +0.000 A 
ATOM      2  N   UNL     1       4.455   4.707  19.414  0.00  0.00    +0.000 NA
ATOM      3  C   UNL     1       4.976   3.460  19.342  0.00  0.00    +0.000 A 
ATOM      4  C   UNL     1       4.244   2.292  19.162  0.00  0.00    +0.000 A 
ATOM      5  C   UNL     1       2.871   2.482  19.047  0.00  0.00    +0.000 A 
ATOM      6  N   UNL     1       1.823   1.616  18.863  0.00  0.00    +0.000 N 
ATOM      7  C   UNL     1       0.669   2.350  18.819  0.00  0.00    +0.000 A 
ATOM      8  N   UNL     1       0.902   3.634  18.971  0.00  0.00    +0.000 NA
ATOM      9  C   UNL     1       2.278   3.741  19.112  0.00  0.00    +0.000 A 
ATOM     10  H   UNL     1       1.888   0.613  18.773  0.00  0.00    +0.000 HD
ENDROOT
BRANCH   1  14
ATOM     11 BR   UNL     1       1.527   9.946  18.203  0.00  0.00    +0.000 Br
ATOM     12  C   UNL     1       1.878   8.334  19.093  0.00  0.00    +0.000 A 
ATOM     13  C   UNL     1       2.448   7.209  18.459  0.00  0.00    +0.000 A 
ATOM     14  C   UNL     1       2.571   6.204  19.409  0.00  0.00    +0.000 A 
ATOM     15  N   UNL     1       2.073   6.719  20.591  0.00  0.00    +0.000 N 
ATOM     16  C   UNL     1       1.663   8.009  20.407  0.00  0.00    +0.000 A 
ATOM     17 BR   UNL     1       0.950   9.086  21.748  0.00  0.00    +0.000 Br
ATOM     18  H   UNL     1       2.033   6.204  21.464  0.00  0.00    +0.000 HD
ENDBRANCH   1  14
TORSDOF 1
ENDMDL
MODEL 5
REMARK VINA RESULT:      -6.4      3.222      4.837
REMARK  Name = 
REMARK  1 active torsions:
REMARK  status: ('A' for Active; 'I' for Inactive)
REMARK    1  A    between atoms: C_4  and  C_5
REMARK                            x       y       z     vdW  Elec       q    Type
REMARK                         _______ _______ _______ _____ _____    ______ ____
ROOT
ATOM      1  C   UNL     1       3.109   5.577  18.096  0.00  0.00    +0.000 A 
ATOM      2  N   UNL     1       4.310   5.683  17.468  0.00  0.00    +0.000 NA
ATOM      3  C   UNL     1       4.886   4.563  16.973  0.00  0.00    +0.000 A 
ATOM      4  C   UNL     1       4.350   3.282  17.048  0.00  0.00    +0.000 A 
ATOM      5  C   UNL     1       3.119   3.209  17.691  0.00  0.00    +0.000 A 
ATOM      6  N   UNL     1       2.274   2.164  17.968  0.00  0.00    +0.000 N 
ATOM      7  C   UNL     1       1.184   2.662  18.628  0.00  0.00    +0.000 A 
ATOM      8  N   UNL     1       1.274   3.961  18.803  0.00  0.00    +0.000 NA
ATOM      9  C   UNL     1       2.478   4.326  18.220  0.00  0.00    +0.000 A 
ATOM     10  H   UNL     1       2.425   1.195  17.726  0.00  0.00    +0.000 HD
ENDROOT
BRANCH   1  14
ATOM     11 BR   UNL     1       1.078  10.591  18.665  0.00  0.00    +0.000 Br
ATOM     12  C   UNL     1       1.668   8.848  19.022  0.00  0.00    +0.000 A 
ATOM     13  C   UNL     1       2.181   7.987  18.028  0.00  0.00    +0.000 A 
ATOM     14  C   UNL     1       2.524   6.789  18.642  0.00  0.00    +0.000 A 
ATOM     15  N   UNL     1       2.209   6.930  19.980  0.00  0.00    +0.000 N 
ATOM     16  C   UNL     1       1.703   8.176  20.216  0.00  0.00    +0.000 A 
ATOM     17 BR   UNL     1       1.173   8.795  21.890  0.00  0.00    +0.000 Br
ATOM     18  H   UNL     1       2.351   6.206  20.676  0.00  0.00    +0.000 HD
ENDBRANCH   1  14
TORSDOF 1
ENDMDL
MODEL 6
REMARK VINA RESULT:      -6.4      3.335      4.963
REMARK  Name = 
REMARK  1 active torsions:
REMARK  status: ('A' for Active; 'I' for Inactive)
REMARK    1  A    between atoms: C_4  and  C_5
REMARK                            x       y       z     vdW  Elec       q    Type
REMARK                         _______ _______ _______ _____ _____    ______ ____
ROOT
ATOM      1  C   UNL     1       2.851   5.135  19.682  0.00  0.00    +0.000 A 
ATOM      2  N   UNL     1       2.012   4.107  19.975  0.00  0.00    +0.000 NA
ATOM      3  C   UNL     1       2.478   2.840  19.884  0.00  0.00    +0.000 A 
ATOM      4  C   UNL     1       3.768   2.483  19.507  0.00  0.00    +0.000 A 
ATOM      5  C   UNL     1       4.604   3.558  19.220  0.00  0.00    +0.000 A 
ATOM      6  N   UNL     1       5.915   3.638  18.824  0.00  0.00    +0.000 N 
ATOM      7  C   UNL     1       6.236   4.960  18.684  0.00  0.00    +0.000 A 
ATOM      8  N   UNL     1       5.214   5.740  18.955  0.00  0.00    +0.000 NA
ATOM      9  C   UNL     1       4.180   4.882  19.298  0.00  0.00    +0.000 A 
ATOM     10  H   UNL     1       6.538   2.859  18.666  0.00  0.00    +0.000 HD
ENDROOT
BRANCH   1  14
ATOM     11 BR   UNL     1       1.259  10.196  18.481  0.00  0.00    +0.000 Br
ATOM     12  C   UNL     1       1.626   8.607  19.406  0.00  0.00    +0.000 A 
ATOM     13  C   UNL     1       2.178   7.464  18.789  0.00  0.00    +0.000 A 
ATOM     14  C   UNL     1       2.320   6.484  19.763  0.00  0.00    +0.000 A 
ATOM     15  N   UNL     1       1.850   7.032  20.941  0.00  0.00    +0.000 N 
ATOM     16  C   UNL     1       1.441   8.318  20.732  0.00  0.00    +0.000 A 
ATOM     17 BR   UNL     1       0.760   9.433  22.060  0.00  0.00    +0.000 Br
ATOM     18  H   UNL     1       1.829   6.540  21.828  0.00  0.00    +0.000 HD
ENDBRANCH   1  14
TORSDOF 1
ENDMDL
MODEL 7
REMARK VINA RESULT:      -6.3      3.462      4.935
REMARK  Name = 
REMARK  1 active torsions:
REMARK  status: ('A' for Active; 'I' for Inactive)
REMARK    1  A    between atoms: C_4  and  C_5
REMARK                            x       y       z     vdW  Elec       q    Type
REMARK                         _______ _______ _______ _____ _____    ______ ____
ROOT
ATOM      1  C   UNL     1       2.897   5.410  18.551  0.00  0.00    +0.000 A 
ATOM      2  N   UNL     1       2.021   4.531  17.997  0.00  0.00    +0.000 NA
ATOM      3  C   UNL     1       2.487   3.340  17.555  0.00  0.00    +0.000 A 
ATOM      4  C   UNL     1       3.812   2.922  17.616  0.00  0.00    +0.000 A 
ATOM      5  C   UNL     1       4.681   3.842  18.194  0.00  0.00    +0.000 A 
ATOM      6  N   UNL     1       6.031   3.820  18.440  0.00  0.00    +0.000 N 
ATOM      7  C   UNL     1       6.372   5.002  19.037  0.00  0.00    +0.000 A 
ATOM      8  N   UNL     1       5.332   5.791  19.186  0.00  0.00    +0.000 NA
ATOM      9  C   UNL     1       4.259   5.082  18.667  0.00  0.00    +0.000 A 
ATOM     10  H   UNL     1       6.664   3.064  18.222  0.00  0.00    +0.000 HD
ENDROOT
BRANCH   1  14
ATOM     11 BR   UNL     1       1.188  10.572  18.717  0.00  0.00    +0.000 Br
ATOM     12  C   UNL     1       1.649   8.823  19.208  0.00  0.00    +0.000 A 
ATOM     13  C   UNL     1       2.135   7.865  18.292  0.00  0.00    +0.000 A 
ATOM     14  C   UNL     1       2.377   6.692  18.994  0.00  0.00    +0.000 A 
ATOM     15  N   UNL     1       2.031   6.943  20.308  0.00  0.00    +0.000 N 
ATOM     16  C   UNL     1       1.602   8.232  20.444  0.00  0.00    +0.000 A 
ATOM     17 BR   UNL     1       1.063   8.996  22.055  0.00  0.00    +0.000 Br
ATOM     18  H   UNL     1       2.102   6.260  21.056  0.00  0.00    +0.000 HD
ENDBRANCH   1  14
TORSDOF 1
ENDMDL
MODEL 8
REMARK VINA RESULT:      -6.3      3.208      5.469
REMARK  Name = 
REMARK  1 active torsions:
REMARK  status: ('A' for Active; 'I' for Inactive)
REMARK    1  A    between atoms: C_4  and  C_5
REMARK                            x       y       z     vdW  Elec       q    Type
REMARK                         _______ _______ _______ _____ _____    ______ ____
ROOT
ATOM      1  C   UNL     1       5.096   4.574  17.388  0.00  0.00    +0.000 A 
ATOM      2  N   UNL     1       4.985   3.609  16.436  0.00  0.00    +0.000 NA
ATOM      3  C   UNL     1       5.842   3.627  15.389  0.00  0.00    +0.000 A 
ATOM      4  C   UNL     1       6.849   4.564  15.190  0.00  0.00    +0.000 A 
ATOM      5  C   UNL     1       6.940   5.534  16.184  0.00  0.00    +0.000 A 
ATOM      6  N   UNL     1       7.775   6.607  16.364  0.00  0.00    +0.000 N 
ATOM      7  C   UNL     1       7.419   7.232  17.527  0.00  0.00    +0.000 A 
ATOM      8  N   UNL     1       6.402   6.636  18.108  0.00  0.00    +0.000 NA
ATOM      9  C   UNL     1       6.088   5.565  17.285  0.00  0.00    +0.000 A 
ATOM     10  H   UNL     1       8.524   6.889  15.748  0.00  0.00    +0.000 HD
ENDROOT
BRANCH   1  14
ATOM     11 BR   UNL     1       1.914   2.962  21.494  0.00  0.00    +0.000 Br
ATOM     12  C   UNL     1       2.773   4.014  20.203  0.00  0.00    +0.000 A 
ATOM     13  C   UNL     1       3.727   3.501  19.298  0.00  0.00    +0.000 A 
ATOM     14  C   UNL     1       4.149   4.548  18.488  0.00  0.00    +0.000 A 
ATOM     15  N   UNL     1       3.463   5.670  18.911  0.00  0.00    +0.000 N 
ATOM     16  C   UNL     1       2.623   5.350  19.938  0.00  0.00    +0.000 A 
ATOM     17 BR   UNL     1       1.493   6.562  20.788  0.00  0.00    +0.000 Br
ATOM     18  H   UNL     1       3.571   6.591  18.499  0.00  0.00    +0.000 HD
ENDBRANCH   1  14
TORSDOF 1
ENDMDL
MODEL 9
REMARK VINA RESULT:      -6.3      3.372      5.111
REMARK  Name = 
REMARK  1 active torsions:
REMARK  status: ('A' for Active; 'I' for Inactive)
REMARK    1  A    between atoms: C_4  and  C_5
REMARK                            x       y       z     vdW  Elec       q    Type
REMARK                         _______ _______ _______ _____ _____    ______ ____
ROOT
ATOM      1  C   UNL     1       3.757   6.056  17.562  0.00  0.00    +0.000 A 
ATOM      2  N   UNL     1       4.672   6.470  16.647  0.00  0.00    +0.000 NA
ATOM      3  C   UNL     1       5.464   5.546  16.055  0.00  0.00    +0.000 A 
ATOM      4  C   UNL     1       5.427   4.179  16.302  0.00  0.00    +0.000 A 
ATOM      5  C   UNL     1       4.476   3.786  17.238  0.00  0.00    +0.000 A 
ATOM      6  N   UNL     1       4.123   2.564  17.751  0.00  0.00    +0.000 N 
ATOM      7  C   UNL     1       3.112   2.757  18.652  0.00  0.00    +0.000 A 
ATOM      8  N   UNL     1       2.793   4.027  18.760  0.00  0.00    +0.000 NA
ATOM      9  C   UNL     1       3.634   4.691  17.879  0.00  0.00    +0.000 A 
ATOM     10  H   UNL     1       4.535   1.674  17.508  0.00  0.00    +0.000 HD
ENDROOT
BRANCH   1  14
ATOM     11 BR   UNL     1       0.869  10.551  18.582  0.00  0.00    +0.000 Br
ATOM     12  C   UNL     1       1.719   8.891  18.764  0.00  0.00    +0.000 A 
ATOM     13  C   UNL     1       2.441   8.273  17.721  0.00  0.00    +0.000 A 
ATOM     14  C   UNL     1       2.936   7.069  18.203  0.00  0.00    +0.000 A 
ATOM     15  N   UNL     1       2.507   6.965  19.512  0.00  0.00    +0.000 N 
ATOM     16  C   UNL     1       1.781   8.068  19.858  0.00  0.00    +0.000 A 
ATOM     17 BR   UNL     1       1.035   8.348  21.542  0.00  0.00    +0.000 Br
ATOM     18  H   UNL     1       2.719   6.180  20.119  0.00  0.00    +0.000 HD
ENDBRANCH   1  14
TORSDOF 1
ENDMDL
