MODEL 1
REMARK VINA RESULT:      -6.8      0.000      0.000
REMARK  Name = 
REMARK  14 active torsions:
REMARK  status: ('A' for Active; 'I' for Inactive)
REMARK    1  A    between atoms: C_1  and  O_2
REMARK    2  A    between atoms: O_2  and  C_3
REMARK    3  A    between atoms: C_6  and  C_7
REMARK    4  A    between atoms: C_7  and  S_14
REMARK    5  A    between atoms: N_8  and  O_9
REMARK    6  A    between atoms: O_9  and  S_10
REMARK    7  A    between atoms: S_14  and  C_15
REMARK    8  A    between atoms: C_17  and  C_18
REMARK    9  A    between atoms: C_18  and  O_19
REMARK   10  A    between atoms: C_20  and  O_21
REMARK   11  A    between atoms: C_22  and  O_23
REMARK   12  A    between atoms: C_24  and  O_25
REMARK   13  A    between atoms: C_27  and  O_28
REMARK   14  A    between atoms: O_28  and  C_29
REMARK                            x       y       z     vdW  Elec       q    Type
REMARK                         _______ _______ _______ _____ _____    ______ ____
ROOT
ATOM      1  C   UNL     1       1.747   7.903  20.060  0.00  0.00    +0.000 C 
ATOM      2  N   UNL     1       1.388   8.074  21.295  0.00  0.00    +0.000 NA
ENDROOT
BRANCH   1   6
ATOM      3  C   UNL     1       1.980   3.871  18.581  0.00  0.00    +0.000 A 
ATOM      4  C   UNL     1       2.402   4.953  17.799  0.00  0.00    +0.000 A 
ATOM      5  C   UNL     1       2.350   6.253  18.306  0.00  0.00    +0.000 A 
ATOM      6  C   UNL     1       1.887   6.488  19.607  0.00  0.00    +0.000 A 
ATOM      7  C   UNL     1       1.535   5.400  20.412  0.00  0.00    +0.000 A 
ATOM      8  C   UNL     1       1.484   4.111  19.872  0.00  0.00    +0.000 A 
BRANCH   3  10
ATOM      9  C   UNL     1       3.335   2.012  18.102  0.00  0.00    +0.000 C 
ATOM     10  O   UNL     1       2.024   2.577  18.134  0.00  0.00    +0.000 OA
ENDBRANCH   3  10
BRANCH   8  11
ATOM     11  O   UNL     1       0.955   3.158  20.710  0.00  0.00    +0.000 OA
ATOM     12  C   UNL     1       1.792   2.828  21.814  0.00  0.00    +0.000 C 
ENDBRANCH   8  11
ENDBRANCH   1   6
BRANCH   2  13
ATOM     13  O   UNL     1       1.335   9.439  21.674  0.00  0.00    +0.000 OA
BRANCH  13  14
ATOM     14  S   UNL     1       0.098   9.801  22.723  0.00  0.00    +0.000 S 
ATOM     15  O   UNL     1       0.651   9.562  24.056  0.00  0.00    +0.000 OA
ATOM     16  O   UNL     1      -0.218  11.206  22.441  0.00  0.00    +0.000 OA
ATOM     17  O   UNL     1      -0.962   8.867  22.334  0.00  0.00    +0.000 OA
ENDBRANCH  13  14
ENDBRANCH   2  13
BRANCH   1  18
ATOM     18  S   UNL     1       2.099   9.226  18.933  0.00  0.00    +0.000 S 
BRANCH  18  19
ATOM     19  C   UNL     1       0.544  10.150  18.912  0.00  0.00    +0.000 C 
ATOM     20  O   UNL     1      -0.248   9.861  17.762  0.00  0.00    +0.000 OA
ATOM     21  C   UNL     1      -1.609  10.248  17.954  0.00  0.00    +0.000 C 
ATOM     22  C   UNL     1      -1.710  11.768  18.162  0.00  0.00    +0.000 C 
ATOM     23  C   UNL     1      -0.754  12.221  19.279  0.00  0.00    +0.000 C 
ATOM     24  C   UNL     1       0.681  11.680  19.085  0.00  0.00    +0.000 C 
BRANCH  22  25
ATOM     25  O   UNL     1      -3.068  12.106  18.498  0.00  0.00    +0.000 OA
ATOM     26  H   UNL     1      -3.129  12.122  19.472  0.00  0.00    +0.000 HD
ENDBRANCH  22  25
BRANCH  23  27
ATOM     27  O   UNL     1      -0.812  13.648  19.395  0.00  0.00    +0.000 OA
ATOM     28  H   UNL     1      -0.983  13.866  20.331  0.00  0.00    +0.000 HD
ENDBRANCH  23  27
BRANCH  24  29
ATOM     29  O   UNL     1       1.450  12.069  20.233  0.00  0.00    +0.000 OA
ATOM     30  H   UNL     1       1.700  11.276  20.737  0.00  0.00    +0.000 HD
ENDBRANCH  24  29
BRANCH  21  31
ATOM     31  C   UNL     1      -2.462   9.769  16.772  0.00  0.00    +0.000 C 
BRANCH  31  32
ATOM     32  O   UNL     1      -2.459  10.718  15.706  0.00  0.00    +0.000 OA
ATOM     33  H   UNL     1      -2.842  10.261  14.927  0.00  0.00    +0.000 HD
ENDBRANCH  31  32
ENDBRANCH  21  31
ENDBRANCH  18  19
ENDBRANCH   1  18
TORSDOF 12
ENDMDL
MODEL 2
REMARK VINA RESULT:      -6.8      3.618      7.935
REMARK  Name = 
REMARK  14 active torsions:
REMARK  status: ('A' for Active; 'I' for Inactive)
REMARK    1  A    between atoms: C_1  and  O_2
REMARK    2  A    between atoms: O_2  and  C_3
REMARK    3  A    between atoms: C_6  and  C_7
REMARK    4  A    between atoms: C_7  and  S_14
REMARK    5  A    between atoms: N_8  and  O_9
REMARK    6  A    between atoms: O_9  and  S_10
REMARK    7  A    between atoms: S_14  and  C_15
REMARK    8  A    between atoms: C_17  and  C_18
REMARK    9  A    between atoms: C_18  and  O_19
REMARK   10  A    between atoms: C_20  and  O_21
REMARK   11  A    between atoms: C_22  and  O_23
REMARK   12  A    between atoms: C_24  and  O_25
REMARK   13  A    between atoms: C_27  and  O_28
REMARK   14  A    between atoms: O_28  and  C_29
REMARK                            x       y       z     vdW  Elec       q    Type
REMARK                         _______ _______ _______ _____ _____    ______ ____
ROOT
ATOM      1  C   UNL     1       2.512   5.472  19.270  0.00  0.00    +0.000 C 
ATOM      2  N   UNL     1       2.765   5.059  20.473  0.00  0.00    +0.000 NA
ENDROOT
BRANCH   1   6
ATOM      3  C   UNL     1       1.676   9.669  18.844  0.00  0.00    +0.000 A 
ATOM      4  C   UNL     1       2.150   8.915  17.764  0.00  0.00    +0.000 A 
ATOM      5  C   UNL     1       2.386   7.545  17.911  0.00  0.00    +0.000 A 
ATOM      6  C   UNL     1       2.138   6.911  19.134  0.00  0.00    +0.000 A 
ATOM      7  C   UNL     1       1.596   7.652  20.189  0.00  0.00    +0.000 A 
ATOM      8  C   UNL     1       1.461   9.040  20.079  0.00  0.00    +0.000 A 
BRANCH   3  10
ATOM      9  C   UNL     1       2.408  11.751  18.034  0.00  0.00    +0.000 C 
ATOM     10  O   UNL     1       1.416  11.012  18.747  0.00  0.00    +0.000 OA
ENDBRANCH   3  10
BRANCH   8  11
ATOM     11  O   UNL     1       1.086   9.673  21.240  0.00  0.00    +0.000 OA
ATOM     12  C   UNL     1      -0.201   9.293  21.718  0.00  0.00    +0.000 C 
ENDBRANCH   8  11
ENDBRANCH   1   6
BRANCH   2  13
ATOM     13  O   UNL     1       3.051   3.672  20.536  0.00  0.00    +0.000 OA
BRANCH  13  14
ATOM     14  S   UNL     1       1.722   2.722  20.839  0.00  0.00    +0.000 S 
ATOM     15  O   UNL     1       1.761   1.681  19.811  0.00  0.00    +0.000 OA
ATOM     16  O   UNL     1       1.930   2.231  22.206  0.00  0.00    +0.000 OA
ATOM     17  O   UNL     1       0.600   3.655  20.710  0.00  0.00    +0.000 OA
ENDBRANCH  13  14
ENDBRANCH   2  13
BRANCH   1  18
ATOM     18  S   UNL     1       2.553   4.435  17.832  0.00  0.00    +0.000 S 
BRANCH  18  19
ATOM     19  C   UNL     1       4.200   4.761  17.159  0.00  0.00    +0.000 C 
ATOM     20  O   UNL     1       4.368   4.234  15.844  0.00  0.00    +0.000 OA
ATOM     21  C   UNL     1       5.474   4.840  15.175  0.00  0.00    +0.000 C 
ATOM     22  C   UNL     1       6.784   4.536  15.920  0.00  0.00    +0.000 C 
ATOM     23  C   UNL     1       6.655   4.910  17.407  0.00  0.00    +0.000 C 
ATOM     24  C   UNL     1       5.381   4.323  18.055  0.00  0.00    +0.000 C 
BRANCH  22  25
ATOM     25  O   UNL     1       7.855   5.278  15.308  0.00  0.00    +0.000 OA
ATOM     26  H   UNL     1       7.509   5.647  14.472  0.00  0.00    +0.000 HD
ENDBRANCH  22  25
BRANCH  23  27
ATOM     27  O   UNL     1       7.861   4.541  18.089  0.00  0.00    +0.000 OA
ATOM     28  H   UNL     1       8.611   4.734  17.496  0.00  0.00    +0.000 HD
ENDBRANCH  23  27
BRANCH  24  29
ATOM     29  O   UNL     1       5.308   4.824  19.399  0.00  0.00    +0.000 OA
ATOM     30  H   UNL     1       4.580   4.382  19.868  0.00  0.00    +0.000 HD
ENDBRANCH  24  29
BRANCH  21  31
ATOM     31  C   UNL     1       5.520   4.378  13.713  0.00  0.00    +0.000 C 
BRANCH  31  32
ATOM     32  O   UNL     1       6.420   3.283  13.539  0.00  0.00    +0.000 OA
ATOM     33  H   UNL     1       7.298   3.596  13.842  0.00  0.00    +0.000 HD
ENDBRANCH  31  32
ENDBRANCH  21  31
ENDBRANCH  18  19
ENDBRANCH   1  18
TORSDOF 12
ENDMDL
MODEL 3
REMARK VINA RESULT:      -6.7      3.449      8.174
REMARK  Name = 
REMARK  14 active torsions:
REMARK  status: ('A' for Active; 'I' for Inactive)
REMARK    1  A    between atoms: C_1  and  O_2
REMARK    2  A    between atoms: O_2  and  C_3
REMARK    3  A    between atoms: C_6  and  C_7
REMARK    4  A    between atoms: C_7  and  S_14
REMARK    5  A    between atoms: N_8  and  O_9
REMARK    6  A    between atoms: O_9  and  S_10
REMARK    7  A    between atoms: S_14  and  C_15
REMARK    8  A    between atoms: C_17  and  C_18
REMARK    9  A    between atoms: C_18  and  O_19
REMARK   10  A    between atoms: C_20  and  O_21
REMARK   11  A    between atoms: C_22  and  O_23
REMARK   12  A    between atoms: C_24  and  O_25
REMARK   13  A    between atoms: C_27  and  O_28
REMARK   14  A    between atoms: O_28  and  C_29
REMARK                            x       y       z     vdW  Elec       q    Type
REMARK                         _______ _______ _______ _____ _____    ______ ____
ROOT
ATOM      1  C   UNL     1       2.139   6.840  19.536  0.00  0.00    +0.000 C 
ATOM      2  N   UNL     1       2.223   5.783  20.281  0.00  0.00    +0.000 NA
ENDROOT
BRANCH   1   6
ATOM      3  C   UNL     1       0.570  10.288  21.575  0.00  0.00    +0.000 A 
ATOM      4  C   UNL     1       1.072   9.194  22.289  0.00  0.00    +0.000 A 
ATOM      5  C   UNL     1       1.607   8.095  21.611  0.00  0.00    +0.000 A 
ATOM      6  C   UNL     1       1.660   8.083  20.212  0.00  0.00    +0.000 A 
ATOM      7  C   UNL     1       1.225   9.207  19.504  0.00  0.00    +0.000 A 
ATOM      8  C   UNL     1       0.591  10.260  20.172  0.00  0.00    +0.000 A 
BRANCH   3  10
ATOM      9  C   UNL     1      -1.118  11.133  22.976  0.00  0.00    +0.000 C 
ATOM     10  O   UNL     1       0.047  11.394  22.193  0.00  0.00    +0.000 OA
ENDBRANCH   3  10
BRANCH   8  11
ATOM     11  O   UNL     1       0.053  11.220  19.349  0.00  0.00    +0.000 OA
ATOM     12  C   UNL     1      -0.802  10.701  18.335  0.00  0.00    +0.000 C 
ENDBRANCH   8  11
ENDBRANCH   1   6
BRANCH   2  13
ATOM     13  O   UNL     1       2.623   4.628  19.563  0.00  0.00    +0.000 OA
BRANCH  13  14
ATOM     14  S   UNL     1       2.067   3.202  20.211  0.00  0.00    +0.000 S 
ATOM     15  O   UNL     1       2.284   3.334  21.653  0.00  0.00    +0.000 OA
ATOM     16  O   UNL     1       0.656   3.147  19.814  0.00  0.00    +0.000 OA
ATOM     17  O   UNL     1       2.904   2.186  19.567  0.00  0.00    +0.000 OA
ENDBRANCH  13  14
ENDBRANCH   2  13
BRANCH   1  18
ATOM     18  S   UNL     1       2.520   6.873  17.805  0.00  0.00    +0.000 S 
BRANCH  18  19
ATOM     19  C   UNL     1       4.132   6.057  17.741  0.00  0.00    +0.000 C 
ATOM     20  O   UNL     1       5.198   6.970  17.488  0.00  0.00    +0.000 OA
ATOM     21  C   UNL     1       6.461   6.413  17.851  0.00  0.00    +0.000 C 
ATOM     22  C   UNL     1       6.764   5.169  17.000  0.00  0.00    +0.000 C 
ATOM     23  C   UNL     1       5.588   4.178  17.061  0.00  0.00    +0.000 C 
ATOM     24  C   UNL     1       4.229   4.855  16.773  0.00  0.00    +0.000 C 
BRANCH  22  25
ATOM     25  O   UNL     1       7.967   4.548  17.487  0.00  0.00    +0.000 OA
ATOM     26  H   UNL     1       7.721   3.663  17.819  0.00  0.00    +0.000 HD
ENDBRANCH  22  25
BRANCH  23  27
ATOM     27  O   UNL     1       5.864   3.069  16.197  0.00  0.00    +0.000 OA
ATOM     28  H   UNL     1       5.673   3.347  15.282  0.00  0.00    +0.000 HD
ENDBRANCH  23  27
BRANCH  24  29
ATOM     29  O   UNL     1       3.204   3.869  16.966  0.00  0.00    +0.000 OA
ATOM     30  H   UNL     1       3.078   3.369  16.142  0.00  0.00    +0.000 HD
ENDBRANCH  24  29
BRANCH  21  31
ATOM     31  C   UNL     1       7.559   7.477  17.728  0.00  0.00    +0.000 C 
BRANCH  31  32
ATOM     32  O   UNL     1       8.480   7.407  18.817  0.00  0.00    +0.000 OA
ATOM     33  H   UNL     1       8.735   6.464  18.904  0.00  0.00    +0.000 HD
ENDBRANCH  31  32
ENDBRANCH  21  31
ENDBRANCH  18  19
ENDBRANCH   1  18
TORSDOF 12
ENDMDL
MODEL 4
REMARK VINA RESULT:      -6.6      3.424      8.062
REMARK  Name = 
REMARK  14 active torsions:
REMARK  status: ('A' for Active; 'I' for Inactive)
REMARK    1  A    between atoms: C_1  and  O_2
REMARK    2  A    between atoms: O_2  and  C_3
REMARK    3  A    between atoms: C_6  and  C_7
REMARK    4  A    between atoms: C_7  and  S_14
REMARK    5  A    between atoms: N_8  and  O_9
REMARK    6  A    between atoms: O_9  and  S_10
REMARK    7  A    between atoms: S_14  and  C_15
REMARK    8  A    between atoms: C_17  and  C_18
REMARK    9  A    between atoms: C_18  and  O_19
REMARK   10  A    between atoms: C_20  and  O_21
REMARK   11  A    between atoms: C_22  and  O_23
REMARK   12  A    between atoms: C_24  and  O_25
REMARK   13  A    between atoms: C_27  and  O_28
REMARK   14  A    between atoms: O_28  and  C_29
REMARK                            x       y       z     vdW  Elec       q    Type
REMARK                         _______ _______ _______ _____ _____    ______ ____
ROOT
ATOM      1  C   UNL     1       2.302   6.480  19.603  0.00  0.00    +0.000 C 
ATOM      2  N   UNL     1       2.743   5.793  20.611  0.00  0.00    +0.000 NA
ENDROOT
BRANCH   1   6
ATOM      3  C   UNL     1       0.942  10.472  20.452  0.00  0.00    +0.000 A 
ATOM      4  C   UNL     1       1.238  10.073  19.143  0.00  0.00    +0.000 A 
ATOM      5  C   UNL     1       1.648   8.763  18.880  0.00  0.00    +0.000 A 
ATOM      6  C   UNL     1       1.754   7.832  19.921  0.00  0.00    +0.000 A 
ATOM      7  C   UNL     1       1.389   8.213  21.216  0.00  0.00    +0.000 A 
ATOM      8  C   UNL     1       1.082   9.548  21.498  0.00  0.00    +0.000 A 
BRANCH   3  10
ATOM      9  C   UNL     1       1.520  12.746  20.577  0.00  0.00    +0.000 C 
ATOM     10  O   UNL     1       0.524  11.740  20.759  0.00  0.00    +0.000 OA
ENDBRANCH   3  10
BRANCH   8  11
ATOM     11  O   UNL     1       0.914   9.827  22.834  0.00  0.00    +0.000 OA
ATOM     12  C   UNL     1      -0.423   9.665  23.296  0.00  0.00    +0.000 C 
ENDBRANCH   8  11
ENDBRANCH   1   6
BRANCH   2  13
ATOM     13  O   UNL     1       3.190   4.498  20.246  0.00  0.00    +0.000 OA
BRANCH  13  14
ATOM     14  S   UNL     1       2.140   3.279  20.661  0.00  0.00    +0.000 S 
ATOM     15  O   UNL     1       0.818   3.906  20.669  0.00  0.00    +0.000 OA
ATOM     16  O   UNL     1       2.325   2.267  19.615  0.00  0.00    +0.000 OA
ATOM     17  O   UNL     1       2.614   2.857  21.982  0.00  0.00    +0.000 OA
ENDBRANCH  13  14
ENDBRANCH   2  13
BRANCH   1  18
ATOM     18  S   UNL     1       2.289   5.898  17.929  0.00  0.00    +0.000 S 
BRANCH  18  19
ATOM     19  C   UNL     1       4.004   5.381  17.678  0.00  0.00    +0.000 C 
ATOM     20  O   UNL     1       4.872   6.479  17.402  0.00  0.00    +0.000 OA
ATOM     21  C   UNL     1       6.239   6.133  17.622  0.00  0.00    +0.000 C 
ATOM     22  C   UNL     1       6.668   5.008  16.665  0.00  0.00    +0.000 C 
ATOM     23  C   UNL     1       5.688   3.825  16.754  0.00  0.00    +0.000 C 
ATOM     24  C   UNL     1       4.213   4.268  16.625  0.00  0.00    +0.000 C 
BRANCH  22  25
ATOM     25  O   UNL     1       7.999   4.582  17.009  0.00  0.00    +0.000 OA
ATOM     26  H   UNL     1       7.961   4.221  17.915  0.00  0.00    +0.000 HD
ENDBRANCH  22  25
BRANCH  23  27
ATOM     27  O   UNL     1       6.067   2.829  15.796  0.00  0.00    +0.000 OA
ATOM     28  H   UNL     1       5.690   3.084  14.934  0.00  0.00    +0.000 HD
ENDBRANCH  23  27
BRANCH  24  29
ATOM     29  O   UNL     1       3.392   3.109  16.833  0.00  0.00    +0.000 OA
ATOM     30  H   UNL     1       3.912   2.308  16.646  0.00  0.00    +0.000 HD
ENDBRANCH  24  29
BRANCH  21  31
ATOM     31  C   UNL     1       7.124   7.378  17.483  0.00  0.00    +0.000 C 
BRANCH  31  32
ATOM     32  O   UNL     1       8.189   7.371  18.434  0.00  0.00    +0.000 OA
ATOM     33  H   UNL     1       8.352   6.431  18.660  0.00  0.00    +0.000 HD
ENDBRANCH  31  32
ENDBRANCH  21  31
ENDBRANCH  18  19
ENDBRANCH   1  18
TORSDOF 12
ENDMDL
MODEL 5
REMARK VINA RESULT:      -6.6      4.647      6.865
REMARK  Name = 
REMARK  14 active torsions:
REMARK  status: ('A' for Active; 'I' for Inactive)
REMARK    1  A    between atoms: C_1  and  O_2
REMARK    2  A    between atoms: O_2  and  C_3
REMARK    3  A    between atoms: C_6  and  C_7
REMARK    4  A    between atoms: C_7  and  S_14
REMARK    5  A    between atoms: N_8  and  O_9
REMARK    6  A    between atoms: O_9  and  S_10
REMARK    7  A    between atoms: S_14  and  C_15
REMARK    8  A    between atoms: C_17  and  C_18
REMARK    9  A    between atoms: C_18  and  O_19
REMARK   10  A    between atoms: C_20  and  O_21
REMARK   11  A    between atoms: C_22  and  O_23
REMARK   12  A    between atoms: C_24  and  O_25
REMARK   13  A    between atoms: C_27  and  O_28
REMARK   14  A    between atoms: O_28  and  C_29
REMARK                            x       y       z     vdW  Elec       q    Type
REMARK                         _______ _______ _______ _____ _____    ______ ____
ROOT
ATOM      1  C   UNL     1      -1.399  11.379  19.673  0.00  0.00    +0.000 C 
ATOM      2  N   UNL     1      -0.636  10.444  20.147  0.00  0.00    +0.000 NA
ENDROOT
BRANCH   1   6
ATOM      3  C   UNL     1      -3.444  10.488  15.995  0.00  0.00    +0.000 A 
ATOM      4  C   UNL     1      -2.232   9.864  16.317  0.00  0.00    +0.000 A 
ATOM      5  C   UNL     1      -1.597  10.141  17.530  0.00  0.00    +0.000 A 
ATOM      6  C   UNL     1      -2.172  11.034  18.443  0.00  0.00    +0.000 A 
ATOM      7  C   UNL     1      -3.417  11.599  18.151  0.00  0.00    +0.000 A 
ATOM      8  C   UNL     1      -4.002  11.409  16.895  0.00  0.00    +0.000 A 
BRANCH   3  10
ATOM      9  C   UNL     1      -3.263   9.948  13.715  0.00  0.00    +0.000 C 
ATOM     10  O   UNL     1      -4.112  10.241  14.824  0.00  0.00    +0.000 OA
ENDBRANCH   3  10
BRANCH   8  11
ATOM     11  O   UNL     1      -5.132  12.157  16.669  0.00  0.00    +0.000 OA
ATOM     12  C   UNL     1      -6.036  12.188  17.769  0.00  0.00    +0.000 C 
ENDBRANCH   8  11
ENDBRANCH   1   6
BRANCH   2  13
ATOM     13  O   UNL     1       0.115  10.859  21.276  0.00  0.00    +0.000 OA
BRANCH  13  14
ATOM     14  S   UNL     1       0.051   9.800  22.556  0.00  0.00    +0.000 S 
ATOM     15  O   UNL     1      -0.607   8.606  22.024  0.00  0.00    +0.000 OA
ATOM     16  O   UNL     1       1.454   9.601  22.933  0.00  0.00    +0.000 OA
ATOM     17  O   UNL     1      -0.734  10.525  23.558  0.00  0.00    +0.000 OA
ENDBRANCH  13  14
ENDBRANCH   2  13
BRANCH   1  18
ATOM     18  S   UNL     1      -1.539  13.001  20.373  0.00  0.00    +0.000 S 
BRANCH  18  19
ATOM     19  C   UNL     1      -2.793  12.771  21.655  0.00  0.00    +0.000 C 
ATOM     20  O   UNL     1      -4.119  12.966  21.165  0.00  0.00    +0.000 OA
ATOM     21  C   UNL     1      -5.089  12.386  22.037  0.00  0.00    +0.000 C 
ATOM     22  C   UNL     1      -5.047  13.067  23.415  0.00  0.00    +0.000 C 
ATOM     23  C   UNL     1      -3.611  13.068  23.969  0.00  0.00    +0.000 C 
ATOM     24  C   UNL     1      -2.583  13.599  22.944  0.00  0.00    +0.000 C 
BRANCH  22  25
ATOM     25  O   UNL     1      -5.928  12.366  24.311  0.00  0.00    +0.000 OA
ATOM     26  H   UNL     1      -5.410  12.143  25.109  0.00  0.00    +0.000 HD
ENDBRANCH  22  25
BRANCH  23  27
ATOM     27  O   UNL     1      -3.590  13.778  25.214  0.00  0.00    +0.000 OA
ATOM     28  H   UNL     1      -3.398  13.135  25.922  0.00  0.00    +0.000 HD
ENDBRANCH  23  27
BRANCH  24  29
ATOM     29  O   UNL     1      -1.278  13.451  23.524  0.00  0.00    +0.000 OA
ATOM     30  H   UNL     1      -1.249  12.632  24.047  0.00  0.00    +0.000 HD
ENDBRANCH  24  29
BRANCH  21  31
ATOM     31  C   UNL     1      -6.481  12.462  21.397  0.00  0.00    +0.000 C 
BRANCH  31  32
ATOM     32  O   UNL     1      -6.973  11.165  21.058  0.00  0.00    +0.000 OA
ATOM     33  H   UNL     1      -7.809  11.307  20.565  0.00  0.00    +0.000 HD
ENDBRANCH  31  32
ENDBRANCH  21  31
ENDBRANCH  18  19
ENDBRANCH   1  18
TORSDOF 12
ENDMDL
MODEL 6
REMARK VINA RESULT:      -6.6      1.555      2.336
REMARK  Name = 
REMARK  14 active torsions:
REMARK  status: ('A' for Active; 'I' for Inactive)
REMARK    1  A    between atoms: C_1  and  O_2
REMARK    2  A    between atoms: O_2  and  C_3
REMARK    3  A    between atoms: C_6  and  C_7
REMARK    4  A    between atoms: C_7  and  S_14
REMARK    5  A    between atoms: N_8  and  O_9
REMARK    6  A    between atoms: O_9  and  S_10
REMARK    7  A    between atoms: S_14  and  C_15
REMARK    8  A    between atoms: C_17  and  C_18
REMARK    9  A    between atoms: C_18  and  O_19
REMARK   10  A    between atoms: C_20  and  O_21
REMARK   11  A    between atoms: C_22  and  O_23
REMARK   12  A    between atoms: C_24  and  O_25
REMARK   13  A    between atoms: C_27  and  O_28
REMARK   14  A    between atoms: O_28  and  C_29
REMARK                            x       y       z     vdW  Elec       q    Type
REMARK                         _______ _______ _______ _____ _____    ______ ____
ROOT
ATOM      1  C   UNL     1       1.734   8.624  19.662  0.00  0.00    +0.000 C 
ATOM      2  N   UNL     1       1.348   8.549  20.898  0.00  0.00    +0.000 NA
ENDROOT
BRANCH   1   6
ATOM      3  C   UNL     1       3.453   4.976  18.165  0.00  0.00    +0.000 A 
ATOM      4  C   UNL     1       2.564   4.965  19.247  0.00  0.00    +0.000 A 
ATOM      5  C   UNL     1       1.990   6.155  19.701  0.00  0.00    +0.000 A 
ATOM      6  C   UNL     1       2.286   7.370  19.070  0.00  0.00    +0.000 A 
ATOM      7  C   UNL     1       3.116   7.368  17.944  0.00  0.00    +0.000 A 
ATOM      8  C   UNL     1       3.775   6.198  17.556  0.00  0.00    +0.000 A 
BRANCH   3  10
ATOM      9  C   UNL     1       3.597   2.635  18.315  0.00  0.00    +0.000 C 
ATOM     10  O   UNL     1       4.031   3.835  17.675  0.00  0.00    +0.000 OA
ENDBRANCH   3  10
BRANCH   8  11
ATOM     11  O   UNL     1       4.696   6.366  16.549  0.00  0.00    +0.000 OA
ATOM     12  C   UNL     1       5.960   6.847  16.994  0.00  0.00    +0.000 C 
ENDBRANCH   8  11
ENDBRANCH   1   6
BRANCH   2  13
ATOM     13  O   UNL     1       0.894   9.789  21.414  0.00  0.00    +0.000 OA
BRANCH  13  14
ATOM     14  S   UNL     1      -0.216   9.644  22.642  0.00  0.00    +0.000 S 
ATOM     15  O   UNL     1       0.580   9.630  23.870  0.00  0.00    +0.000 OA
ATOM     16  O   UNL     1      -1.079  10.820  22.493  0.00  0.00    +0.000 OA
ATOM     17  O   UNL     1      -0.888   8.376  22.345  0.00  0.00    +0.000 OA
ENDBRANCH  13  14
ENDBRANCH   2  13
BRANCH   1  18
ATOM     18  S   UNL     1       1.671  10.103  18.687  0.00  0.00    +0.000 S 
BRANCH  18  19
ATOM     19  C   UNL     1      -0.094  10.495  18.679  0.00  0.00    +0.000 C 
ATOM     20  O   UNL     1      -0.719  10.184  17.435  0.00  0.00    +0.000 OA
ATOM     21  C   UNL     1      -2.137  10.095  17.570  0.00  0.00    +0.000 C 
ATOM     22  C   UNL     1      -2.720  11.450  18.004  0.00  0.00    +0.000 C 
ATOM     23  C   UNL     1      -1.992  11.971  19.255  0.00  0.00    +0.000 C 
ATOM     24  C   UNL     1      -0.454  11.939  19.101  0.00  0.00    +0.000 C 
BRANCH  22  25
ATOM     25  O   UNL     1      -4.126  11.292  18.273  0.00  0.00    +0.000 OA
ATOM     26  H   UNL     1      -4.355  10.364  18.073  0.00  0.00    +0.000 HD
ENDBRANCH  22  25
BRANCH  23  27
ATOM     27  O   UNL     1      -2.502  13.269  19.588  0.00  0.00    +0.000 OA
ATOM     28  H   UNL     1      -1.878  13.934  19.240  0.00  0.00    +0.000 HD
ENDBRANCH  23  27
BRANCH  24  29
ATOM     29  O   UNL     1       0.116  12.337  20.356  0.00  0.00    +0.000 OA
ATOM     30  H   UNL     1       0.527  13.213  20.260  0.00  0.00    +0.000 HD
ENDBRANCH  24  29
BRANCH  21  31
ATOM     31  C   UNL     1      -2.759   9.592  16.260  0.00  0.00    +0.000 C 
BRANCH  31  32
ATOM     32  O   UNL     1      -3.233  10.674  15.457  0.00  0.00    +0.000 OA
ATOM     33  H   UNL     1      -2.438  11.157  15.147  0.00  0.00    +0.000 HD
ENDBRANCH  31  32
ENDBRANCH  21  31
ENDBRANCH  18  19
ENDBRANCH   1  18
TORSDOF 12
ENDMDL
MODEL 7
REMARK VINA RESULT:      -6.6      1.829      2.607
REMARK  Name = 
REMARK  14 active torsions:
REMARK  status: ('A' for Active; 'I' for Inactive)
REMARK    1  A    between atoms: C_1  and  O_2
REMARK    2  A    between atoms: O_2  and  C_3
REMARK    3  A    between atoms: C_6  and  C_7
REMARK    4  A    between atoms: C_7  and  S_14
REMARK    5  A    between atoms: N_8  and  O_9
REMARK    6  A    between atoms: O_9  and  S_10
REMARK    7  A    between atoms: S_14  and  C_15
REMARK    8  A    between atoms: C_17  and  C_18
REMARK    9  A    between atoms: C_18  and  O_19
REMARK   10  A    between atoms: C_20  and  O_21
REMARK   11  A    between atoms: C_22  and  O_23
REMARK   12  A    between atoms: C_24  and  O_25
REMARK   13  A    between atoms: C_27  and  O_28
REMARK   14  A    between atoms: O_28  and  C_29
REMARK                            x       y       z     vdW  Elec       q    Type
REMARK                         _______ _______ _______ _____ _____    ______ ____
ROOT
ATOM      1  C   UNL     1       0.550   9.450  19.888  0.00  0.00    +0.000 C 
ATOM      2  N   UNL     1      -0.132   9.174  20.955  0.00  0.00    +0.000 NA
ENDROOT
BRANCH   1   6
ATOM      3  C   UNL     1       3.278   6.440  18.475  0.00  0.00    +0.000 A 
ATOM      4  C   UNL     1       3.037   7.601  17.731  0.00  0.00    +0.000 A 
ATOM      5  C   UNL     1       2.173   8.584  18.220  0.00  0.00    +0.000 A 
ATOM      6  C   UNL     1       1.549   8.424  19.463  0.00  0.00    +0.000 A 
ATOM      7  C   UNL     1       1.848   7.298  20.236  0.00  0.00    +0.000 A 
ATOM      8  C   UNL     1       2.627   6.265  19.705  0.00  0.00    +0.000 A 
BRANCH   3  10
ATOM      9  C   UNL     1       5.487   5.638  18.439  0.00  0.00    +0.000 C 
ATOM     10  O   UNL     1       4.128   5.453  18.046  0.00  0.00    +0.000 OA
ENDBRANCH   3  10
BRANCH   8  11
ATOM     11  O   UNL     1       2.700   5.140  20.491  0.00  0.00    +0.000 OA
ATOM     12  C   UNL     1       1.584   4.266  20.359  0.00  0.00    +0.000 C 
ENDBRANCH   8  11
ENDBRANCH   1   6
BRANCH   2  13
ATOM     13  O   UNL     1      -1.015  10.217  21.335  0.00  0.00    +0.000 OA
BRANCH  13  14
ATOM     14  S   UNL     1      -0.644  10.917  22.795  0.00  0.00    +0.000 S 
ATOM     15  O   UNL     1      -1.936  11.135  23.447  0.00  0.00    +0.000 OA
ATOM     16  O   UNL     1       0.214   9.933  23.463  0.00  0.00    +0.000 OA
ATOM     17  O   UNL     1       0.054  12.148  22.414  0.00  0.00    +0.000 OA
ENDBRANCH  13  14
ENDBRANCH   2  13
BRANCH   1  18
ATOM     18  S   UNL     1       0.384  10.952  18.959  0.00  0.00    +0.000 S 
BRANCH  18  19
ATOM     19  C   UNL     1      -1.352  10.913  18.455  0.00  0.00    +0.000 C 
ATOM     20  O   UNL     1      -1.512  10.628  17.066  0.00  0.00    +0.000 OA
ATOM     21  C   UNL     1      -2.838  10.190  16.771  0.00  0.00    +0.000 C 
ATOM     22  C   UNL     1      -3.853  11.299  17.092  0.00  0.00    +0.000 C 
ATOM     23  C   UNL     1      -3.654  11.809  18.531  0.00  0.00    +0.000 C 
ATOM     24  C   UNL     1      -2.181  12.161  18.834  0.00  0.00    +0.000 C 
BRANCH  22  25
ATOM     25  O   UNL     1      -5.185  10.779  16.926  0.00  0.00    +0.000 OA
ATOM     26  H   UNL     1      -5.282  10.031  17.545  0.00  0.00    +0.000 HD
ENDBRANCH  22  25
BRANCH  23  27
ATOM     27  O   UNL     1      -4.559  12.894  18.773  0.00  0.00    +0.000 OA
ATOM     28  H   UNL     1      -4.178  13.697  18.372  0.00  0.00    +0.000 HD
ENDBRANCH  23  27
BRANCH  24  29
ATOM     29  O   UNL     1      -2.097  12.515  20.223  0.00  0.00    +0.000 OA
ATOM     30  H   UNL     1      -2.798  13.153  20.436  0.00  0.00    +0.000 HD
ENDBRANCH  24  29
BRANCH  21  31
ATOM     31  C   UNL     1      -2.927   9.731  15.310  0.00  0.00    +0.000 C 
BRANCH  31  32
ATOM     32  O   UNL     1      -3.396  10.779  14.461  0.00  0.00    +0.000 OA
ATOM     33  H   UNL     1      -4.358  10.627  14.339  0.00  0.00    +0.000 HD
ENDBRANCH  31  32
ENDBRANCH  21  31
ENDBRANCH  18  19
ENDBRANCH   1  18
TORSDOF 12
ENDMDL
MODEL 8
REMARK VINA RESULT:      -6.5      1.280      1.468
REMARK  Name = 
REMARK  14 active torsions:
REMARK  status: ('A' for Active; 'I' for Inactive)
REMARK    1  A    between atoms: C_1  and  O_2
REMARK    2  A    between atoms: O_2  and  C_3
REMARK    3  A    between atoms: C_6  and  C_7
REMARK    4  A    between atoms: C_7  and  S_14
REMARK    5  A    between atoms: N_8  and  O_9
REMARK    6  A    between atoms: O_9  and  S_10
REMARK    7  A    between atoms: S_14  and  C_15
REMARK    8  A    between atoms: C_17  and  C_18
REMARK    9  A    between atoms: C_18  and  O_19
REMARK   10  A    between atoms: C_20  and  O_21
REMARK   11  A    between atoms: C_22  and  O_23
REMARK   12  A    between atoms: C_24  and  O_25
REMARK   13  A    between atoms: C_27  and  O_28
REMARK   14  A    between atoms: O_28  and  C_29
REMARK                            x       y       z     vdW  Elec       q    Type
REMARK                         _______ _______ _______ _____ _____    ______ ____
ROOT
ATOM      1  C   UNL     1       1.710   8.669  19.594  0.00  0.00    +0.000 C 
ATOM      2  N   UNL     1       1.280   8.598  20.815  0.00  0.00    +0.000 NA
ENDROOT
BRANCH   1   6
ATOM      3  C   UNL     1       3.457   5.154  17.834  0.00  0.00    +0.000 A 
ATOM      4  C   UNL     1       3.718   6.428  17.314  0.00  0.00    +0.000 A 
ATOM      5  C   UNL     1       3.168   7.562  17.918  0.00  0.00    +0.000 A 
ATOM      6  C   UNL     1       2.362   7.438  19.056  0.00  0.00    +0.000 A 
ATOM      7  C   UNL     1       2.162   6.172  19.615  0.00  0.00    +0.000 A 
ATOM      8  C   UNL     1       2.621   5.029  18.953  0.00  0.00    +0.000 A 
BRANCH   3  10
ATOM      9  C   UNL     1       4.925   4.245  16.239  0.00  0.00    +0.000 C 
ATOM     10  O   UNL     1       3.983   4.013  17.287  0.00  0.00    +0.000 OA
ENDBRANCH   3  10
BRANCH   8  11
ATOM     11  O   UNL     1       2.209   3.841  19.509  0.00  0.00    +0.000 OA
ATOM     12  C   UNL     1       0.988   3.934  20.237  0.00  0.00    +0.000 C 
ENDBRANCH   8  11
ENDBRANCH   1   6
BRANCH   2  13
ATOM     13  O   UNL     1       0.730   9.819  21.282  0.00  0.00    +0.000 OA
BRANCH  13  14
ATOM     14  S   UNL     1      -0.251   9.653  22.613  0.00  0.00    +0.000 S 
ATOM     15  O   UNL     1       0.658   9.696  23.759  0.00  0.00    +0.000 OA
ATOM     16  O   UNL     1      -1.174  10.789  22.529  0.00  0.00    +0.000 OA
ATOM     17  O   UNL     1      -0.893   8.352  22.402  0.00  0.00    +0.000 OA
ENDBRANCH  13  14
ENDBRANCH   2  13
BRANCH   1  18
ATOM     18  S   UNL     1       1.594  10.118  18.579  0.00  0.00    +0.000 S 
BRANCH  18  19
ATOM     19  C   UNL     1      -0.172  10.504  18.644  0.00  0.00    +0.000 C 
ATOM     20  O   UNL     1      -0.840  10.217  17.416  0.00  0.00    +0.000 OA
ATOM     21  C   UNL     1      -2.252  10.121  17.600  0.00  0.00    +0.000 C 
ATOM     22  C   UNL     1      -2.823  11.464  18.084  0.00  0.00    +0.000 C 
ATOM     23  C   UNL     1      -2.051  11.961  19.319  0.00  0.00    +0.000 C 
ATOM     24  C   UNL     1      -0.520  11.937  19.109  0.00  0.00    +0.000 C 
BRANCH  22  25
ATOM     25  O   UNL     1      -4.217  11.295  18.400  0.00  0.00    +0.000 OA
ATOM     26  H   UNL     1      -4.401  10.336  18.387  0.00  0.00    +0.000 HD
ENDBRANCH  22  25
BRANCH  23  27
ATOM     27  O   UNL     1      -2.552  13.249  19.698  0.00  0.00    +0.000 OA
ATOM     28  H   UNL     1      -2.437  13.343  20.662  0.00  0.00    +0.000 HD
ENDBRANCH  23  27
BRANCH  24  29
ATOM     29  O   UNL     1       0.094  12.310  20.351  0.00  0.00    +0.000 OA
ATOM     30  H   UNL     1      -0.326  13.120  20.688  0.00  0.00    +0.000 HD
ENDBRANCH  24  29
BRANCH  21  31
ATOM     31  C   UNL     1      -2.919   9.644  16.303  0.00  0.00    +0.000 C 
BRANCH  31  32
ATOM     32  O   UNL     1      -3.515  10.730  15.592  0.00  0.00    +0.000 OA
ATOM     33  H   UNL     1      -4.060  10.329  14.882  0.00  0.00    +0.000 HD
ENDBRANCH  31  32
ENDBRANCH  21  31
ENDBRANCH  18  19
ENDBRANCH   1  18
TORSDOF 12
ENDMDL
MODEL 9
REMARK VINA RESULT:      -6.5      1.152      2.135
REMARK  Name = 
REMARK  14 active torsions:
REMARK  status: ('A' for Active; 'I' for Inactive)
REMARK    1  A    between atoms: C_1  and  O_2
REMARK    2  A    between atoms: O_2  and  C_3
REMARK    3  A    between atoms: C_6  and  C_7
REMARK    4  A    between atoms: C_7  and  S_14
REMARK    5  A    between atoms: N_8  and  O_9
REMARK    6  A    between atoms: O_9  and  S_10
REMARK    7  A    between atoms: S_14  and  C_15
REMARK    8  A    between atoms: C_17  and  C_18
REMARK    9  A    between atoms: C_18  and  O_19
REMARK   10  A    between atoms: C_20  and  O_21
REMARK   11  A    between atoms: C_22  and  O_23
REMARK   12  A    between atoms: C_24  and  O_25
REMARK   13  A    between atoms: C_27  and  O_28
REMARK   14  A    between atoms: O_28  and  C_29
REMARK                            x       y       z     vdW  Elec       q    Type
REMARK                         _______ _______ _______ _____ _____    ______ ____
ROOT
ATOM      1  C   UNL     1       1.772   8.213  19.862  0.00  0.00    +0.000 C 
ATOM      2  N   UNL     1       1.297   8.302  21.065  0.00  0.00    +0.000 NA
ENDROOT
BRANCH   1   6
ATOM      3  C   UNL     1       3.126   4.275  18.785  0.00  0.00    +0.000 A 
ATOM      4  C   UNL     1       2.392   4.490  19.957  0.00  0.00    +0.000 A 
ATOM      5  C   UNL     1       1.932   5.771  20.276  0.00  0.00    +0.000 A 
ATOM      6  C   UNL     1       2.189   6.849  19.420  0.00  0.00    +0.000 A 
ATOM      7  C   UNL     1       2.859   6.618  18.215  0.00  0.00    +0.000 A 
ATOM      8  C   UNL     1       3.412   5.362  17.945  0.00  0.00    +0.000 A 
BRANCH   3  10
ATOM      9  C   UNL     1       3.996   2.218  19.517  0.00  0.00    +0.000 C 
ATOM     10  O   UNL     1       3.587   3.037  18.421  0.00  0.00    +0.000 OA
ENDBRANCH   3  10
BRANCH   8  11
ATOM     11  O   UNL     1       4.195   5.311  16.817  0.00  0.00    +0.000 OA
ATOM     12  C   UNL     1       5.550   5.693  17.033  0.00  0.00    +0.000 C 
ENDBRANCH   8  11
ENDBRANCH   1   6
BRANCH   2  13
ATOM     13  O   UNL     1       0.981   9.633  21.440  0.00  0.00    +0.000 OA
BRANCH  13  14
ATOM     14  S   UNL     1      -0.174   9.743  22.630  0.00  0.00    +0.000 S 
ATOM     15  O   UNL     1      -0.858  11.011  22.376  0.00  0.00    +0.000 OA
ATOM     16  O   UNL     1      -1.011   8.554  22.436  0.00  0.00    +0.000 OA
ATOM     17  O   UNL     1       0.610   9.719  23.868  0.00  0.00    +0.000 OA
ENDBRANCH  13  14
ENDBRANCH   2  13
BRANCH   1  18
ATOM     18  S   UNL     1       1.975   9.592  18.766  0.00  0.00    +0.000 S 
BRANCH  18  19
ATOM     19  C   UNL     1       0.318  10.315  18.731  0.00  0.00    +0.000 C 
ATOM     20  O   UNL     1      -0.386  10.010  17.529  0.00  0.00    +0.000 OA
ATOM     21  C   UNL     1      -1.792  10.210  17.681  0.00  0.00    +0.000 C 
ATOM     22  C   UNL     1      -2.093  11.688  17.980  0.00  0.00    +0.000 C 
ATOM     23  C   UNL     1      -1.246  12.178  19.168  0.00  0.00    +0.000 C 
ATOM     24  C   UNL     1       0.252  11.834  19.007  0.00  0.00    +0.000 C 
BRANCH  22  25
ATOM     25  O   UNL     1      -3.495  11.831  18.273  0.00  0.00    +0.000 OA
ATOM     26  H   UNL     1      -3.769  12.711  17.949  0.00  0.00    +0.000 HD
ENDBRANCH  22  25
BRANCH  23  27
ATOM     27  O   UNL     1      -1.489  13.576  19.371  0.00  0.00    +0.000 OA
ATOM     28  H   UNL     1      -2.430  13.747  19.178  0.00  0.00    +0.000 HD
ENDBRANCH  23  27
BRANCH  24  29
ATOM     29  O   UNL     1       0.921  12.236  20.212  0.00  0.00    +0.000 OA
ATOM     30  H   UNL     1       1.882  12.176  20.083  0.00  0.00    +0.000 HD
ENDBRANCH  24  29
BRANCH  21  31
ATOM     31  C   UNL     1      -2.531   9.711  16.433  0.00  0.00    +0.000 C 
BRANCH  31  32
ATOM     32  O   UNL     1      -2.722  10.761  15.484  0.00  0.00    +0.000 OA
ATOM     33  H   UNL     1      -2.027  10.646  14.801  0.00  0.00    +0.000 HD
ENDBRANCH  31  32
ENDBRANCH  21  31
ENDBRANCH  18  19
ENDBRANCH   1  18
TORSDOF 12
ENDMDL
