MODEL 1
REMARK VINA RESULT:      -8.1      0.000      0.000
REMARK  Name = 
REMARK  5 active torsions:
REMARK  status: ('A' for Active; 'I' for Inactive)
REMARK    1  A    between atoms: C_1  and  C_2
REMARK    2  A    between atoms: C_2  and  C_3
REMARK    3  A    between atoms: C_2  and  C_4
REMARK    4  A    between atoms: C_7  and  C_8
REMARK    5  A    between atoms: C_15  and  C_16
REMARK                            x       y       z     vdW  Elec       q    Type
REMARK                         _______ _______ _______ _____ _____    ______ ____
ROOT
ATOM      1  C   UNL     1      -2.802  13.331  21.019  0.00  0.00    +0.000 A 
ATOM      2  N   UNL     1      -2.265  14.243  21.896  0.00  0.00    +0.000 NA
ATOM      3  C   UNL     1      -1.009  14.369  21.526  0.00  0.00    +0.000 A 
ATOM      4  N   UNL     1      -0.691  13.577  20.441  0.00  0.00    +0.000 N 
ATOM      5  C   UNL     1      -1.864  12.950  20.081  0.00  0.00    +0.000 A 
ATOM      6  C   UNL     1      -1.950  12.118  18.869  0.00  0.00    +0.000 C 
ATOM      7  N   UNL     1      -1.127  10.945  19.051  0.00  0.00    +0.000 NA
ATOM      8  C   UNL     1       0.158  11.041  19.050  0.00  0.00    +0.000 C 
ATOM      9  C   UNL     1       0.903  12.355  18.991  0.00  0.00    +0.000 A 
ATOM     10  C   UNL     1       2.079  12.396  18.220  0.00  0.00    +0.000 A 
ATOM     11  C   UNL     1       2.933  13.496  18.275  0.00  0.00    +0.000 A 
ATOM     12  C   UNL     1       2.617  14.581  19.087  0.00  0.00    +0.000 A 
ATOM     13  C   UNL     1       1.430  14.583  19.823  0.00  0.00    +0.000 A 
ATOM     14  C   UNL     1       0.552  13.486  19.762  0.00  0.00    +0.000 A 
ENDROOT
BRANCH   8  15
ATOM     15  C   UNL     1       0.940   9.755  19.145  0.00  0.00    +0.000 A 
ATOM     16  C   UNL     1       1.528   9.230  17.977  0.00  0.00    +0.000 A 
ATOM     17  C   UNL     1       2.195   8.003  17.997  0.00  0.00    +0.000 A 
ATOM     18  C   UNL     1       2.334   7.305  19.191  0.00  0.00    +0.000 A 
ATOM     19  C   UNL     1       1.805   7.836  20.367  0.00  0.00    +0.000 A 
ATOM     20  C   UNL     1       1.101   9.048  20.352  0.00  0.00    +0.000 A 
ATOM     21 CL   UNL     1       0.419   9.528  21.869  0.00  0.00    +0.000 Cl
ENDBRANCH   8  15
BRANCH   1  25
ATOM     22  C   UNL     1      -6.050  11.975  20.536  0.00  0.00    +0.000 A 
ATOM     23  N   UNL     1      -6.106  11.952  21.874  0.00  0.00    +0.000 NA
ATOM     24  O   UNL     1      -4.870  12.507  22.248  0.00  0.00    +0.000 OA
ATOM     25  C   UNL     1      -4.206  12.816  21.088  0.00  0.00    +0.000 A 
ATOM     26  N   UNL     1      -4.927  12.551  20.019  0.00  0.00    +0.000 NA
BRANCH  22  28
ATOM     27  C   UNL     1      -6.525  11.111  18.238  0.00  0.00    +0.000 C 
ATOM     28  C   UNL     1      -7.063  11.326  19.653  0.00  0.00    +0.000 C 
ATOM     29  C   UNL     1      -7.507   9.986  20.253  0.00  0.00    +0.000 C 
ENDBRANCH  22  28
ENDBRANCH   1  25
TORSDOF 3
ENDMDL
MODEL 2
REMARK VINA RESULT:      -7.8      3.531      7.305
REMARK  Name = 
REMARK  5 active torsions:
REMARK  status: ('A' for Active; 'I' for Inactive)
REMARK    1  A    between atoms: C_1  and  C_2
REMARK    2  A    between atoms: C_2  and  C_3
REMARK    3  A    between atoms: C_2  and  C_4
REMARK    4  A    between atoms: C_7  and  C_8
REMARK    5  A    between atoms: C_15  and  C_16
REMARK                            x       y       z     vdW  Elec       q    Type
REMARK                         _______ _______ _______ _____ _____    ______ ____
ROOT
ATOM      1  C   UNL     1       1.149   8.836  20.715  0.00  0.00    +0.000 A 
ATOM      2  N   UNL     1       1.206   8.591  22.066  0.00  0.00    +0.000 NA
ATOM      3  C   UNL     1       0.465   9.531  22.611  0.00  0.00    +0.000 A 
ATOM      4  N   UNL     1      -0.080  10.389  21.678  0.00  0.00    +0.000 N 
ATOM      5  C   UNL     1       0.318   9.906  20.450  0.00  0.00    +0.000 A 
ATOM      6  C   UNL     1      -0.184  10.489  19.196  0.00  0.00    +0.000 C 
ATOM      7  N   UNL     1       0.326  11.835  19.071  0.00  0.00    +0.000 NA
ATOM      8  C   UNL     1      -0.114  12.774  19.835  0.00  0.00    +0.000 C 
ATOM      9  C   UNL     1      -1.075  12.547  20.978  0.00  0.00    +0.000 A 
ATOM     10  C   UNL     1      -2.067  13.523  21.191  0.00  0.00    +0.000 A 
ATOM     11  C   UNL     1      -2.859  13.499  22.339  0.00  0.00    +0.000 A 
ATOM     12  C   UNL     1      -2.686  12.492  23.282  0.00  0.00    +0.000 A 
ATOM     13  C   UNL     1      -1.742  11.485  23.068  0.00  0.00    +0.000 A 
ATOM     14  C   UNL     1      -0.949  11.489  21.906  0.00  0.00    +0.000 A 
ENDROOT
BRANCH   8  15
ATOM     15  C   UNL     1       0.399  14.168  19.570  0.00  0.00    +0.000 A 
ATOM     16  C   UNL     1      -0.388  15.046  18.799  0.00  0.00    +0.000 A 
ATOM     17  C   UNL     1       0.076  16.319  18.461  0.00  0.00    +0.000 A 
ATOM     18  C   UNL     1       1.310  16.757  18.928  0.00  0.00    +0.000 A 
ATOM     19  C   UNL     1       2.079  15.921  19.736  0.00  0.00    +0.000 A 
ATOM     20  C   UNL     1       1.639  14.628  20.052  0.00  0.00    +0.000 A 
ATOM     21 CL   UNL     1       2.747  13.674  20.980  0.00  0.00    +0.000 Cl
ENDBRANCH   8  15
BRANCH   1  25
ATOM     22  C   UNL     1       2.717   6.451  18.599  0.00  0.00    +0.000 A 
ATOM     23  N   UNL     1       2.877   7.482  17.760  0.00  0.00    +0.000 NA
ATOM     24  O   UNL     1       2.324   8.557  18.476  0.00  0.00    +0.000 OA
ATOM     25  C   UNL     1       1.899   8.055  19.681  0.00  0.00    +0.000 A 
ATOM     26  N   UNL     1       2.176   6.775  19.808  0.00  0.00    +0.000 NA
BRANCH  22  28
ATOM     27  C   UNL     1       1.732   4.330  17.712  0.00  0.00    +0.000 C 
ATOM     28  C   UNL     1       2.989   5.031  18.229  0.00  0.00    +0.000 C 
ATOM     29  C   UNL     1       4.097   4.963  17.170  0.00  0.00    +0.000 C 
ENDBRANCH  22  28
ENDBRANCH   1  25
TORSDOF 3
ENDMDL
MODEL 3
REMARK VINA RESULT:      -7.7      1.047      1.208
REMARK  Name = 
REMARK  5 active torsions:
REMARK  status: ('A' for Active; 'I' for Inactive)
REMARK    1  A    between atoms: C_1  and  C_2
REMARK    2  A    between atoms: C_2  and  C_3
REMARK    3  A    between atoms: C_2  and  C_4
REMARK    4  A    between atoms: C_7  and  C_8
REMARK    5  A    between atoms: C_15  and  C_16
REMARK                            x       y       z     vdW  Elec       q    Type
REMARK                         _______ _______ _______ _____ _____    ______ ____
ROOT
ATOM      1  C   UNL     1      -3.222  13.112  21.888  0.00  0.00    +0.000 A 
ATOM      2  N   UNL     1      -2.831  13.674  23.080  0.00  0.00    +0.000 NA
ATOM      3  C   UNL     1      -1.533  13.850  22.961  0.00  0.00    +0.000 A 
ATOM      4  N   UNL     1      -1.047  13.426  21.740  0.00  0.00    +0.000 N 
ATOM      5  C   UNL     1      -2.148  13.001  21.028  0.00  0.00    +0.000 A 
ATOM      6  C   UNL     1      -2.042  12.598  19.617  0.00  0.00    +0.000 C 
ATOM      7  N   UNL     1      -1.255  11.389  19.536  0.00  0.00    +0.000 NA
ATOM      8  C   UNL     1       0.014  11.419  19.757  0.00  0.00    +0.000 C 
ATOM      9  C   UNL     1       0.756  12.647  20.231  0.00  0.00    +0.000 A 
ATOM     10  C   UNL     1       2.039  12.872  19.697  0.00  0.00    +0.000 A 
ATOM     11  C   UNL     1       2.871  13.856  20.227  0.00  0.00    +0.000 A 
ATOM     12  C   UNL     1       2.430  14.645  21.285  0.00  0.00    +0.000 A 
ATOM     13  C   UNL     1       1.143  14.472  21.798  0.00  0.00    +0.000 A 
ATOM     14  C   UNL     1       0.287  13.493  21.261  0.00  0.00    +0.000 A 
ENDROOT
BRANCH   8  15
ATOM     15  C   UNL     1       0.774  10.132  19.552  0.00  0.00    +0.000 A 
ATOM     16  C   UNL     1       1.256   9.825  18.265  0.00  0.00    +0.000 A 
ATOM     17  C   UNL     1       1.897   8.611  18.007  0.00  0.00    +0.000 A 
ATOM     18  C   UNL     1       2.115   7.706  19.039  0.00  0.00    +0.000 A 
ATOM     19  C   UNL     1       1.693   8.017  20.331  0.00  0.00    +0.000 A 
ATOM     20  C   UNL     1       1.015   9.215  20.594  0.00  0.00    +0.000 A 
ATOM     21 CL   UNL     1       0.466   9.415  22.224  0.00  0.00    +0.000 Cl
ENDBRANCH   8  15
BRANCH   1  25
ATOM     22  C   UNL     1      -6.331  12.067  20.523  0.00  0.00    +0.000 A 
ATOM     23  N   UNL     1      -6.644  11.759  21.787  0.00  0.00    +0.000 NA
ATOM     24  O   UNL     1      -5.498  12.153  22.498  0.00  0.00    +0.000 OA
ATOM     25  C   UNL     1      -4.619  12.669  21.580  0.00  0.00    +0.000 A 
ATOM     26  N   UNL     1      -5.123  12.679  20.364  0.00  0.00    +0.000 NA
BRANCH  22  28
ATOM     27  C   UNL     1      -7.551  12.892  18.502  0.00  0.00    +0.000 C 
ATOM     28  C   UNL     1      -7.162  11.678  19.345  0.00  0.00    +0.000 C 
ATOM     29  C   UNL     1      -6.409  10.660  18.479  0.00  0.00    +0.000 C 
ENDBRANCH  22  28
ENDBRANCH   1  25
TORSDOF 3
ENDMDL
MODEL 4
REMARK VINA RESULT:      -7.5      3.268      7.851
REMARK  Name = 
REMARK  5 active torsions:
REMARK  status: ('A' for Active; 'I' for Inactive)
REMARK    1  A    between atoms: C_1  and  C_2
REMARK    2  A    between atoms: C_2  and  C_3
REMARK    3  A    between atoms: C_2  and  C_4
REMARK    4  A    between atoms: C_7  and  C_8
REMARK    5  A    between atoms: C_15  and  C_16
REMARK                            x       y       z     vdW  Elec       q    Type
REMARK                         _______ _______ _______ _____ _____    ______ ____
ROOT
ATOM      1  C   UNL     1      -2.334  10.805  18.500  0.00  0.00    +0.000 A 
ATOM      2  N   UNL     1      -2.922  10.033  17.527  0.00  0.00    +0.000 NA
ATOM      3  C   UNL     1      -4.095  10.590  17.317  0.00  0.00    +0.000 A 
ATOM      4  N   UNL     1      -4.309  11.697  18.112  0.00  0.00    +0.000 N 
ATOM      5  C   UNL     1      -3.149  11.867  18.835  0.00  0.00    +0.000 A 
ATOM      6  C   UNL     1      -2.949  13.038  19.704  0.00  0.00    +0.000 C 
ATOM      7  N   UNL     1      -3.879  12.963  20.807  0.00  0.00    +0.000 NA
ATOM      8  C   UNL     1      -5.138  13.158  20.615  0.00  0.00    +0.000 C 
ATOM      9  C   UNL     1      -5.761  13.350  19.252  0.00  0.00    +0.000 A 
ATOM     10  C   UNL     1      -6.803  14.289  19.144  0.00  0.00    +0.000 A 
ATOM     11  C   UNL     1      -7.567  14.380  17.982  0.00  0.00    +0.000 A 
ATOM     12  C   UNL     1      -7.291  13.548  16.901  0.00  0.00    +0.000 A 
ATOM     13  C   UNL     1      -6.231  12.642  16.968  0.00  0.00    +0.000 A 
ATOM     14  C   UNL     1      -5.442  12.553  18.129  0.00  0.00    +0.000 A 
ENDROOT
BRANCH   8  15
ATOM     15  C   UNL     1      -6.024  13.161  21.837  0.00  0.00    +0.000 A 
ATOM     16  C   UNL     1      -5.804  14.133  22.832  0.00  0.00    +0.000 A 
ATOM     17  C   UNL     1      -6.544  14.130  24.016  0.00  0.00    +0.000 A 
ATOM     18  C   UNL     1      -7.552  13.192  24.205  0.00  0.00    +0.000 A 
ATOM     19  C   UNL     1      -7.820  12.256  23.206  0.00  0.00    +0.000 A 
ATOM     20  C   UNL     1      -7.058  12.226  22.030  0.00  0.00    +0.000 A 
ATOM     21 CL   UNL     1      -7.443  10.946  20.929  0.00  0.00    +0.000 Cl
ENDBRANCH   8  15
BRANCH   1  25
ATOM     22  C   UNL     1       0.477   9.823  20.439  0.00  0.00    +0.000 A 
ATOM     23  N   UNL     1       1.186  10.144  19.350  0.00  0.00    +0.000 NA
ATOM     24  O   UNL     1       0.202  10.602  18.458  0.00  0.00    +0.000 OA
ATOM     25  C   UNL     1      -1.000  10.518  19.116  0.00  0.00    +0.000 A 
ATOM     26  N   UNL     1      -0.857  10.093  20.354  0.00  0.00    +0.000 NA
BRANCH  22  28
ATOM     27  C   UNL     1       0.212   9.350  22.880  0.00  0.00    +0.000 C 
ATOM     28  C   UNL     1       1.049   9.116  21.622  0.00  0.00    +0.000 C 
ATOM     29  C   UNL     1       1.157   7.612  21.339  0.00  0.00    +0.000 C 
ENDBRANCH  22  28
ENDBRANCH   1  25
TORSDOF 3
ENDMDL
MODEL 5
REMARK VINA RESULT:      -7.4      3.437      7.243
REMARK  Name = 
REMARK  5 active torsions:
REMARK  status: ('A' for Active; 'I' for Inactive)
REMARK    1  A    between atoms: C_1  and  C_2
REMARK    2  A    between atoms: C_2  and  C_3
REMARK    3  A    between atoms: C_2  and  C_4
REMARK    4  A    between atoms: C_7  and  C_8
REMARK    5  A    between atoms: C_15  and  C_16
REMARK                            x       y       z     vdW  Elec       q    Type
REMARK                         _______ _______ _______ _____ _____    ______ ____
ROOT
ATOM      1  C   UNL     1       2.135   7.988  18.753  0.00  0.00    +0.000 A 
ATOM      2  N   UNL     1       2.954   8.303  17.695  0.00  0.00    +0.000 NA
ATOM      3  C   UNL     1       2.816   9.601  17.536  0.00  0.00    +0.000 A 
ATOM      4  N   UNL     1       1.938  10.159  18.443  0.00  0.00    +0.000 N 
ATOM      5  C   UNL     1       1.542   9.125  19.263  0.00  0.00    +0.000 A 
ATOM      6  C   UNL     1       0.700   9.363  20.447  0.00  0.00    +0.000 C 
ATOM      7  N   UNL     1      -0.605   9.800  20.009  0.00  0.00    +0.000 NA
ATOM      8  C   UNL     1      -0.765  10.973  19.500  0.00  0.00    +0.000 C 
ATOM      9  C   UNL     1       0.373  11.923  19.203  0.00  0.00    +0.000 A 
ATOM     10  C   UNL     1       0.152  13.291  19.446  0.00  0.00    +0.000 A 
ATOM     11  C   UNL     1       1.064  14.251  19.010  0.00  0.00    +0.000 A 
ATOM     12  C   UNL     1       2.219  13.860  18.340  0.00  0.00    +0.000 A 
ATOM     13  C   UNL     1       2.482  12.505  18.130  0.00  0.00    +0.000 A 
ATOM     14  C   UNL     1       1.578  11.525  18.581  0.00  0.00    +0.000 A 
ENDROOT
BRANCH   8  15
ATOM     15  C   UNL     1      -2.176  11.387  19.164  0.00  0.00    +0.000 A 
ATOM     16  C   UNL     1      -2.882  12.196  20.076  0.00  0.00    +0.000 A 
ATOM     17  C   UNL     1      -4.216  12.540  19.848  0.00  0.00    +0.000 A 
ATOM     18  C   UNL     1      -4.852  12.129  18.682  0.00  0.00    +0.000 A 
ATOM     19  C   UNL     1      -4.152  11.373  17.743  0.00  0.00    +0.000 A 
ATOM     20  C   UNL     1      -2.824  10.989  17.979  0.00  0.00    +0.000 A 
ATOM     21 CL   UNL     1      -2.120   9.969  16.769  0.00  0.00    +0.000 Cl
ENDBRANCH   8  15
BRANCH   1  25
ATOM     22  C   UNL     1       1.839   4.503  19.376  0.00  0.00    +0.000 A 
ATOM     23  N   UNL     1       1.663   4.870  20.651  0.00  0.00    +0.000 NA
ATOM     24  O   UNL     1       1.717   6.272  20.584  0.00  0.00    +0.000 OA
ATOM     25  C   UNL     1       1.910   6.599  19.265  0.00  0.00    +0.000 A 
ATOM     26  N   UNL     1       1.935   5.535  18.490  0.00  0.00    +0.000 NA
BRANCH  22  28
ATOM     27  C   UNL     1       0.723   2.307  18.939  0.00  0.00    +0.000 C 
ATOM     28  C   UNL     1       2.037   3.089  18.940  0.00  0.00    +0.000 C 
ATOM     29  C   UNL     1       2.670   3.049  17.543  0.00  0.00    +0.000 C 
ENDBRANCH  22  28
ENDBRANCH   1  25
TORSDOF 3
ENDMDL
MODEL 6
REMARK VINA RESULT:      -7.4      6.659      9.086
REMARK  Name = 
REMARK  5 active torsions:
REMARK  status: ('A' for Active; 'I' for Inactive)
REMARK    1  A    between atoms: C_1  and  C_2
REMARK    2  A    between atoms: C_2  and  C_3
REMARK    3  A    between atoms: C_2  and  C_4
REMARK    4  A    between atoms: C_7  and  C_8
REMARK    5  A    between atoms: C_15  and  C_16
REMARK                            x       y       z     vdW  Elec       q    Type
REMARK                         _______ _______ _______ _____ _____    ______ ____
ROOT
ATOM      1  C   UNL     1       5.023  15.616  19.279  0.00  0.00    +0.000 A 
ATOM      2  N   UNL     1       5.059  16.754  20.048  0.00  0.00    +0.000 NA
ATOM      3  C   UNL     1       6.245  17.276  19.824  0.00  0.00    +0.000 A 
ATOM      4  N   UNL     1       6.996  16.530  18.938  0.00  0.00    +0.000 N 
ATOM      5  C   UNL     1       6.185  15.489  18.545  0.00  0.00    +0.000 A 
ATOM      6  C   UNL     1       6.598  14.547  17.492  0.00  0.00    +0.000 C 
ATOM      7  N   UNL     1       7.720  13.774  17.973  0.00  0.00    +0.000 NA
ATOM      8  C   UNL     1       8.877  14.322  18.118  0.00  0.00    +0.000 C 
ATOM      9  C   UNL     1       9.138  15.798  17.930  0.00  0.00    +0.000 A 
ATOM     10  C   UNL     1      10.350  16.167  17.318  0.00  0.00    +0.000 A 
ATOM     11  C   UNL     1      10.763  17.498  17.293  0.00  0.00    +0.000 A 
ATOM     12  C   UNL     1       9.964  18.485  17.861  0.00  0.00    +0.000 A 
ATOM     13  C   UNL     1       8.734  18.148  18.431  0.00  0.00    +0.000 A 
ATOM     14  C   UNL     1       8.299  16.811  18.447  0.00  0.00    +0.000 A 
ENDROOT
BRANCH   8  15
ATOM     15  C   UNL     1      10.014  13.419  18.528  0.00  0.00    +0.000 A 
ATOM     16  C   UNL     1      10.561  12.539  17.574  0.00  0.00    +0.000 A 
ATOM     17  C   UNL     1      11.561  11.629  17.924  0.00  0.00    +0.000 A 
ATOM     18  C   UNL     1      12.070  11.618  19.217  0.00  0.00    +0.000 A 
ATOM     19  C   UNL     1      11.578  12.518  20.161  0.00  0.00    +0.000 A 
ATOM     20  C   UNL     1      10.548  13.410  19.831  0.00  0.00    +0.000 A 
ATOM     21 CL   UNL     1       9.974  14.396  21.134  0.00  0.00    +0.000 Cl
ENDBRANCH   8  15
BRANCH   1  25
ATOM     22  C   UNL     1       2.103  13.650  19.759  0.00  0.00    +0.000 A 
ATOM     23  N   UNL     1       2.364  13.182  18.532  0.00  0.00    +0.000 NA
ATOM     24  O   UNL     1       3.551  13.851  18.188  0.00  0.00    +0.000 OA
ATOM     25  C   UNL     1       3.883  14.645  19.257  0.00  0.00    +0.000 A 
ATOM     26  N   UNL     1       3.041  14.502  20.259  0.00  0.00    +0.000 NA
BRANCH  22  28
ATOM     27  C   UNL     1       0.725  11.901  20.898  0.00  0.00    +0.000 C 
ATOM     28  C   UNL     1       0.836  13.372  20.499  0.00  0.00    +0.000 C 
ATOM     29  C   UNL     1       0.748  14.261  21.746  0.00  0.00    +0.000 C 
ENDBRANCH  22  28
ENDBRANCH   1  25
TORSDOF 3
ENDMDL
MODEL 7
REMARK VINA RESULT:      -7.4      3.963      6.931
REMARK  Name = 
REMARK  5 active torsions:
REMARK  status: ('A' for Active; 'I' for Inactive)
REMARK    1  A    between atoms: C_1  and  C_2
REMARK    2  A    between atoms: C_2  and  C_3
REMARK    3  A    between atoms: C_2  and  C_4
REMARK    4  A    between atoms: C_7  and  C_8
REMARK    5  A    between atoms: C_15  and  C_16
REMARK                            x       y       z     vdW  Elec       q    Type
REMARK                         _______ _______ _______ _____ _____    ______ ____
ROOT
ATOM      1  C   UNL     1       1.249   8.857  20.811  0.00  0.00    +0.000 A 
ATOM      2  N   UNL     1       1.014   8.808  22.164  0.00  0.00    +0.000 NA
ATOM      3  C   UNL     1       0.571  10.006  22.474  0.00  0.00    +0.000 A 
ATOM      4  N   UNL     1       0.503  10.849  21.382  0.00  0.00    +0.000 N 
ATOM      5  C   UNL     1       0.889  10.088  20.300  0.00  0.00    +0.000 A 
ATOM      6  C   UNL     1       0.815  10.612  18.927  0.00  0.00    +0.000 C 
ATOM      7  N   UNL     1       1.771  11.685  18.786  0.00  0.00    +0.000 NA
ATOM      8  C   UNL     1       1.574  12.818  19.367  0.00  0.00    +0.000 C 
ATOM      9  C   UNL     1       0.433  13.086  20.321  0.00  0.00    +0.000 A 
ATOM     10  C   UNL     1      -0.180  14.351  20.255  0.00  0.00    +0.000 A 
ATOM     11  C   UNL     1      -1.094  14.754  21.227  0.00  0.00    +0.000 A 
ATOM     12  C   UNL     1      -1.425  13.895  22.270  0.00  0.00    +0.000 A 
ATOM     13  C   UNL     1      -0.866  12.617  22.328  0.00  0.00    +0.000 A 
ATOM     14  C   UNL     1       0.045  12.192  21.343  0.00  0.00    +0.000 A 
ENDROOT
BRANCH   8  15
ATOM     15  C   UNL     1       2.571  13.915  19.085  0.00  0.00    +0.000 A 
ATOM     16  C   UNL     1       2.592  14.500  17.803  0.00  0.00    +0.000 A 
ATOM     17  C   UNL     1       3.547  15.463  17.468  0.00  0.00    +0.000 A 
ATOM     18  C   UNL     1       4.461  15.897  18.420  0.00  0.00    +0.000 A 
ATOM     19  C   UNL     1       4.420  15.368  19.709  0.00  0.00    +0.000 A 
ATOM     20  C   UNL     1       3.491  14.374  20.046  0.00  0.00    +0.000 A 
ATOM     21 CL   UNL     1       3.627  13.744  21.654  0.00  0.00    +0.000 Cl
ENDBRANCH   8  15
BRANCH   1  25
ATOM     22  C   UNL     1       2.264   5.799  19.313  0.00  0.00    +0.000 A 
ATOM     23  N   UNL     1       2.736   6.578  18.331  0.00  0.00    +0.000 NA
ATOM     24  O   UNL     1       2.440   7.873  18.790  0.00  0.00    +0.000 OA
ATOM     25  C   UNL     1       1.830   7.732  20.011  0.00  0.00    +0.000 A 
ATOM     26  N   UNL     1       1.756   6.472  20.384  0.00  0.00    +0.000 NA
BRANCH  22  28
ATOM     27  C   UNL     1       1.064   3.754  20.108  0.00  0.00    +0.000 C 
ATOM     28  C   UNL     1       2.179   4.312  19.223  0.00  0.00    +0.000 C 
ATOM     29  C   UNL     1       1.954   3.882  17.767  0.00  0.00    +0.000 C 
ENDBRANCH  22  28
ENDBRANCH   1  25
TORSDOF 3
ENDMDL
MODEL 8
REMARK VINA RESULT:      -7.3      3.247      7.794
REMARK  Name = 
REMARK  5 active torsions:
REMARK  status: ('A' for Active; 'I' for Inactive)
REMARK    1  A    between atoms: C_1  and  C_2
REMARK    2  A    between atoms: C_2  and  C_3
REMARK    3  A    between atoms: C_2  and  C_4
REMARK    4  A    between atoms: C_7  and  C_8
REMARK    5  A    between atoms: C_15  and  C_16
REMARK                            x       y       z     vdW  Elec       q    Type
REMARK                         _______ _______ _______ _____ _____    ______ ____
ROOT
ATOM      1  C   UNL     1      -2.390  10.685  18.288  0.00  0.00    +0.000 A 
ATOM      2  N   UNL     1      -3.039   9.985  17.299  0.00  0.00    +0.000 NA
ATOM      3  C   UNL     1      -4.191  10.603  17.148  0.00  0.00    +0.000 A 
ATOM      4  N   UNL     1      -4.332  11.682  17.997  0.00  0.00    +0.000 N 
ATOM      5  C   UNL     1      -3.146  11.767  18.693  0.00  0.00    +0.000 A 
ATOM      6  C   UNL     1      -2.869  12.887  19.606  0.00  0.00    +0.000 C 
ATOM      7  N   UNL     1      -3.772  12.804  20.731  0.00  0.00    +0.000 NA
ATOM      8  C   UNL     1      -5.025  13.064  20.585  0.00  0.00    +0.000 C 
ATOM      9  C   UNL     1      -5.675  13.345  19.250  0.00  0.00    +0.000 A 
ATOM     10  C   UNL     1      -6.675  14.334  19.214  0.00  0.00    +0.000 A 
ATOM     11  C   UNL     1      -7.465  14.512  18.079  0.00  0.00    +0.000 A 
ATOM     12  C   UNL     1      -7.257  13.718  16.956  0.00  0.00    +0.000 A 
ATOM     13  C   UNL     1      -6.238  12.763  16.952  0.00  0.00    +0.000 A 
ATOM     14  C   UNL     1      -5.423  12.586  18.085  0.00  0.00    +0.000 A 
ENDROOT
BRANCH   8  15
ATOM     15  C   UNL     1      -5.876  13.052  21.830  0.00  0.00    +0.000 A 
ATOM     16  C   UNL     1      -6.885  12.076  21.954  0.00  0.00    +0.000 A 
ATOM     17  C   UNL     1      -7.750  12.071  23.050  0.00  0.00    +0.000 A 
ATOM     18  C   UNL     1      -7.591  13.005  24.067  0.00  0.00    +0.000 A 
ATOM     19  C   UNL     1      -6.564  13.944  23.988  0.00  0.00    +0.000 A 
ATOM     20  C   UNL     1      -5.713  13.983  22.874  0.00  0.00    +0.000 A 
ATOM     21 CL   UNL     1      -4.551  15.267  22.872  0.00  0.00    +0.000 Cl
ENDBRANCH   8  15
BRANCH   1  25
ATOM     22  C   UNL     1       0.434   9.645  20.176  0.00  0.00    +0.000 A 
ATOM     23  N   UNL     1       1.070   9.650  18.999  0.00  0.00    +0.000 NA
ATOM     24  O   UNL     1       0.076  10.088  18.108  0.00  0.00    +0.000 OA
ATOM     25  C   UNL     1      -1.055  10.310  18.853  0.00  0.00    +0.000 A 
ATOM     26  N   UNL     1      -0.851  10.099  20.136  0.00  0.00    +0.000 NA
BRANCH  22  28
ATOM     27  C   UNL     1       0.064   9.241  22.617  0.00  0.00    +0.000 C 
ATOM     28  C   UNL     1       1.016   9.083  21.431  0.00  0.00    +0.000 C 
ATOM     29  C   UNL     1       1.365   7.602  21.235  0.00  0.00    +0.000 C 
ENDBRANCH  22  28
ENDBRANCH   1  25
TORSDOF 3
ENDMDL
MODEL 9
REMARK VINA RESULT:      -7.3      3.939      7.493
REMARK  Name = 
REMARK  5 active torsions:
REMARK  status: ('A' for Active; 'I' for Inactive)
REMARK    1  A    between atoms: C_1  and  C_2
REMARK    2  A    between atoms: C_2  and  C_3
REMARK    3  A    between atoms: C_2  and  C_4
REMARK    4  A    between atoms: C_7  and  C_8
REMARK    5  A    between atoms: C_15  and  C_16
REMARK                            x       y       z     vdW  Elec       q    Type
REMARK                         _______ _______ _______ _____ _____    ______ ____
ROOT
ATOM      1  C   UNL     1       1.419   8.544  20.443  0.00  0.00    +0.000 A 
ATOM      2  N   UNL     1       1.248   8.068  21.721  0.00  0.00    +0.000 NA
ATOM      3  C   UNL     1       0.594   9.019  22.351  0.00  0.00    +0.000 A 
ATOM      4  N   UNL     1       0.325  10.106  21.544  0.00  0.00    +0.000 N 
ATOM      5  C   UNL     1       0.811   9.774  20.298  0.00  0.00    +0.000 A 
ATOM      6  C   UNL     1       0.587  10.641  19.130  0.00  0.00    +0.000 C 
ATOM      7  N   UNL     1       1.313  11.875  19.320  0.00  0.00    +0.000 NA
ATOM      8  C   UNL     1       0.923  12.736  20.196  0.00  0.00    +0.000 C 
ATOM      9  C   UNL     1      -0.213  12.494  21.164  0.00  0.00    +0.000 A 
ATOM     10  C   UNL     1      -1.060  13.581  21.449  0.00  0.00    +0.000 A 
ATOM     11  C   UNL     1      -1.998  13.506  22.477  0.00  0.00    +0.000 A 
ATOM     12  C   UNL     1      -2.119  12.339  23.225  0.00  0.00    +0.000 A 
ATOM     13  C   UNL     1      -1.322  11.231  22.927  0.00  0.00    +0.000 A 
ATOM     14  C   UNL     1      -0.384  11.289  21.881  0.00  0.00    +0.000 A 
ENDROOT
BRANCH   8  15
ATOM     15  C   UNL     1       1.679  14.039  20.259  0.00  0.00    +0.000 A 
ATOM     16  C   UNL     1       2.827  14.120  21.072  0.00  0.00    +0.000 A 
ATOM     17  C   UNL     1       3.516  15.325  21.225  0.00  0.00    +0.000 A 
ATOM     18  C   UNL     1       3.105  16.456  20.529  0.00  0.00    +0.000 A 
ATOM     19  C   UNL     1       2.004  16.380  19.678  0.00  0.00    +0.000 A 
ATOM     20  C   UNL     1       1.282  15.186  19.545  0.00  0.00    +0.000 A 
ATOM     21 CL   UNL     1      -0.119  15.274  18.530  0.00  0.00    +0.000 Cl
ENDBRANCH   8  15
BRANCH   1  25
ATOM     22  C   UNL     1       2.943   6.296  18.152  0.00  0.00    +0.000 A 
ATOM     23  N   UNL     1       3.231   7.399  17.450  0.00  0.00    +0.000 NA
ATOM     24  O   UNL     1       2.712   8.427  18.256  0.00  0.00    +0.000 OA
ATOM     25  C   UNL     1       2.176   7.827  19.368  0.00  0.00    +0.000 A 
ATOM     26  N   UNL     1       2.350   6.523  19.359  0.00  0.00    +0.000 NA
BRANCH  22  28
ATOM     27  C   UNL     1       4.263   4.182  18.365  0.00  0.00    +0.000 C 
ATOM     28  C   UNL     1       3.134   4.909  17.634  0.00  0.00    +0.000 C 
ATOM     29  C   UNL     1       1.830   4.112  17.761  0.00  0.00    +0.000 C 
ENDBRANCH  22  28
ENDBRANCH   1  25
TORSDOF 3
ENDMDL
