MODEL 1
REMARK VINA RESULT:      -9.9      0.000      0.000
REMARK  Name = 
REMARK  2 active torsions:
REMARK  status: ('A' for Active; 'I' for Inactive)
REMARK    1  A    between atoms: C_2  and  C_4
REMARK    2  A    between atoms: C_7  and  C_8
REMARK                            x       y       z     vdW  Elec       q    Type
REMARK                         _______ _______ _______ _____ _____    ______ ____
ROOT
ATOM      1  C   UNL     1       2.643   6.229  19.417  0.00  0.00    +0.000 C 
ATOM      2  C   UNL     1       3.497   5.904  18.422  0.00  0.00    +0.000 C 
ATOM      3  C   UNL     1       3.826   4.478  18.114  0.00  0.00    +0.000 C 
ATOM      4  C   UNL     1       4.280   4.204  16.685  0.00  0.00    +0.000 C 
ATOM      5  C   UNL     1       5.628   4.793  16.345  0.00  0.00    +0.000 C 
ATOM      6  N   UNL     1       6.650   4.375  17.298  0.00  0.00    +0.000 NA
ATOM      7  C   UNL     1       6.287   4.725  18.670  0.00  0.00    +0.000 C 
ATOM      8  C   UNL     1       4.965   4.052  19.082  0.00  0.00    +0.000 C 
ATOM      9  O   UNL     1       2.590   3.713  18.122  0.00  0.00    +0.000 OA
ATOM     10  C   UNL     1       1.651   4.028  19.111  0.00  0.00    +0.000 A 
ATOM     11  C   UNL     1       0.927   2.884  19.431  0.00  0.00    +0.000 A 
ATOM     12  C   UNL     1       1.180   2.354  20.678  0.00  0.00    +0.000 A 
ATOM     13  C   UNL     1       1.961   3.103  21.567  0.00  0.00    +0.000 A 
ATOM     14  C   UNL     1       2.313   4.452  21.284  0.00  0.00    +0.000 A 
ATOM     15  C   UNL     1       2.037   5.004  20.028  0.00  0.00    +0.000 A 
ATOM     16  H   UNL     1       7.537   4.817  17.054  0.00  0.00    +0.000 HD
ENDROOT
BRANCH   1  20
ATOM     17  C   UNL     1       0.630   9.991  18.894  0.00  0.00    +0.000 A 
ATOM     18  C   UNL     1       0.758   9.430  20.172  0.00  0.00    +0.000 A 
ATOM     19  C   UNL     1       1.560   8.286  20.381  0.00  0.00    +0.000 A 
ATOM     20  C   UNL     1       2.232   7.681  19.318  0.00  0.00    +0.000 A 
ATOM     21  C   UNL     1       2.151   8.271  18.048  0.00  0.00    +0.000 A 
ATOM     22  C   UNL     1       1.363   9.410  17.841  0.00  0.00    +0.000 A 
BRANCH  17  24
ATOM     23  N   UNL     1      -1.238  10.951  17.592  0.00  0.00    +0.000 N 
ATOM     24  C   UNL     1      -0.285  11.130  18.556  0.00  0.00    +0.000 C 
ATOM     25  O   UNL     1      -0.193  12.212  19.128  0.00  0.00    +0.000 OA
ATOM     26  H   UNL     1      -1.850  11.737  17.412  0.00  0.00    +0.000 HD
ATOM     27  H   UNL     1      -1.427  10.083  17.121  0.00  0.00    +0.000 HD
ENDBRANCH  17  24
ENDBRANCH   1  20
TORSDOF 2
ENDMDL
MODEL 2
REMARK VINA RESULT:      -9.6      1.779      3.888
REMARK  Name = 
REMARK  2 active torsions:
REMARK  status: ('A' for Active; 'I' for Inactive)
REMARK    1  A    between atoms: C_2  and  C_4
REMARK    2  A    between atoms: C_7  and  C_8
REMARK                            x       y       z     vdW  Elec       q    Type
REMARK                         _______ _______ _______ _____ _____    ______ ____
ROOT
ATOM      1  C   UNL     1       3.609   6.126  18.209  0.00  0.00    +0.000 C 
ATOM      2  C   UNL     1       3.144   5.085  18.933  0.00  0.00    +0.000 C 
ATOM      3  C   UNL     1       3.834   3.759  18.922  0.00  0.00    +0.000 C 
ATOM      4  C   UNL     1       3.612   2.894  20.158  0.00  0.00    +0.000 C 
ATOM      5  C   UNL     1       2.201   2.378  20.302  0.00  0.00    +0.000 C 
ATOM      6  N   UNL     1       1.762   1.678  19.099  0.00  0.00    +0.000 NA
ATOM      7  C   UNL     1       1.863   2.525  17.912  0.00  0.00    +0.000 C 
ATOM      8  C   UNL     1       3.314   2.982  17.680  0.00  0.00    +0.000 C 
ATOM      9  O   UNL     1       5.264   3.988  19.046  0.00  0.00    +0.000 OA
ATOM     10  C   UNL     1       5.799   5.073  18.343  0.00  0.00    +0.000 A 
ATOM     11  C   UNL     1       7.115   4.785  17.995  0.00  0.00    +0.000 A 
ATOM     12  C   UNL     1       7.338   4.569  16.653  0.00  0.00    +0.000 A 
ATOM     13  C   UNL     1       6.299   4.853  15.757  0.00  0.00    +0.000 A 
ATOM     14  C   UNL     1       5.125   5.536  16.182  0.00  0.00    +0.000 A 
ATOM     15  C   UNL     1       4.905   5.781  17.542  0.00  0.00    +0.000 A 
ATOM     16  H   UNL     1       0.796   1.373  19.222  0.00  0.00    +0.000 HD
ENDROOT
BRANCH   1  20
ATOM     17  C   UNL     1       0.937   9.385  19.052  0.00  0.00    +0.000 A 
ATOM     18  C   UNL     1       1.238   8.444  20.046  0.00  0.00    +0.000 A 
ATOM     19  C   UNL     1       2.240   7.470  19.838  0.00  0.00    +0.000 A 
ATOM     20  C   UNL     1       2.944   7.415  18.633  0.00  0.00    +0.000 A 
ATOM     21  C   UNL     1       2.684   8.389  17.658  0.00  0.00    +0.000 A 
ATOM     22  C   UNL     1       1.696   9.360  17.866  0.00  0.00    +0.000 A 
BRANCH  17  24
ATOM     23  N   UNL     1      -0.678  10.920  17.983  0.00  0.00    +0.000 N 
ATOM     24  C   UNL     1      -0.183  10.379  19.137  0.00  0.00    +0.000 C 
ATOM     25  O   UNL     1      -0.660  10.709  20.219  0.00  0.00    +0.000 OA
ATOM     26  H   UNL     1      -1.450  11.568  18.083  0.00  0.00    +0.000 HD
ATOM     27  H   UNL     1      -0.394  10.658  17.054  0.00  0.00    +0.000 HD
ENDBRANCH  17  24
ENDBRANCH   1  20
TORSDOF 2
ENDMDL
MODEL 3
REMARK VINA RESULT:      -9.3      1.875      3.961
REMARK  Name = 
REMARK  2 active torsions:
REMARK  status: ('A' for Active; 'I' for Inactive)
REMARK    1  A    between atoms: C_2  and  C_4
REMARK    2  A    between atoms: C_7  and  C_8
REMARK                            x       y       z     vdW  Elec       q    Type
REMARK                         _______ _______ _______ _____ _____    ______ ____
ROOT
ATOM      1  C   UNL     1       3.248   6.300  18.297  0.00  0.00    +0.000 C 
ATOM      2  C   UNL     1       2.864   5.138  18.867  0.00  0.00    +0.000 C 
ATOM      3  C   UNL     1       3.792   3.969  18.953  0.00  0.00    +0.000 C 
ATOM      4  C   UNL     1       3.504   2.984  20.081  0.00  0.00    +0.000 C 
ATOM      5  C   UNL     1       2.224   2.204  19.903  0.00  0.00    +0.000 C 
ATOM      6  N   UNL     1       2.183   1.530  18.610  0.00  0.00    +0.000 NA
ATOM      7  C   UNL     1       2.349   2.471  17.504  0.00  0.00    +0.000 C 
ATOM      8  C   UNL     1       3.697   3.208  17.601  0.00  0.00    +0.000 C 
ATOM      9  O   UNL     1       5.094   4.450  19.385  0.00  0.00    +0.000 OA
ATOM     10  C   UNL     1       5.532   5.668  18.851  0.00  0.00    +0.000 A 
ATOM     11  C   UNL     1       6.921   5.659  18.779  0.00  0.00    +0.000 A 
ATOM     12  C   UNL     1       7.447   5.593  17.507  0.00  0.00    +0.000 A 
ATOM     13  C   UNL     1       6.573   5.748  16.424  0.00  0.00    +0.000 A 
ATOM     14  C   UNL     1       5.225   6.164  16.616  0.00  0.00    +0.000 A 
ATOM     15  C   UNL     1       4.693   6.256  17.907  0.00  0.00    +0.000 A 
ATOM     16  H   UNL     1       1.292   1.041  18.515  0.00  0.00    +0.000 HD
ENDROOT
BRANCH   1  20
ATOM     17  C   UNL     1       1.238   9.893  19.531  0.00  0.00    +0.000 A 
ATOM     18  C   UNL     1       1.616   9.720  18.193  0.00  0.00    +0.000 A 
ATOM     19  C   UNL     1       2.122   8.481  17.740  0.00  0.00    +0.000 A 
ATOM     20  C   UNL     1       2.269   7.406  18.619  0.00  0.00    +0.000 A 
ATOM     21  C   UNL     1       1.840   7.558  19.945  0.00  0.00    +0.000 A 
ATOM     22  C   UNL     1       1.331   8.783  20.394  0.00  0.00    +0.000 A 
BRANCH  17  24
ATOM     23  N   UNL     1      -0.002  12.026  19.391  0.00  0.00    +0.000 N 
ATOM     24  C   UNL     1       0.801  11.198  20.126  0.00  0.00    +0.000 C 
ATOM     25  O   UNL     1       1.147  11.531  21.256  0.00  0.00    +0.000 OA
ATOM     26  H   UNL     1      -0.294  12.886  19.839  0.00  0.00    +0.000 HD
ATOM     27  H   UNL     1      -0.387  11.805  18.488  0.00  0.00    +0.000 HD
ENDBRANCH  17  24
ENDBRANCH   1  20
TORSDOF 2
ENDMDL
MODEL 4
REMARK VINA RESULT:      -9.1      1.018      1.412
REMARK  Name = 
REMARK  2 active torsions:
REMARK  status: ('A' for Active; 'I' for Inactive)
REMARK    1  A    between atoms: C_2  and  C_4
REMARK    2  A    between atoms: C_7  and  C_8
REMARK                            x       y       z     vdW  Elec       q    Type
REMARK                         _______ _______ _______ _____ _____    ______ ____
ROOT
ATOM      1  C   UNL     1       2.437   6.430  19.223  0.00  0.00    +0.000 C 
ATOM      2  C   UNL     1       3.404   6.181  18.314  0.00  0.00    +0.000 C 
ATOM      3  C   UNL     1       3.970   4.808  18.137  0.00  0.00    +0.000 C 
ATOM      4  C   UNL     1       4.568   4.517  16.765  0.00  0.00    +0.000 C 
ATOM      5  C   UNL     1       5.831   5.289  16.468  0.00  0.00    +0.000 C 
ATOM      6  N   UNL     1       6.830   5.102  17.514  0.00  0.00    +0.000 NA
ATOM      7  C   UNL     1       6.316   5.478  18.829  0.00  0.00    +0.000 C 
ATOM      8  C   UNL     1       5.086   4.632  19.205  0.00  0.00    +0.000 C 
ATOM      9  O   UNL     1       2.870   3.858  18.123  0.00  0.00    +0.000 OA
ATOM     10  C   UNL     1       1.822   4.084  19.023  0.00  0.00    +0.000 A 
ATOM     11  C   UNL     1       1.261   2.863  19.382  0.00  0.00    +0.000 A 
ATOM     12  C   UNL     1       1.497   2.462  20.679  0.00  0.00    +0.000 A 
ATOM     13  C   UNL     1       2.084   3.382  21.557  0.00  0.00    +0.000 A 
ATOM     14  C   UNL     1       2.245   4.749  21.195  0.00  0.00    +0.000 A 
ATOM     15  C   UNL     1       1.983   5.167  19.886  0.00  0.00    +0.000 A 
ATOM     16  H   UNL     1       7.654   5.663  17.294  0.00  0.00    +0.000 HD
ENDROOT
BRANCH   1  20
ATOM     17  C   UNL     1       1.493  10.612  18.915  0.00  0.00    +0.000 A 
ATOM     18  C   UNL     1       1.993   9.917  17.805  0.00  0.00    +0.000 A 
ATOM     19  C   UNL     1       2.147   8.513  17.841  0.00  0.00    +0.000 A 
ATOM     20  C   UNL     1       1.817   7.788  18.988  0.00  0.00    +0.000 A 
ATOM     21  C   UNL     1       1.265   8.473  20.080  0.00  0.00    +0.000 A 
ATOM     22  C   UNL     1       1.104   9.864  20.043  0.00  0.00    +0.000 A 
BRANCH  17  24
ATOM     23  N   UNL     1       1.731  12.860  17.917  0.00  0.00    +0.000 N 
ATOM     24  C   UNL     1       1.403  12.106  19.009  0.00  0.00    +0.000 C 
ATOM     25  O   UNL     1       1.040  12.658  20.044  0.00  0.00    +0.000 OA
ATOM     26  H   UNL     1       1.633  13.863  18.015  0.00  0.00    +0.000 HD
ATOM     27  H   UNL     1       1.973  12.492  17.012  0.00  0.00    +0.000 HD
ENDBRANCH  17  24
ENDBRANCH   1  20
TORSDOF 2
ENDMDL
MODEL 5
REMARK VINA RESULT:      -8.5      1.673      2.106
REMARK  Name = 
REMARK  2 active torsions:
REMARK  status: ('A' for Active; 'I' for Inactive)
REMARK    1  A    between atoms: C_2  and  C_4
REMARK    2  A    between atoms: C_7  and  C_8
REMARK                            x       y       z     vdW  Elec       q    Type
REMARK                         _______ _______ _______ _____ _____    ______ ____
ROOT
ATOM      1  C   UNL     1       3.167   5.818  18.602  0.00  0.00    +0.000 C 
ATOM      2  C   UNL     1       4.028   6.093  17.598  0.00  0.00    +0.000 C 
ATOM      3  C   UNL     1       4.847   5.019  16.959  0.00  0.00    +0.000 C 
ATOM      4  C   UNL     1       5.296   5.299  15.529  0.00  0.00    +0.000 C 
ATOM      5  C   UNL     1       6.307   6.412  15.409  0.00  0.00    +0.000 C 
ATOM      6  N   UNL     1       7.460   6.183  16.273  0.00  0.00    +0.000 NA
ATOM      7  C   UNL     1       7.066   6.020  17.671  0.00  0.00    +0.000 C 
ATOM      8  C   UNL     1       6.113   4.823  17.840  0.00  0.00    +0.000 C 
ATOM      9  O   UNL     1       3.988   3.871  16.718  0.00  0.00    +0.000 OA
ATOM     10  C   UNL     1       3.053   3.556  17.711  0.00  0.00    +0.000 A 
ATOM     11  C   UNL     1       2.824   2.184  17.701  0.00  0.00    +0.000 A 
ATOM     12  C   UNL     1       3.321   1.495  18.786  0.00  0.00    +0.000 A 
ATOM     13  C   UNL     1       3.813   2.234  19.869  0.00  0.00    +0.000 A 
ATOM     14  C   UNL     1       3.621   3.643  19.948  0.00  0.00    +0.000 A 
ATOM     15  C   UNL     1       3.094   4.345  18.859  0.00  0.00    +0.000 A 
ATOM     16  H   UNL     1       8.104   6.971  16.188  0.00  0.00    +0.000 HD
ENDROOT
BRANCH   1  20
ATOM     17  C   UNL     1       1.329   9.572  19.602  0.00  0.00    +0.000 A 
ATOM     18  C   UNL     1       1.699   9.298  18.278  0.00  0.00    +0.000 A 
ATOM     19  C   UNL     1       2.146   8.011  17.906  0.00  0.00    +0.000 A 
ATOM     20  C   UNL     1       2.241   6.987  18.850  0.00  0.00    +0.000 A 
ATOM     21  C   UNL     1       1.819   7.242  20.163  0.00  0.00    +0.000 A 
ATOM     22  C   UNL     1       1.368   8.516  20.532  0.00  0.00    +0.000 A 
BRANCH  17  24
ATOM     23  N   UNL     1       0.431  11.846  19.241  0.00  0.00    +0.000 N 
ATOM     24  C   UNL     1       0.953  10.932  20.113  0.00  0.00    +0.000 C 
ATOM     25  O   UNL     1       1.105  11.232  21.293  0.00  0.00    +0.000 OA
ATOM     26  H   UNL     1       0.168  12.742  19.631  0.00  0.00    +0.000 HD
ATOM     27  H   UNL     1       0.211  11.664  18.276  0.00  0.00    +0.000 HD
ENDBRANCH  17  24
ENDBRANCH   1  20
TORSDOF 2
ENDMDL
MODEL 6
REMARK VINA RESULT:      -8.4      1.910      3.843
REMARK  Name = 
REMARK  2 active torsions:
REMARK  status: ('A' for Active; 'I' for Inactive)
REMARK    1  A    between atoms: C_2  and  C_4
REMARK    2  A    between atoms: C_7  and  C_8
REMARK                            x       y       z     vdW  Elec       q    Type
REMARK                         _______ _______ _______ _____ _____    ______ ____
ROOT
ATOM      1  C   UNL     1       2.759   6.543  19.109  0.00  0.00    +0.000 C 
ATOM      2  C   UNL     1       2.237   5.568  19.883  0.00  0.00    +0.000 C 
ATOM      3  C   UNL     1       2.851   4.206  19.938  0.00  0.00    +0.000 C 
ATOM      4  C   UNL     1       2.583   3.416  21.214  0.00  0.00    +0.000 C 
ATOM      5  C   UNL     1       1.145   2.989  21.382  0.00  0.00    +0.000 C 
ATOM      6  N   UNL     1       0.665   2.256  20.215  0.00  0.00    +0.000 NA
ATOM      7  C   UNL     1       0.811   3.037  18.988  0.00  0.00    +0.000 C 
ATOM      8  C   UNL     1       2.286   3.399  18.735  0.00  0.00    +0.000 C 
ATOM      9  O   UNL     1       4.292   4.358  20.051  0.00  0.00    +0.000 OA
ATOM     10  C   UNL     1       4.886   5.376  19.295  0.00  0.00    +0.000 A 
ATOM     11  C   UNL     1       6.183   4.997  18.963  0.00  0.00    +0.000 A 
ATOM     12  C   UNL     1       6.390   4.703  17.633  0.00  0.00    +0.000 A 
ATOM     13  C   UNL     1       5.368   5.002  16.724  0.00  0.00    +0.000 A 
ATOM     14  C   UNL     1       4.235   5.770  17.114  0.00  0.00    +0.000 A 
ATOM     15  C   UNL     1       4.032   6.093  18.460  0.00  0.00    +0.000 A 
ATOM     16  H   UNL     1      -0.317   2.013  20.352  0.00  0.00    +0.000 HD
ENDROOT
BRANCH   1  20
ATOM     17  C   UNL     1       0.261   9.955  19.878  0.00  0.00    +0.000 A 
ATOM     18  C   UNL     1       0.626   9.097  20.924  0.00  0.00    +0.000 A 
ATOM     19  C   UNL     1       1.579   8.074  20.720  0.00  0.00    +0.000 A 
ATOM     20  C   UNL     1       2.169   7.888  19.468  0.00  0.00    +0.000 A 
ATOM     21  C   UNL     1       1.848   8.778  18.434  0.00  0.00    +0.000 A 
ATOM     22  C   UNL     1       0.909   9.798  18.637  0.00  0.00    +0.000 A 
BRANCH  17  24
ATOM     23  N   UNL     1      -1.174  11.473  21.198  0.00  0.00    +0.000 N 
ATOM     24  C   UNL     1      -0.820  10.990  19.969  0.00  0.00    +0.000 C 
ATOM     25  O   UNL     1      -1.387  11.409  18.963  0.00  0.00    +0.000 OA
ATOM     26  H   UNL     1      -1.891  12.188  21.213  0.00  0.00    +0.000 HD
ATOM     27  H   UNL     1      -0.720  11.237  22.064  0.00  0.00    +0.000 HD
ENDBRANCH  17  24
ENDBRANCH   1  20
TORSDOF 2
ENDMDL
MODEL 7
REMARK VINA RESULT:      -8.0      1.741      2.175
REMARK  Name = 
REMARK  2 active torsions:
REMARK  status: ('A' for Active; 'I' for Inactive)
REMARK    1  A    between atoms: C_2  and  C_4
REMARK    2  A    between atoms: C_7  and  C_8
REMARK                            x       y       z     vdW  Elec       q    Type
REMARK                         _______ _______ _______ _____ _____    ______ ____
ROOT
ATOM      1  C   UNL     1       2.797   6.042  19.174  0.00  0.00    +0.000 C 
ATOM      2  C   UNL     1       3.891   6.426  18.480  0.00  0.00    +0.000 C 
ATOM      3  C   UNL     1       4.765   5.430  17.790  0.00  0.00    +0.000 C 
ATOM      4  C   UNL     1       5.562   5.965  16.605  0.00  0.00    +0.000 C 
ATOM      5  C   UNL     1       6.645   6.944  16.986  0.00  0.00    +0.000 C 
ATOM      6  N   UNL     1       7.539   6.387  17.996  0.00  0.00    +0.000 NA
ATOM      7  C   UNL     1       6.810   5.964  19.190  0.00  0.00    +0.000 C 
ATOM      8  C   UNL     1       5.765   4.887  18.848  0.00  0.00    +0.000 C 
ATOM      9  O   UNL     1       3.913   4.480  17.093  0.00  0.00    +0.000 OA
ATOM     10  C   UNL     1       2.747   4.069  17.750  0.00  0.00    +0.000 A 
ATOM     11  C   UNL     1       2.435   2.772  17.353  0.00  0.00    +0.000 A 
ATOM     12  C   UNL     1       2.609   1.802  18.315  0.00  0.00    +0.000 A 
ATOM     13  C   UNL     1       2.875   2.213  19.627  0.00  0.00    +0.000 A 
ATOM     14  C   UNL     1       2.766   3.581  20.008  0.00  0.00    +0.000 A 
ATOM     15  C   UNL     1       2.565   4.569  19.038  0.00  0.00    +0.000 A 
ATOM     16  H   UNL     1       8.236   7.088  18.250  0.00  0.00    +0.000 HD
ENDROOT
BRANCH   1  20
ATOM     17  C   UNL     1       1.106   9.783  20.446  0.00  0.00    +0.000 A 
ATOM     18  C   UNL     1       1.512   9.607  19.116  0.00  0.00    +0.000 A 
ATOM     19  C   UNL     1       1.910   8.336  18.644  0.00  0.00    +0.000 A 
ATOM     20  C   UNL     1       1.920   7.230  19.495  0.00  0.00    +0.000 A 
ATOM     21  C   UNL     1       1.462   7.389  20.811  0.00  0.00    +0.000 A 
ATOM     22  C   UNL     1       1.060   8.648  21.278  0.00  0.00    +0.000 A 
BRANCH  17  24
ATOM     23  N   UNL     1      -0.403  11.252  21.737  0.00  0.00    +0.000 N 
ATOM     24  C   UNL     1       0.778  11.109  21.064  0.00  0.00    +0.000 C 
ATOM     25  O   UNL     1       1.549  12.061  20.976  0.00  0.00    +0.000 OA
ATOM     26  H   UNL     1      -0.575  12.156  22.160  0.00  0.00    +0.000 HD
ATOM     27  H   UNL     1      -1.060  10.512  21.915  0.00  0.00    +0.000 HD
ENDBRANCH  17  24
ENDBRANCH   1  20
TORSDOF 2
ENDMDL
MODEL 8
REMARK VINA RESULT:      -7.6      1.276      1.544
REMARK  Name = 
REMARK  2 active torsions:
REMARK  status: ('A' for Active; 'I' for Inactive)
REMARK    1  A    between atoms: C_2  and  C_4
REMARK    2  A    between atoms: C_7  and  C_8
REMARK                            x       y       z     vdW  Elec       q    Type
REMARK                         _______ _______ _______ _____ _____    ______ ____
ROOT
ATOM      1  C   UNL     1       2.507   7.117  18.313  0.00  0.00    +0.000 C 
ATOM      2  C   UNL     1       3.566   6.824  17.528  0.00  0.00    +0.000 C 
ATOM      3  C   UNL     1       4.146   5.446  17.487  0.00  0.00    +0.000 C 
ATOM      4  C   UNL     1       4.887   5.085  16.204  0.00  0.00    +0.000 C 
ATOM      5  C   UNL     1       6.176   5.845  16.004  0.00  0.00    +0.000 C 
ATOM      6  N   UNL     1       7.057   5.718  17.160  0.00  0.00    +0.000 NA
ATOM      7  C   UNL     1       6.404   6.162  18.390  0.00  0.00    +0.000 C 
ATOM      8  C   UNL     1       5.140   5.332  18.676  0.00  0.00    +0.000 C 
ATOM      9  O   UNL     1       3.052   4.492  17.406  0.00  0.00    +0.000 OA
ATOM     10  C   UNL     1       1.914   4.761  18.175  0.00  0.00    +0.000 A 
ATOM     11  C   UNL     1       1.315   3.558  18.536  0.00  0.00    +0.000 A 
ATOM     12  C   UNL     1       1.410   3.229  19.870  0.00  0.00    +0.000 A 
ATOM     13  C   UNL     1       1.901   4.196  20.756  0.00  0.00    +0.000 A 
ATOM     14  C   UNL     1       2.102   5.543  20.341  0.00  0.00    +0.000 A 
ATOM     15  C   UNL     1       1.982   5.889  18.990  0.00  0.00    +0.000 A 
ATOM     16  H   UNL     1       7.900   6.270  17.000  0.00  0.00    +0.000 HD
ENDROOT
BRANCH   1  20
ATOM     17  C   UNL     1       0.707  11.018  18.192  0.00  0.00    +0.000 A 
ATOM     18  C   UNL     1       2.101  10.883  18.163  0.00  0.00    +0.000 A 
ATOM     19  C   UNL     1       2.701   9.611  18.031  0.00  0.00    +0.000 A 
ATOM     20  C   UNL     1       1.918   8.458  17.941  0.00  0.00    +0.000 A 
ATOM     21  C   UNL     1       0.522   8.594  17.914  0.00  0.00    +0.000 A 
ATOM     22  C   UNL     1      -0.074   9.856  18.037  0.00  0.00    +0.000 A 
BRANCH  17  24
ATOM     23  N   UNL     1      -0.794  12.835  17.451  0.00  0.00    +0.000 N 
ATOM     24  C   UNL     1      -0.015  12.309  18.443  0.00  0.00    +0.000 C 
ATOM     25  O   UNL     1       0.081  12.894  19.518  0.00  0.00    +0.000 OA
ATOM     26  H   UNL     1      -1.283  13.695  17.670  0.00  0.00    +0.000 HD
ATOM     27  H   UNL     1      -0.983  12.393  16.568  0.00  0.00    +0.000 HD
ENDBRANCH  17  24
ENDBRANCH   1  20
TORSDOF 2
ENDMDL
MODEL 9
REMARK VINA RESULT:      -7.2      1.974      3.994
REMARK  Name = 
REMARK  2 active torsions:
REMARK  status: ('A' for Active; 'I' for Inactive)
REMARK    1  A    between atoms: C_2  and  C_4
REMARK    2  A    between atoms: C_7  and  C_8
REMARK                            x       y       z     vdW  Elec       q    Type
REMARK                         _______ _______ _______ _____ _____    ______ ____
ROOT
ATOM      1  C   UNL     1       3.010   7.061  17.765  0.00  0.00    +0.000 C 
ATOM      2  C   UNL     1       2.412   6.253  18.668  0.00  0.00    +0.000 C 
ATOM      3  C   UNL     1       3.087   5.020  19.175  0.00  0.00    +0.000 C 
ATOM      4  C   UNL     1       2.633   4.541  20.550  0.00  0.00    +0.000 C 
ATOM      5  C   UNL     1       1.219   4.016  20.581  0.00  0.00    +0.000 C 
ATOM      6  N   UNL     1       1.012   2.975  19.581  0.00  0.00    +0.000 NA
ATOM      7  C   UNL     1       1.337   3.443  18.235  0.00  0.00    +0.000 C 
ATOM      8  C   UNL     1       2.808   3.889  18.145  0.00  0.00    +0.000 C 
ATOM      9  O   UNL     1       4.469   5.348  19.482  0.00  0.00    +0.000 OA
ATOM     10  C   UNL     1       5.131   6.208  18.598  0.00  0.00    +0.000 A 
ATOM     11  C   UNL     1       6.488   5.901  18.595  0.00  0.00    +0.000 A 
ATOM     12  C   UNL     1       6.959   5.315  17.440  0.00  0.00    +0.000 A 
ATOM     13  C   UNL     1       6.109   5.272  16.328  0.00  0.00    +0.000 A 
ATOM     14  C   UNL     1       4.878   5.987  16.313  0.00  0.00    +0.000 A 
ATOM     15  C   UNL     1       4.406   6.605  17.476  0.00  0.00    +0.000 A 
ATOM     16  H   UNL     1       0.038   2.669  19.612  0.00  0.00    +0.000 HD
ENDROOT
BRANCH   1  20
ATOM     17  C   UNL     1       0.934  10.767  18.419  0.00  0.00    +0.000 A 
ATOM     18  C   UNL     1       2.319  10.762  18.201  0.00  0.00    +0.000 A 
ATOM     19  C   UNL     1       2.985   9.577  17.818  0.00  0.00    +0.000 A 
ATOM     20  C   UNL     1       2.281   8.381  17.661  0.00  0.00    +0.000 A 
ATOM     21  C   UNL     1       0.889   8.394  17.824  0.00  0.00    +0.000 A 
ATOM     22  C   UNL     1       0.226   9.571  18.197  0.00  0.00    +0.000 A 
BRANCH  17  24
ATOM     23  N   UNL     1      -0.166  12.953  18.074  0.00  0.00    +0.000 N 
ATOM     24  C   UNL     1       0.162  11.944  18.937  0.00  0.00    +0.000 C 
ATOM     25  O   UNL     1      -0.179  12.014  20.114  0.00  0.00    +0.000 OA
ATOM     26  H   UNL     1      -0.708  13.716  18.458  0.00  0.00    +0.000 HD
ATOM     27  H   UNL     1       0.013  12.947  17.084  0.00  0.00    +0.000 HD
ENDBRANCH  17  24
ENDBRANCH   1  20
TORSDOF 2
ENDMDL
