MODEL 1
REMARK VINA RESULT:      -8.1      0.000      0.000
REMARK  Name = 
REMARK  7 active torsions:
REMARK  status: ('A' for Active; 'I' for Inactive)
REMARK    1  A    between atoms: C_1  and  O_2
REMARK    2  A    between atoms: O_2  and  C_3
REMARK    3  A    between atoms: C_5  and  O_6
REMARK    4  A    between atoms: O_6  and  C_7
REMARK    5  A    between atoms: C_8  and  C_9
REMARK    6  A    between atoms: C_14  and  N_15
REMARK    7  A    between atoms: N_18  and  C_19
REMARK                            x       y       z     vdW  Elec       q    Type
REMARK                         _______ _______ _______ _____ _____    ______ ____
ROOT
ATOM      1  C   UNL     1       0.757   9.296  19.641  0.00  0.00    +0.000 A 
ATOM      2  C   UNL     1       1.042   8.222  20.454  0.00  0.00    +0.000 A 
ATOM      3  N   UNL     1       2.020   7.509  19.809  0.00  0.00    +0.000 N 
ATOM      4  C   UNL     1       2.607   6.297  20.150  0.00  0.00    +0.000 A 
ATOM      5  C   UNL     1       3.506   5.747  19.313  0.00  0.00    +0.000 A 
ATOM      6  C   UNL     1       3.862   6.438  18.071  0.00  0.00    +0.000 A 
ATOM      7  C   UNL     1       3.315   7.644  17.796  0.00  0.00    +0.000 A 
ATOM      8  C   UNL     1       2.339   8.213  18.659  0.00  0.00    +0.000 A 
ATOM      9  N   UNL     1       1.606   9.293  18.546  0.00  0.00    +0.000 NA
ENDROOT
BRANCH   1  13
ATOM     10  C   UNL     1      -2.142  12.382  20.358  0.00  0.00    +0.000 A 
ATOM     11  C   UNL     1      -2.094  11.758  19.102  0.00  0.00    +0.000 A 
ATOM     12  C   UNL     1      -1.168  10.744  18.798  0.00  0.00    +0.000 A 
ATOM     13  C   UNL     1      -0.272  10.323  19.798  0.00  0.00    +0.000 A 
ATOM     14  C   UNL     1      -0.332  10.955  21.058  0.00  0.00    +0.000 A 
ATOM     15  C   UNL     1      -1.255  11.964  21.348  0.00  0.00    +0.000 A 
ATOM     16 CL   UNL     1      -1.242  12.547  22.973  0.00  0.00    +0.000 Cl
BRANCH  10  18
ATOM     17  C   UNL     1      -4.341  12.875  21.130  0.00  0.00    +0.000 C 
ATOM     18  O   UNL     1      -3.161  13.289  20.457  0.00  0.00    +0.000 OA
ENDBRANCH  10  18
BRANCH  12  19
ATOM     19  O   UNL     1      -1.144  10.117  17.579  0.00  0.00    +0.000 OA
ATOM     20  C   UNL     1      -2.400   9.899  16.939  0.00  0.00    +0.000 C 
ENDBRANCH  12  19
ENDBRANCH   1  13
BRANCH   6  21
ATOM     21  N   UNL     1       4.731   5.810  17.187  0.00  0.00    +0.000 N 
ATOM     22  C   UNL     1       5.891   6.510  16.607  0.00  0.00    +0.000 C 
ATOM     23  C   UNL     1       7.075   5.539  16.382  0.00  0.00    +0.000 C 
ATOM     24  N   UNL     1       6.743   4.315  15.607  0.00  0.00    +0.000 NA
ATOM     25  C   UNL     1       5.620   3.652  16.308  0.00  0.00    +0.000 C 
ATOM     26  C   UNL     1       4.374   4.535  16.534  0.00  0.00    +0.000 C 
BRANCH  24  27
ATOM     27  C   UNL     1       6.481   4.610  14.189  0.00  0.00    +0.000 C 
ATOM     28  C   UNL     1       7.735   5.135  13.476  0.00  0.00    +0.000 C 
ATOM     29  C   UNL     1       7.426   4.958  12.000  0.00  0.00    +0.000 C 
ATOM     30  C   UNL     1       6.622   3.669  11.919  0.00  0.00    +0.000 C 
ATOM     31  C   UNL     1       6.095   3.393  13.329  0.00  0.00    +0.000 C 
ENDBRANCH  24  27
ENDBRANCH   6  21
TORSDOF 5
ENDMDL
MODEL 2
REMARK VINA RESULT:      -8.1      4.113     11.146
REMARK  Name = 
REMARK  7 active torsions:
REMARK  status: ('A' for Active; 'I' for Inactive)
REMARK    1  A    between atoms: C_1  and  O_2
REMARK    2  A    between atoms: O_2  and  C_3
REMARK    3  A    between atoms: C_5  and  O_6
REMARK    4  A    between atoms: O_6  and  C_7
REMARK    5  A    between atoms: C_8  and  C_9
REMARK    6  A    between atoms: C_14  and  N_15
REMARK    7  A    between atoms: N_18  and  C_19
REMARK                            x       y       z     vdW  Elec       q    Type
REMARK                         _______ _______ _______ _____ _____    ______ ____
ROOT
ATOM      1  C   UNL     1       2.141   7.311  19.653  0.00  0.00    +0.000 A 
ATOM      2  C   UNL     1       2.116   8.274  18.670  0.00  0.00    +0.000 A 
ATOM      3  N   UNL     1       1.338   9.293  19.158  0.00  0.00    +0.000 N 
ATOM      4  C   UNL     1       0.920  10.466  18.542  0.00  0.00    +0.000 A 
ATOM      5  C   UNL     1       0.089  11.291  19.204  0.00  0.00    +0.000 A 
ATOM      6  C   UNL     1      -0.346  10.953  20.562  0.00  0.00    +0.000 A 
ATOM      7  C   UNL     1       0.125   9.833  21.155  0.00  0.00    +0.000 A 
ATOM      8  C   UNL     1       0.975   8.938  20.448  0.00  0.00    +0.000 A 
ATOM      9  N   UNL     1       1.457   7.763  20.769  0.00  0.00    +0.000 NA
ENDROOT
BRANCH   1  13
ATOM     10  C   UNL     1       3.680   3.303  19.718  0.00  0.00    +0.000 A 
ATOM     11  C   UNL     1       4.299   4.267  18.907  0.00  0.00    +0.000 A 
ATOM     12  C   UNL     1       3.845   5.596  18.835  0.00  0.00    +0.000 A 
ATOM     13  C   UNL     1       2.743   5.978  19.623  0.00  0.00    +0.000 A 
ATOM     14  C   UNL     1       2.132   5.002  20.436  0.00  0.00    +0.000 A 
ATOM     15  C   UNL     1       2.590   3.683  20.498  0.00  0.00    +0.000 A 
ATOM     16 CL   UNL     1       1.777   2.658  21.624  0.00  0.00    +0.000 Cl
BRANCH  10  18
ATOM     17  C   UNL     1       3.952   1.180  18.670  0.00  0.00    +0.000 C 
ATOM     18  O   UNL     1       4.326   2.096  19.688  0.00  0.00    +0.000 OA
ENDBRANCH  10  18
BRANCH  12  19
ATOM     19  O   UNL     1       4.470   6.541  18.063  0.00  0.00    +0.000 OA
ATOM     20  C   UNL     1       4.686   6.217  16.691  0.00  0.00    +0.000 C 
ENDBRANCH  12  19
ENDBRANCH   1  13
BRANCH   6  21
ATOM     21  N   UNL     1      -1.266  11.782  21.191  0.00  0.00    +0.000 N 
ATOM     22  C   UNL     1      -1.560  11.667  22.631  0.00  0.00    +0.000 C 
ATOM     23  C   UNL     1      -1.892  13.047  23.246  0.00  0.00    +0.000 C 
ATOM     24  N   UNL     1      -2.954  13.810  22.540  0.00  0.00    +0.000 NA
ATOM     25  C   UNL     1      -2.530  13.930  21.126  0.00  0.00    +0.000 C 
ATOM     26  C   UNL     1      -2.223  12.595  20.416  0.00  0.00    +0.000 C 
BRANCH  24  27
ATOM     27  C   UNL     1      -4.285  13.208  22.723  0.00  0.00    +0.000 C 
ATOM     28  C   UNL     1      -4.604  12.973  24.205  0.00  0.00    +0.000 C 
ATOM     29  C   UNL     1      -6.110  12.789  24.238  0.00  0.00    +0.000 C 
ATOM     30  C   UNL     1      -6.646  13.737  23.175  0.00  0.00    +0.000 C 
ATOM     31  C   UNL     1      -5.466  14.081  22.262  0.00  0.00    +0.000 C 
ENDBRANCH  24  27
ENDBRANCH   6  21
TORSDOF 5
ENDMDL
MODEL 3
REMARK VINA RESULT:      -8.0      1.490      2.055
REMARK  Name = 
REMARK  7 active torsions:
REMARK  status: ('A' for Active; 'I' for Inactive)
REMARK    1  A    between atoms: C_1  and  O_2
REMARK    2  A    between atoms: O_2  and  C_3
REMARK    3  A    between atoms: C_5  and  O_6
REMARK    4  A    between atoms: O_6  and  C_7
REMARK    5  A    between atoms: C_8  and  C_9
REMARK    6  A    between atoms: C_14  and  N_15
REMARK    7  A    between atoms: N_18  and  C_19
REMARK                            x       y       z     vdW  Elec       q    Type
REMARK                         _______ _______ _______ _____ _____    ______ ____
ROOT
ATOM      1  C   UNL     1       0.584   9.332  19.642  0.00  0.00    +0.000 A 
ATOM      2  C   UNL     1       0.879   8.266  20.462  0.00  0.00    +0.000 A 
ATOM      3  N   UNL     1       1.884   7.574  19.835  0.00  0.00    +0.000 N 
ATOM      4  C   UNL     1       2.493   6.377  20.188  0.00  0.00    +0.000 A 
ATOM      5  C   UNL     1       3.417   5.846  19.367  0.00  0.00    +0.000 A 
ATOM      6  C   UNL     1       3.779   6.543  18.129  0.00  0.00    +0.000 A 
ATOM      7  C   UNL     1       3.209   7.735  17.843  0.00  0.00    +0.000 A 
ATOM      8  C   UNL     1       2.206   8.283  18.688  0.00  0.00    +0.000 A 
ATOM      9  N   UNL     1       1.450   9.346  18.561  0.00  0.00    +0.000 NA
ENDROOT
BRANCH   1  13
ATOM     10  C   UNL     1      -2.622  12.185  19.793  0.00  0.00    +0.000 A 
ATOM     11  C   UNL     1      -1.793  12.018  20.914  0.00  0.00    +0.000 A 
ATOM     12  C   UNL     1      -0.728  11.099  20.934  0.00  0.00    +0.000 A 
ATOM     13  C   UNL     1      -0.471  10.336  19.780  0.00  0.00    +0.000 A 
ATOM     14  C   UNL     1      -1.308  10.515  18.660  0.00  0.00    +0.000 A 
ATOM     15  C   UNL     1      -2.366  11.429  18.652  0.00  0.00    +0.000 A 
ATOM     16 CL   UNL     1      -3.217  11.579  17.157  0.00  0.00    +0.000 Cl
BRANCH  10  18
ATOM     17  C   UNL     1      -3.492  13.920  21.176  0.00  0.00    +0.000 C 
ATOM     18  O   UNL     1      -3.548  13.177  19.967  0.00  0.00    +0.000 OA
ENDBRANCH  10  18
BRANCH  12  19
ATOM     19  O   UNL     1       0.097  10.960  22.020  0.00  0.00    +0.000 OA
ATOM     20  C   UNL     1      -0.436  10.276  23.153  0.00  0.00    +0.000 C 
ENDBRANCH  12  19
ENDBRANCH   1  13
BRANCH   6  21
ATOM     21  N   UNL     1       4.676   5.933  17.262  0.00  0.00    +0.000 N 
ATOM     22  C   UNL     1       5.767   6.686  16.615  0.00  0.00    +0.000 C 
ATOM     23  C   UNL     1       7.018   5.798  16.416  0.00  0.00    +0.000 C 
ATOM     24  N   UNL     1       6.768   4.509  15.720  0.00  0.00    +0.000 NA
ATOM     25  C   UNL     1       5.714   3.804  16.485  0.00  0.00    +0.000 C 
ATOM     26  C   UNL     1       4.408   4.599  16.691  0.00  0.00    +0.000 C 
BRANCH  24  27
ATOM     27  C   UNL     1       6.456   4.700  14.294  0.00  0.00    +0.000 C 
ATOM     28  C   UNL     1       7.711   5.037  13.477  0.00  0.00    +0.000 C 
ATOM     29  C   UNL     1       7.306   4.759  12.041  0.00  0.00    +0.000 C 
ATOM     30  C   UNL     1       6.383   3.551  12.119  0.00  0.00    +0.000 C 
ATOM     31  C   UNL     1       5.912   3.454  13.572  0.00  0.00    +0.000 C 
ENDBRANCH  24  27
ENDBRANCH   6  21
TORSDOF 5
ENDMDL
MODEL 4
REMARK VINA RESULT:      -7.9      4.068     11.259
REMARK  Name = 
REMARK  7 active torsions:
REMARK  status: ('A' for Active; 'I' for Inactive)
REMARK    1  A    between atoms: C_1  and  O_2
REMARK    2  A    between atoms: O_2  and  C_3
REMARK    3  A    between atoms: C_5  and  O_6
REMARK    4  A    between atoms: O_6  and  C_7
REMARK    5  A    between atoms: C_8  and  C_9
REMARK    6  A    between atoms: C_14  and  N_15
REMARK    7  A    between atoms: N_18  and  C_19
REMARK                            x       y       z     vdW  Elec       q    Type
REMARK                         _______ _______ _______ _____ _____    ______ ____
ROOT
ATOM      1  C   UNL     1       2.002   7.573  19.637  0.00  0.00    +0.000 A 
ATOM      2  C   UNL     1       1.918   8.567  18.689  0.00  0.00    +0.000 A 
ATOM      3  N   UNL     1       1.143   9.554  19.244  0.00  0.00    +0.000 N 
ATOM      4  C   UNL     1       0.679  10.738  18.685  0.00  0.00    +0.000 A 
ATOM      5  C   UNL     1      -0.138  11.525  19.409  0.00  0.00    +0.000 A 
ATOM      6  C   UNL     1      -0.510  11.134  20.771  0.00  0.00    +0.000 A 
ATOM      7  C   UNL     1       0.005  10.004  21.306  0.00  0.00    +0.000 A 
ATOM      8  C   UNL     1       0.840   9.150  20.534  0.00  0.00    +0.000 A 
ATOM      9  N   UNL     1       1.356   7.974  20.795  0.00  0.00    +0.000 NA
ENDROOT
BRANCH   1  13
ATOM     10  C   UNL     1       3.625   3.599  19.520  0.00  0.00    +0.000 A 
ATOM     11  C   UNL     1       4.132   4.578  18.650  0.00  0.00    +0.000 A 
ATOM     12  C   UNL     1       3.644   5.897  18.633  0.00  0.00    +0.000 A 
ATOM     13  C   UNL     1       2.625   6.254  19.537  0.00  0.00    +0.000 A 
ATOM     14  C   UNL     1       2.128   5.263  20.408  0.00  0.00    +0.000 A 
ATOM     15  C   UNL     1       2.619   3.954  20.415  0.00  0.00    +0.000 A 
ATOM     16 CL   UNL     1       1.955   2.910  21.620  0.00  0.00    +0.000 Cl
BRANCH  10  18
ATOM     17  C   UNL     1       3.698   1.397  18.614  0.00  0.00    +0.000 C 
ATOM     18  O   UNL     1       4.290   2.407  19.416  0.00  0.00    +0.000 OA
ENDBRANCH  10  18
BRANCH  12  19
ATOM     19  O   UNL     1       4.160   6.856  17.802  0.00  0.00    +0.000 OA
ATOM     20  C   UNL     1       4.867   6.401  16.649  0.00  0.00    +0.000 C 
ENDBRANCH  12  19
ENDBRANCH   1  13
BRANCH   6  21
ATOM     21  N   UNL     1      -1.418  11.924  21.465  0.00  0.00    +0.000 N 
ATOM     22  C   UNL     1      -2.115  13.054  20.824  0.00  0.00    +0.000 C 
ATOM     23  C   UNL     1      -3.538  13.234  21.404  0.00  0.00    +0.000 C 
ATOM     24  N   UNL     1      -3.605  13.332  22.885  0.00  0.00    +0.000 NA
ATOM     25  C   UNL     1      -2.944  12.122  23.426  0.00  0.00    +0.000 C 
ATOM     26  C   UNL     1      -1.499  11.888  22.938  0.00  0.00    +0.000 C 
BRANCH  24  27
ATOM     27  C   UNL     1      -3.046  14.599  23.384  0.00  0.00    +0.000 C 
ATOM     28  C   UNL     1      -3.813  15.812  22.838  0.00  0.00    +0.000 C 
ATOM     29  C   UNL     1      -3.421  16.948  23.765  0.00  0.00    +0.000 C 
ATOM     30  C   UNL     1      -3.288  16.308  25.139  0.00  0.00    +0.000 C 
ATOM     31  C   UNL     1      -3.143  14.802  24.907  0.00  0.00    +0.000 C 
ENDBRANCH  24  27
ENDBRANCH   6  21
TORSDOF 5
ENDMDL
MODEL 5
REMARK VINA RESULT:      -7.7      4.089     10.346
REMARK  Name = 
REMARK  7 active torsions:
REMARK  status: ('A' for Active; 'I' for Inactive)
REMARK    1  A    between atoms: C_1  and  O_2
REMARK    2  A    between atoms: O_2  and  C_3
REMARK    3  A    between atoms: C_5  and  O_6
REMARK    4  A    between atoms: O_6  and  C_7
REMARK    5  A    between atoms: C_8  and  C_9
REMARK    6  A    between atoms: C_14  and  N_15
REMARK    7  A    between atoms: N_18  and  C_19
REMARK                            x       y       z     vdW  Elec       q    Type
REMARK                         _______ _______ _______ _____ _____    ______ ____
ROOT
ATOM      1  C   UNL     1       2.634   7.090  18.727  0.00  0.00    +0.000 A 
ATOM      2  C   UNL     1       2.160   7.019  20.018  0.00  0.00    +0.000 A 
ATOM      3  N   UNL     1       1.558   8.226  20.268  0.00  0.00    +0.000 N 
ATOM      4  C   UNL     1       0.993   8.712  21.440  0.00  0.00    +0.000 A 
ATOM      5  C   UNL     1       0.522   9.972  21.465  0.00  0.00    +0.000 A 
ATOM      6  C   UNL     1       0.597  10.802  20.260  0.00  0.00    +0.000 A 
ATOM      7  C   UNL     1       1.101  10.280  19.119  0.00  0.00    +0.000 A 
ATOM      8  C   UNL     1       1.632   8.962  19.095  0.00  0.00    +0.000 A 
ATOM      9  N   UNL     1       2.258   8.295  18.157  0.00  0.00    +0.000 NA
ENDROOT
BRANCH   1  13
ATOM     10  C   UNL     1       5.228   4.399  16.614  0.00  0.00    +0.000 A 
ATOM     11  C   UNL     1       3.886   4.044  16.822  0.00  0.00    +0.000 A 
ATOM     12  C   UNL     1       2.983   4.875  17.509  0.00  0.00    +0.000 A 
ATOM     13  C   UNL     1       3.437   6.120  17.985  0.00  0.00    +0.000 A 
ATOM     14  C   UNL     1       4.786   6.467  17.766  0.00  0.00    +0.000 A 
ATOM     15  C   UNL     1       5.675   5.632  17.085  0.00  0.00    +0.000 A 
ATOM     16 CL   UNL     1       7.259   6.271  16.828  0.00  0.00    +0.000 Cl
BRANCH  10  18
ATOM     17  C   UNL     1       6.179   3.807  14.511  0.00  0.00    +0.000 C 
ATOM     18  O   UNL     1       5.907   3.477  15.865  0.00  0.00    +0.000 OA
ENDBRANCH  10  18
BRANCH  12  19
ATOM     19  O   UNL     1       1.667   4.537  17.686  0.00  0.00    +0.000 OA
ATOM     20  C   UNL     1       1.394   3.416  18.525  0.00  0.00    +0.000 C 
ENDBRANCH  12  19
ENDBRANCH   1  13
BRANCH   6  21
ATOM     21  N   UNL     1       0.177  12.124  20.338  0.00  0.00    +0.000 N 
ATOM     22  C   UNL     1      -1.144  12.551  19.844  0.00  0.00    +0.000 C 
ATOM     23  C   UNL     1      -1.712  13.711  20.697  0.00  0.00    +0.000 C 
ATOM     24  N   UNL     1      -0.799  14.872  20.864  0.00  0.00    +0.000 NA
ATOM     25  C   UNL     1       0.466  14.348  21.428  0.00  0.00    +0.000 C 
ATOM     26  C   UNL     1       1.129  13.218  20.614  0.00  0.00    +0.000 C 
BRANCH  24  27
ATOM     27  C   UNL     1      -0.635  15.633  19.614  0.00  0.00    +0.000 C 
ATOM     28  C   UNL     1      -1.637  16.792  19.518  0.00  0.00    +0.000 C 
ATOM     29  C   UNL     1      -1.055  17.699  18.449  0.00  0.00    +0.000 C 
ATOM     30  C   UNL     1       0.452  17.614  18.638  0.00  0.00    +0.000 C 
ATOM     31  C   UNL     1       0.719  16.349  19.459  0.00  0.00    +0.000 C 
ENDBRANCH  24  27
ENDBRANCH   6  21
TORSDOF 5
ENDMDL
MODEL 6
REMARK VINA RESULT:      -7.7      4.430     10.086
REMARK  Name = 
REMARK  7 active torsions:
REMARK  status: ('A' for Active; 'I' for Inactive)
REMARK    1  A    between atoms: C_1  and  O_2
REMARK    2  A    between atoms: O_2  and  C_3
REMARK    3  A    between atoms: C_5  and  O_6
REMARK    4  A    between atoms: O_6  and  C_7
REMARK    5  A    between atoms: C_8  and  C_9
REMARK    6  A    between atoms: C_14  and  N_15
REMARK    7  A    between atoms: N_18  and  C_19
REMARK                            x       y       z     vdW  Elec       q    Type
REMARK                         _______ _______ _______ _____ _____    ______ ____
ROOT
ATOM      1  C   UNL     1       1.549   7.714  20.247  0.00  0.00    +0.000 A 
ATOM      2  C   UNL     1       0.831   8.090  21.361  0.00  0.00    +0.000 A 
ATOM      3  N   UNL     1       0.566   9.427  21.207  0.00  0.00    +0.000 N 
ATOM      4  C   UNL     1      -0.054  10.315  22.076  0.00  0.00    +0.000 A 
ATOM      5  C   UNL     1      -0.138  11.614  21.733  0.00  0.00    +0.000 A 
ATOM      6  C   UNL     1       0.406  12.065  20.449  0.00  0.00    +0.000 A 
ATOM      7  C   UNL     1       0.951  11.165  19.600  0.00  0.00    +0.000 A 
ATOM      8  C   UNL     1       1.075   9.798  19.972  0.00  0.00    +0.000 A 
ATOM      9  N   UNL     1       1.654   8.785  19.375  0.00  0.00    +0.000 NA
ENDROOT
BRANCH   1  13
ATOM     10  C   UNL     1       3.180   3.807  19.535  0.00  0.00    +0.000 A 
ATOM     11  C   UNL     1       3.583   4.881  18.727  0.00  0.00    +0.000 A 
ATOM     12  C   UNL     1       3.086   6.185  18.902  0.00  0.00    +0.000 A 
ATOM     13  C   UNL     1       2.168   6.426  19.941  0.00  0.00    +0.000 A 
ATOM     14  C   UNL     1       1.774   5.339  20.749  0.00  0.00    +0.000 A 
ATOM     15  C   UNL     1       2.272   4.047  20.565  0.00  0.00    +0.000 A 
ATOM     16 CL   UNL     1       1.749   2.869  21.714  0.00  0.00    +0.000 Cl
BRANCH  10  18
ATOM     17  C   UNL     1       3.232   1.776  18.291  0.00  0.00    +0.000 C 
ATOM     18  O   UNL     1       3.839   2.645  19.235  0.00  0.00    +0.000 OA
ENDBRANCH  10  18
BRANCH  12  19
ATOM     19  O   UNL     1       3.504   7.237  18.128  0.00  0.00    +0.000 OA
ATOM     20  C   UNL     1       4.469   6.953  17.117  0.00  0.00    +0.000 C 
ENDBRANCH  12  19
ENDBRANCH   1  13
BRANCH   6  21
ATOM     21  N   UNL     1       0.377  13.423  20.156  0.00  0.00    +0.000 N 
ATOM     22  C   UNL     1      -0.871  14.111  19.779  0.00  0.00    +0.000 C 
ATOM     23  C   UNL     1      -0.877  15.573  20.285  0.00  0.00    +0.000 C 
ATOM     24  N   UNL     1       0.315  16.375  19.904  0.00  0.00    +0.000 NA
ATOM     25  C   UNL     1       1.503  15.635  20.388  0.00  0.00    +0.000 C 
ATOM     26  C   UNL     1       1.617  14.178  19.892  0.00  0.00    +0.000 C 
BRANCH  24  27
ATOM     27  C   UNL     1       0.340  16.683  18.465  0.00  0.00    +0.000 C 
ATOM     28  C   UNL     1      -0.748  17.697  18.082  0.00  0.00    +0.000 C 
ATOM     29  C   UNL     1      -0.307  18.223  16.728  0.00  0.00    +0.000 C 
ATOM     30  C   UNL     1       1.212  18.274  16.802  0.00  0.00    +0.000 C 
ATOM     31  C   UNL     1       1.624  17.368  17.965  0.00  0.00    +0.000 C 
ENDBRANCH  24  27
ENDBRANCH   6  21
TORSDOF 5
ENDMDL
MODEL 7
REMARK VINA RESULT:      -7.7      4.210     11.012
REMARK  Name = 
REMARK  7 active torsions:
REMARK  status: ('A' for Active; 'I' for Inactive)
REMARK    1  A    between atoms: C_1  and  O_2
REMARK    2  A    between atoms: O_2  and  C_3
REMARK    3  A    between atoms: C_5  and  O_6
REMARK    4  A    between atoms: O_6  and  C_7
REMARK    5  A    between atoms: C_8  and  C_9
REMARK    6  A    between atoms: C_14  and  N_15
REMARK    7  A    between atoms: N_18  and  C_19
REMARK                            x       y       z     vdW  Elec       q    Type
REMARK                         _______ _______ _______ _____ _____    ______ ____
ROOT
ATOM      1  C   UNL     1       2.336   7.262  18.662  0.00  0.00    +0.000 A 
ATOM      2  C   UNL     1       2.522   8.422  17.944  0.00  0.00    +0.000 A 
ATOM      3  N   UNL     1       1.806   9.391  18.599  0.00  0.00    +0.000 N 
ATOM      4  C   UNL     1       1.586  10.719  18.254  0.00  0.00    +0.000 A 
ATOM      5  C   UNL     1       0.777  11.468  19.026  0.00  0.00    +0.000 A 
ATOM      6  C   UNL     1       0.160  10.884  20.219  0.00  0.00    +0.000 A 
ATOM      7  C   UNL     1       0.441   9.605  20.559  0.00  0.00    +0.000 A 
ATOM      8  C   UNL     1       1.266   8.797  19.728  0.00  0.00    +0.000 A 
ATOM      9  N   UNL     1       1.583   7.527  19.793  0.00  0.00    +0.000 NA
ENDROOT
BRANCH   1  13
ATOM     10  C   UNL     1       3.404   3.193  17.798  0.00  0.00    +0.000 A 
ATOM     11  C   UNL     1       4.359   4.209  17.628  0.00  0.00    +0.000 A 
ATOM     12  C   UNL     1       4.075   5.562  17.888  0.00  0.00    +0.000 A 
ATOM     13  C   UNL     1       2.794   5.907  18.358  0.00  0.00    +0.000 A 
ATOM     14  C   UNL     1       1.846   4.878  18.530  0.00  0.00    +0.000 A 
ATOM     15  C   UNL     1       2.137   3.536  18.265  0.00  0.00    +0.000 A 
ATOM     16 CL   UNL     1       0.881   2.409  18.628  0.00  0.00    +0.000 Cl
BRANCH  10  18
ATOM     17  C   UNL     1       4.060   1.073  18.664  0.00  0.00    +0.000 C 
ATOM     18  O   UNL     1       3.913   1.947  17.554  0.00  0.00    +0.000 OA
ENDBRANCH  10  18
BRANCH  12  19
ATOM     19  O   UNL     1       5.018   6.547  17.747  0.00  0.00    +0.000 OA
ATOM     20  C   UNL     1       6.385   6.139  17.758  0.00  0.00    +0.000 C 
ENDBRANCH  12  19
ENDBRANCH   1  13
BRANCH   6  21
ATOM     21  N   UNL     1      -0.732  11.656  20.952  0.00  0.00    +0.000 N 
ATOM     22  C   UNL     1      -0.802  11.580  22.422  0.00  0.00    +0.000 C 
ATOM     23  C   UNL     1      -1.169  12.951  23.037  0.00  0.00    +0.000 C 
ATOM     24  N   UNL     1      -2.389  13.586  22.473  0.00  0.00    +0.000 NA
ATOM     25  C   UNL     1      -2.188  13.680  21.008  0.00  0.00    +0.000 C 
ATOM     26  C   UNL     1      -1.864  12.346  20.303  0.00  0.00    +0.000 C 
BRANCH  24  27
ATOM     27  C   UNL     1      -3.617  12.878  22.870  0.00  0.00    +0.000 C 
ATOM     28  C   UNL     1      -3.772  12.821  24.396  0.00  0.00    +0.000 C 
ATOM     29  C   UNL     1      -5.236  12.484  24.610  0.00  0.00    +0.000 C 
ATOM     30  C   UNL     1      -5.973  13.212  23.495  0.00  0.00    +0.000 C 
ATOM     31  C   UNL     1      -4.930  13.548  22.427  0.00  0.00    +0.000 C 
ENDBRANCH  24  27
ENDBRANCH   6  21
TORSDOF 5
ENDMDL
MODEL 8
REMARK VINA RESULT:      -7.6      3.950     10.662
REMARK  Name = 
REMARK  7 active torsions:
REMARK  status: ('A' for Active; 'I' for Inactive)
REMARK    1  A    between atoms: C_1  and  O_2
REMARK    2  A    between atoms: O_2  and  C_3
REMARK    3  A    between atoms: C_5  and  O_6
REMARK    4  A    between atoms: O_6  and  C_7
REMARK    5  A    between atoms: C_8  and  C_9
REMARK    6  A    between atoms: C_14  and  N_15
REMARK    7  A    between atoms: N_18  and  C_19
REMARK                            x       y       z     vdW  Elec       q    Type
REMARK                         _______ _______ _______ _____ _____    ______ ____
ROOT
ATOM      1  C   UNL     1       2.663   6.992  18.754  0.00  0.00    +0.000 A 
ATOM      2  C   UNL     1       2.268   6.920  20.070  0.00  0.00    +0.000 A 
ATOM      3  N   UNL     1       1.585   8.083  20.324  0.00  0.00    +0.000 N 
ATOM      4  C   UNL     1       1.048   8.556  21.515  0.00  0.00    +0.000 A 
ATOM      5  C   UNL     1       0.479   9.775  21.536  0.00  0.00    +0.000 A 
ATOM      6  C   UNL     1       0.420  10.573  20.309  0.00  0.00    +0.000 A 
ATOM      7  C   UNL     1       0.901  10.060  19.154  0.00  0.00    +0.000 A 
ATOM      8  C   UNL     1       1.535   8.788  19.132  0.00  0.00    +0.000 A 
ATOM      9  N   UNL     1       2.161   8.146  18.176  0.00  0.00    +0.000 NA
ENDROOT
BRANCH   1  13
ATOM     10  C   UNL     1       5.351   4.442  16.584  0.00  0.00    +0.000 A 
ATOM     11  C   UNL     1       4.022   4.035  16.782  0.00  0.00    +0.000 A 
ATOM     12  C   UNL     1       3.091   4.818  17.486  0.00  0.00    +0.000 A 
ATOM     13  C   UNL     1       3.500   6.067  17.991  0.00  0.00    +0.000 A 
ATOM     14  C   UNL     1       4.836   6.466  17.782  0.00  0.00    +0.000 A 
ATOM     15  C   UNL     1       5.755   5.678  17.083  0.00  0.00    +0.000 A 
ATOM     16 CL   UNL     1       7.315   6.378  16.844  0.00  0.00    +0.000 Cl
BRANCH  10  18
ATOM     17  C   UNL     1       6.207   3.866  14.436  0.00  0.00    +0.000 C 
ATOM     18  O   UNL     1       6.063   3.561  15.816  0.00  0.00    +0.000 OA
ENDBRANCH  10  18
BRANCH  12  19
ATOM     19  O   UNL     1       1.787   4.431  17.653  0.00  0.00    +0.000 OA
ATOM     20  C   UNL     1       1.533   3.414  18.622  0.00  0.00    +0.000 C 
ENDBRANCH  12  19
ENDBRANCH   1  13
BRANCH   6  21
ATOM     21  N   UNL     1      -0.100  11.860  20.377  0.00  0.00    +0.000 N 
ATOM     22  C   UNL     1       0.725  13.049  20.094  0.00  0.00    +0.000 C 
ATOM     23  C   UNL     1      -0.117  14.171  19.442  0.00  0.00    +0.000 C 
ATOM     24  N   UNL     1      -1.354  14.538  20.181  0.00  0.00    +0.000 NA
ATOM     25  C   UNL     1      -2.139  13.294  20.350  0.00  0.00    +0.000 C 
ATOM     26  C   UNL     1      -1.391  12.133  21.038  0.00  0.00    +0.000 C 
BRANCH  24  27
ATOM     27  C   UNL     1      -1.059  15.243  21.440  0.00  0.00    +0.000 C 
ATOM     28  C   UNL     1      -0.455  16.631  21.186  0.00  0.00    +0.000 C 
ATOM     29  C   UNL     1      -0.634  17.362  22.504  0.00  0.00    +0.000 C 
ATOM     30  C   UNL     1      -1.966  16.868  23.050  0.00  0.00    +0.000 C 
ATOM     31  C   UNL     1      -2.287  15.568  22.309  0.00  0.00    +0.000 C 
ENDBRANCH  24  27
ENDBRANCH   6  21
TORSDOF 5
ENDMDL
MODEL 9
REMARK VINA RESULT:      -7.5      3.676     10.775
REMARK  Name = 
REMARK  7 active torsions:
REMARK  status: ('A' for Active; 'I' for Inactive)
REMARK    1  A    between atoms: C_1  and  O_2
REMARK    2  A    between atoms: O_2  and  C_3
REMARK    3  A    between atoms: C_5  and  O_6
REMARK    4  A    between atoms: O_6  and  C_7
REMARK    5  A    between atoms: C_8  and  C_9
REMARK    6  A    between atoms: C_14  and  N_15
REMARK    7  A    between atoms: N_18  and  C_19
REMARK                            x       y       z     vdW  Elec       q    Type
REMARK                         _______ _______ _______ _____ _____    ______ ____
ROOT
ATOM      1  C   UNL     1       2.742   6.829  18.827  0.00  0.00    +0.000 A 
ATOM      2  C   UNL     1       2.227   6.557  20.074  0.00  0.00    +0.000 A 
ATOM      3  N   UNL     1       1.464   7.645  20.414  0.00  0.00    +0.000 N 
ATOM      4  C   UNL     1       0.791   7.924  21.596  0.00  0.00    +0.000 A 
ATOM      5  C   UNL     1       0.160   9.105  21.726  0.00  0.00    +0.000 A 
ATOM      6  C   UNL     1       0.176  10.065  20.620  0.00  0.00    +0.000 A 
ATOM      7  C   UNL     1       0.791   9.739  19.460  0.00  0.00    +0.000 A 
ATOM      8  C   UNL     1       1.490   8.508  19.330  0.00  0.00    +0.000 A 
ATOM      9  N   UNL     1       2.237   8.033  18.364  0.00  0.00    +0.000 NA
ENDROOT
BRANCH   1  13
ATOM     10  C   UNL     1       5.750   4.738  16.586  0.00  0.00    +0.000 A 
ATOM     11  C   UNL     1       4.470   4.175  16.717  0.00  0.00    +0.000 A 
ATOM     12  C   UNL     1       3.440   4.803  17.440  0.00  0.00    +0.000 A 
ATOM     13  C   UNL     1       3.695   6.054  18.034  0.00  0.00    +0.000 A 
ATOM     14  C   UNL     1       4.983   6.611  17.892  0.00  0.00    +0.000 A 
ATOM     15  C   UNL     1       6.000   5.976  17.174  0.00  0.00    +0.000 A 
ATOM     16 CL   UNL     1       7.478   6.858  17.027  0.00  0.00    +0.000 Cl
BRANCH  10  18
ATOM     17  C   UNL     1       6.628   4.333  14.409  0.00  0.00    +0.000 C 
ATOM     18  O   UNL     1       6.573   3.993  15.786  0.00  0.00    +0.000 OA
ENDBRANCH  10  18
BRANCH  12  19
ATOM     19  O   UNL     1       2.184   4.264  17.541  0.00  0.00    +0.000 OA
ATOM     20  C   UNL     1       2.095   2.910  17.981  0.00  0.00    +0.000 C 
ENDBRANCH  12  19
ENDBRANCH   1  13
BRANCH   6  21
ATOM     21  N   UNL     1      -0.416  11.308  20.810  0.00  0.00    +0.000 N 
ATOM     22  C   UNL     1      -0.312  12.031  22.091  0.00  0.00    +0.000 C 
ATOM     23  C   UNL     1      -0.274  13.562  21.867  0.00  0.00    +0.000 C 
ATOM     24  N   UNL     1      -1.379  14.102  21.032  0.00  0.00    +0.000 NA
ATOM     25  C   UNL     1      -1.351  13.362  19.750  0.00  0.00    +0.000 C 
ATOM     26  C   UNL     1      -1.433  11.826  19.875  0.00  0.00    +0.000 C 
BRANCH  24  27
ATOM     27  C   UNL     1      -2.675  14.055  21.729  0.00  0.00    +0.000 C 
ATOM     28  C   UNL     1      -2.705  15.001  22.938  0.00  0.00    +0.000 C 
ATOM     29  C   UNL     1      -4.182  15.164  23.246  0.00  0.00    +0.000 C 
ATOM     30  C   UNL     1      -4.871  15.154  21.889  0.00  0.00    +0.000 C 
ATOM     31  C   UNL     1      -3.880  14.534  20.900  0.00  0.00    +0.000 C 
ENDBRANCH  24  27
ENDBRANCH   6  21
TORSDOF 5
ENDMDL
