MODEL 1
REMARK VINA RESULT:      -8.4      0.000      0.000
REMARK  Name = 
REMARK  5 active torsions:
REMARK  status: ('A' for Active; 'I' for Inactive)
REMARK    1  A    between atoms: C_1  and  C_2
REMARK    2  A    between atoms: C_2  and  O_3
REMARK    3  A    between atoms: O_3  and  C_4
REMARK    4  A    between atoms: C_9  and  C_10
REMARK    5  A    between atoms: C_17  and  O_18
REMARK                            x       y       z     vdW  Elec       q    Type
REMARK                         _______ _______ _______ _____ _____    ______ ____
ROOT
ATOM      1  C   UNL     1       3.962   6.160  17.252  0.00  0.00    +0.000 A 
ATOM      2  C   UNL     1       3.756   7.549  17.246  0.00  0.00    +0.000 A 
ATOM      3  C   UNL     1       2.999   8.099  18.271  0.00  0.00    +0.000 A 
ATOM      4  N   UNL     1       2.306   9.282  18.350  0.00  0.00    +0.000 N 
ATOM      5  C   UNL     1       1.321   9.171  19.316  0.00  0.00    +0.000 A 
ATOM      6  C   UNL     1       0.168   9.940  19.473  0.00  0.00    +0.000 A 
ATOM      7  C   UNL     1      -0.641   9.680  20.576  0.00  0.00    +0.000 A 
ATOM      8  C   UNL     1      -0.282   8.697  21.490  0.00  0.00    +0.000 A 
ATOM      9  C   UNL     1       0.830   7.870  21.286  0.00  0.00    +0.000 A 
ATOM     10  C   UNL     1       1.632   8.079  20.145  0.00  0.00    +0.000 A 
ATOM     11  C   UNL     1       2.663   7.455  19.434  0.00  0.00    +0.000 A 
ATOM     12  C   UNL     1       2.863   6.046  19.505  0.00  0.00    +0.000 A 
ATOM     13  C   UNL     1       3.220   5.492  18.250  0.00  0.00    +0.000 A 
ATOM     14  C   UNL     1       2.376   4.323  18.145  0.00  0.00    +0.000 C 
ATOM     15  O   UNL     1       1.828   3.784  17.188  0.00  0.00    +0.000 OA
ATOM     16  N   UNL     1       2.034   4.046  19.446  0.00  0.00    +0.000 N 
ATOM     17  C   UNL     1       2.368   5.013  20.353  0.00  0.00    +0.000 C 
ATOM     18  O   UNL     1       2.289   4.878  21.570  0.00  0.00    +0.000 OA
ATOM     19  H   UNL     1       2.310   9.983  17.625  0.00  0.00    +0.000 HD
ATOM     20  H   UNL     1       1.375   3.328  19.684  0.00  0.00    +0.000 HD
ENDROOT
BRANCH   1  26
ATOM     21  C   UNL     1       6.277   5.158  16.917  0.00  0.00    +0.000 A 
ATOM     22  C   UNL     1       7.161   4.374  16.149  0.00  0.00    +0.000 A 
ATOM     23  C   UNL     1       6.805   3.914  14.888  0.00  0.00    +0.000 A 
ATOM     24  C   UNL     1       5.566   4.246  14.367  0.00  0.00    +0.000 A 
ATOM     25  C   UNL     1       4.669   5.006  15.121  0.00  0.00    +0.000 A 
ATOM     26  C   UNL     1       4.967   5.471  16.408  0.00  0.00    +0.000 A 
BRANCH  21  27
ATOM     27  O   UNL     1       6.631   5.626  18.172  0.00  0.00    +0.000 OA
BRANCH  27  29
ATOM     28  C   UNL     1       7.597   7.787  17.620  0.00  0.00    +0.000 C 
ATOM     29  C   UNL     1       7.816   6.425  18.255  0.00  0.00    +0.000 C 
ENDBRANCH  27  29
ENDBRANCH  21  27
ENDBRANCH   1  26
BRANCH   8  30
ATOM     30  O   UNL     1      -1.035   8.507  22.615  0.00  0.00    +0.000 OA
ATOM     31  H   UNL     1      -1.334   9.377  22.930  0.00  0.00    +0.000 HD
ENDBRANCH   8  30
TORSDOF 4
ENDMDL
MODEL 2
REMARK VINA RESULT:      -7.4      2.346      6.929
REMARK  Name = 
REMARK  5 active torsions:
REMARK  status: ('A' for Active; 'I' for Inactive)
REMARK    1  A    between atoms: C_1  and  C_2
REMARK    2  A    between atoms: C_2  and  O_3
REMARK    3  A    between atoms: O_3  and  C_4
REMARK    4  A    between atoms: C_9  and  C_10
REMARK    5  A    between atoms: C_17  and  O_18
REMARK                            x       y       z     vdW  Elec       q    Type
REMARK                         _______ _______ _______ _____ _____    ______ ____
ROOT
ATOM      1  C   UNL     1       1.108   9.543  18.973  0.00  0.00    +0.000 A 
ATOM      2  C   UNL     1       1.940   9.451  17.846  0.00  0.00    +0.000 A 
ATOM      3  C   UNL     1       2.698   8.300  17.689  0.00  0.00    +0.000 A 
ATOM      4  N   UNL     1       3.845   8.061  16.972  0.00  0.00    +0.000 N 
ATOM      5  C   UNL     1       4.499   6.965  17.506  0.00  0.00    +0.000 A 
ATOM      6  C   UNL     1       5.839   6.601  17.367  0.00  0.00    +0.000 A 
ATOM      7  C   UNL     1       6.249   5.404  17.946  0.00  0.00    +0.000 A 
ATOM      8  C   UNL     1       5.334   4.601  18.617  0.00  0.00    +0.000 A 
ATOM      9  C   UNL     1       4.010   5.009  18.828  0.00  0.00    +0.000 A 
ATOM     10  C   UNL     1       3.587   6.246  18.298  0.00  0.00    +0.000 A 
ATOM     11  C   UNL     1       2.508   7.132  18.382  0.00  0.00    +0.000 A 
ATOM     12  C   UNL     1       1.661   7.159  19.528  0.00  0.00    +0.000 A 
ATOM     13  C   UNL     1       1.284   8.478  19.883  0.00  0.00    +0.000 A 
ATOM     14  C   UNL     1       1.484   8.511  21.315  0.00  0.00    +0.000 C 
ATOM     15  O   UNL     1       1.855   9.401  22.076  0.00  0.00    +0.000 OA
ATOM     16  N   UNL     1       1.450   7.189  21.683  0.00  0.00    +0.000 N 
ATOM     17  C   UNL     1       1.474   6.297  20.647  0.00  0.00    +0.000 C 
ATOM     18  O   UNL     1       1.292   5.090  20.768  0.00  0.00    +0.000 OA
ATOM     19  H   UNL     1       4.282   8.744  16.373  0.00  0.00    +0.000 HD
ATOM     20  H   UNL     1       1.648   6.889  22.620  0.00  0.00    +0.000 HD
ENDROOT
BRANCH   1  26
ATOM     21  C   UNL     1       0.325  11.861  19.677  0.00  0.00    +0.000 A 
ATOM     22  C   UNL     1      -0.671  12.857  19.679  0.00  0.00    +0.000 A 
ATOM     23  C   UNL     1      -1.944  12.603  19.186  0.00  0.00    +0.000 A 
ATOM     24  C   UNL     1      -2.246  11.343  18.699  0.00  0.00    +0.000 A 
ATOM     25  C   UNL     1      -1.266  10.348  18.671  0.00  0.00    +0.000 A 
ATOM     26  C   UNL     1       0.040  10.560  19.131  0.00  0.00    +0.000 A 
BRANCH  21  27
ATOM     27  O   UNL     1       1.595  12.108  20.176  0.00  0.00    +0.000 OA
BRANCH  27  29
ATOM     28  C   UNL     1       2.692  13.046  18.219  0.00  0.00    +0.000 C 
ATOM     29  C   UNL     1       2.279  13.257  19.666  0.00  0.00    +0.000 C 
ENDBRANCH  27  29
ENDBRANCH  21  27
ENDBRANCH   1  26
BRANCH   8  30
ATOM     30  O   UNL     1       5.725   3.386  19.108  0.00  0.00    +0.000 OA
ATOM     31  H   UNL     1       5.898   2.798  18.353  0.00  0.00    +0.000 HD
ENDBRANCH   8  30
TORSDOF 4
ENDMDL
MODEL 3
REMARK VINA RESULT:      -7.4      2.977      7.868
REMARK  Name = 
REMARK  5 active torsions:
REMARK  status: ('A' for Active; 'I' for Inactive)
REMARK    1  A    between atoms: C_1  and  C_2
REMARK    2  A    between atoms: C_2  and  O_3
REMARK    3  A    between atoms: O_3  and  C_4
REMARK    4  A    between atoms: C_9  and  C_10
REMARK    5  A    between atoms: C_17  and  O_18
REMARK                            x       y       z     vdW  Elec       q    Type
REMARK                         _______ _______ _______ _____ _____    ______ ____
ROOT
ATOM      1  C   UNL     1       0.190   9.949  21.258  0.00  0.00    +0.000 A 
ATOM      2  C   UNL     1       0.602   8.822  21.987  0.00  0.00    +0.000 A 
ATOM      3  C   UNL     1       1.313   7.837  21.316  0.00  0.00    +0.000 A 
ATOM      4  N   UNL     1       1.506   6.507  21.598  0.00  0.00    +0.000 N 
ATOM      5  C   UNL     1       1.830   5.835  20.433  0.00  0.00    +0.000 A 
ATOM      6  C   UNL     1       1.735   4.469  20.164  0.00  0.00    +0.000 A 
ATOM      7  C   UNL     1       2.194   4.017  18.930  0.00  0.00    +0.000 A 
ATOM      8  C   UNL     1       2.746   4.910  18.019  0.00  0.00    +0.000 A 
ATOM      9  C   UNL     1       2.762   6.291  18.257  0.00  0.00    +0.000 A 
ATOM     10  C   UNL     1       2.250   6.777  19.478  0.00  0.00    +0.000 A 
ATOM     11  C   UNL     1       1.890   7.987  20.080  0.00  0.00    +0.000 A 
ATOM     12  C   UNL     1       1.522   9.121  19.299  0.00  0.00    +0.000 A 
ATOM     13  C   UNL     1       0.445   9.840  19.873  0.00  0.00    +0.000 A 
ATOM     14  C   UNL     1      -0.436  10.080  18.752  0.00  0.00    +0.000 C 
ATOM     15  O   UNL     1      -1.659  10.134  18.660  0.00  0.00    +0.000 OA
ATOM     16  N   UNL     1       0.384   9.957  17.657  0.00  0.00    +0.000 N 
ATOM     17  C   UNL     1       1.628   9.453  17.917  0.00  0.00    +0.000 C 
ATOM     18  O   UNL     1       2.545   9.418  17.103  0.00  0.00    +0.000 OA
ATOM     19  H   UNL     1       1.166   6.058  22.435  0.00  0.00    +0.000 HD
ATOM     20  H   UNL     1       0.031   9.987  16.719  0.00  0.00    +0.000 HD
ENDROOT
BRANCH   1  26
ATOM     21  C   UNL     1       0.341  12.458  21.660  0.00  0.00    +0.000 A 
ATOM     22  C   UNL     1      -0.241  13.648  22.140  0.00  0.00    +0.000 A 
ATOM     23  C   UNL     1      -1.432  13.629  22.854  0.00  0.00    +0.000 A 
ATOM     24  C   UNL     1      -2.051  12.418  23.114  0.00  0.00    +0.000 A 
ATOM     25  C   UNL     1      -1.499  11.230  22.629  0.00  0.00    +0.000 A 
ATOM     26  C   UNL     1      -0.315  11.196  21.881  0.00  0.00    +0.000 A 
BRANCH  21  27
ATOM     27  O   UNL     1       1.534  12.472  20.954  0.00  0.00    +0.000 OA
BRANCH  27  29
ATOM     28  C   UNL     1       2.167  13.016  18.671  0.00  0.00    +0.000 C 
ATOM     29  C   UNL     1       1.724  13.544  20.024  0.00  0.00    +0.000 C 
ENDBRANCH  27  29
ENDBRANCH  21  27
ENDBRANCH   1  26
BRANCH   8  30
ATOM     30  O   UNL     1       3.273   4.447  16.846  0.00  0.00    +0.000 OA
ATOM     31  H   UNL     1       2.639   4.639  16.134  0.00  0.00    +0.000 HD
ENDBRANCH   8  30
TORSDOF 4
ENDMDL
MODEL 4
REMARK VINA RESULT:      -7.3      2.093      3.927
REMARK  Name = 
REMARK  5 active torsions:
REMARK  status: ('A' for Active; 'I' for Inactive)
REMARK    1  A    between atoms: C_1  and  C_2
REMARK    2  A    between atoms: C_2  and  O_3
REMARK    3  A    between atoms: O_3  and  C_4
REMARK    4  A    between atoms: C_9  and  C_10
REMARK    5  A    between atoms: C_17  and  O_18
REMARK                            x       y       z     vdW  Elec       q    Type
REMARK                         _______ _______ _______ _____ _____    ______ ____
ROOT
ATOM      1  C   UNL     1       2.321   7.597  18.403  0.00  0.00    +0.000 A 
ATOM      2  C   UNL     1       1.681   8.480  17.518  0.00  0.00    +0.000 A 
ATOM      3  C   UNL     1       0.922   9.507  18.059  0.00  0.00    +0.000 A 
ATOM      4  N   UNL     1      -0.099  10.256  17.527  0.00  0.00    +0.000 N 
ATOM      5  C   UNL     1      -0.866  10.778  18.553  0.00  0.00    +0.000 A 
ATOM      6  C   UNL     1      -2.177  11.255  18.502  0.00  0.00    +0.000 A 
ATOM      7  C   UNL     1      -2.714  11.802  19.663  0.00  0.00    +0.000 A 
ATOM      8  C   UNL     1      -1.947  11.882  20.819  0.00  0.00    +0.000 A 
ATOM      9  C   UNL     1      -0.662  11.327  20.892  0.00  0.00    +0.000 A 
ATOM     10  C   UNL     1      -0.120  10.716  19.742  0.00  0.00    +0.000 A 
ATOM     11  C   UNL     1       0.960   9.908  19.370  0.00  0.00    +0.000 A 
ATOM     12  C   UNL     1       1.609   9.060  20.314  0.00  0.00    +0.000 A 
ATOM     13  C   UNL     1       1.965   7.808  19.753  0.00  0.00    +0.000 A 
ATOM     14  C   UNL     1       1.535   6.857  20.753  0.00  0.00    +0.000 C 
ATOM     15  O   UNL     1       1.074   5.722  20.668  0.00  0.00    +0.000 OA
ATOM     16  N   UNL     1       1.466   7.599  21.906  0.00  0.00    +0.000 N 
ATOM     17  C   UNL     1       1.583   8.950  21.735  0.00  0.00    +0.000 C 
ATOM     18  O   UNL     1       1.704   9.757  22.651  0.00  0.00    +0.000 OA
ATOM     19  H   UNL     1      -0.411  10.177  16.571  0.00  0.00    +0.000 HD
ATOM     20  H   UNL     1       1.108   7.222  22.764  0.00  0.00    +0.000 HD
ENDROOT
BRANCH   1  26
ATOM     21  C   UNL     1       3.075   5.264  17.720  0.00  0.00    +0.000 A 
ATOM     22  C   UNL     1       4.068   4.415  17.194  0.00  0.00    +0.000 A 
ATOM     23  C   UNL     1       5.358   4.875  16.957  0.00  0.00    +0.000 A 
ATOM     24  C   UNL     1       5.678   6.187  17.261  0.00  0.00    +0.000 A 
ATOM     25  C   UNL     1       4.702   7.049  17.766  0.00  0.00    +0.000 A 
ATOM     26  C   UNL     1       3.381   6.644  17.996  0.00  0.00    +0.000 A 
BRANCH  21  27
ATOM     27  O   UNL     1       1.790   4.807  17.965  0.00  0.00    +0.000 OA
BRANCH  27  29
ATOM     28  C   UNL     1       0.903   2.834  19.075  0.00  0.00    +0.000 C 
ATOM     29  C   UNL     1       1.567   3.399  17.831  0.00  0.00    +0.000 C 
ENDBRANCH  27  29
ENDBRANCH  21  27
ENDBRANCH   1  26
BRANCH   8  30
ATOM     30  O   UNL     1      -2.451  12.500  21.930  0.00  0.00    +0.000 OA
ATOM     31  H   UNL     1      -3.387  12.706  21.762  0.00  0.00    +0.000 HD
ENDBRANCH   8  30
TORSDOF 4
ENDMDL
MODEL 5
REMARK VINA RESULT:      -7.2      2.430      7.327
REMARK  Name = 
REMARK  5 active torsions:
REMARK  status: ('A' for Active; 'I' for Inactive)
REMARK    1  A    between atoms: C_1  and  C_2
REMARK    2  A    between atoms: C_2  and  O_3
REMARK    3  A    between atoms: O_3  and  C_4
REMARK    4  A    between atoms: C_9  and  C_10
REMARK    5  A    between atoms: C_17  and  O_18
REMARK                            x       y       z     vdW  Elec       q    Type
REMARK                         _______ _______ _______ _____ _____    ______ ____
ROOT
ATOM      1  C   UNL     1       1.067   9.711  19.015  0.00  0.00    +0.000 A 
ATOM      2  C   UNL     1       1.870   9.586  17.871  0.00  0.00    +0.000 A 
ATOM      3  C   UNL     1       2.584   8.408  17.702  0.00  0.00    +0.000 A 
ATOM      4  N   UNL     1       3.705   8.127  16.960  0.00  0.00    +0.000 N 
ATOM      5  C   UNL     1       4.331   7.010  17.485  0.00  0.00    +0.000 A 
ATOM      6  C   UNL     1       5.654   6.598  17.318  0.00  0.00    +0.000 A 
ATOM      7  C   UNL     1       6.035   5.389  17.893  0.00  0.00    +0.000 A 
ATOM      8  C   UNL     1       5.107   4.622  18.587  0.00  0.00    +0.000 A 
ATOM      9  C   UNL     1       3.803   5.077  18.825  0.00  0.00    +0.000 A 
ATOM     10  C   UNL     1       3.413   6.326  18.299  0.00  0.00    +0.000 A 
ATOM     11  C   UNL     1       2.367   7.249  18.403  0.00  0.00    +0.000 A 
ATOM     12  C   UNL     1       1.548   7.311  19.568  0.00  0.00    +0.000 A 
ATOM     13  C   UNL     1       1.225   8.644  19.926  0.00  0.00    +0.000 A 
ATOM     14  C   UNL     1       1.458   8.674  21.352  0.00  0.00    +0.000 C 
ATOM     15  O   UNL     1       1.877   9.553  22.101  0.00  0.00    +0.000 OA
ATOM     16  N   UNL     1       1.386   7.356  21.727  0.00  0.00    +0.000 N 
ATOM     17  C   UNL     1       1.355   6.460  20.694  0.00  0.00    +0.000 C 
ATOM     18  O   UNL     1       1.134   5.260  20.824  0.00  0.00    +0.000 OA
ATOM     19  H   UNL     1       4.153   8.792  16.349  0.00  0.00    +0.000 HD
ATOM     20  H   UNL     1       1.594   7.052  22.660  0.00  0.00    +0.000 HD
ENDROOT
BRANCH   1  26
ATOM     21  C   UNL     1      -1.200  10.728  18.460  0.00  0.00    +0.000 A 
ATOM     22  C   UNL     1      -2.219  11.655  18.752  0.00  0.00    +0.000 A 
ATOM     23  C   UNL     1      -2.045  12.634  19.723  0.00  0.00    +0.000 A 
ATOM     24  C   UNL     1      -0.841  12.710  20.403  0.00  0.00    +0.000 A 
ATOM     25  C   UNL     1       0.174  11.787  20.140  0.00  0.00    +0.000 A 
ATOM     26  C   UNL     1       0.039  10.766  19.192  0.00  0.00    +0.000 A 
BRANCH  21  27
ATOM     27  O   UNL     1      -1.366   9.755  17.486  0.00  0.00    +0.000 OA
BRANCH  27  29
ATOM     28  C   UNL     1      -2.667  10.050  15.453  0.00  0.00    +0.000 C 
ATOM     29  C   UNL     1      -2.672   9.630  16.913  0.00  0.00    +0.000 C 
ENDBRANCH  27  29
ENDBRANCH  21  27
ENDBRANCH   1  26
BRANCH   8  30
ATOM     30  O   UNL     1       5.466   3.395  19.074  0.00  0.00    +0.000 OA
ATOM     31  H   UNL     1       5.910   3.528  19.928  0.00  0.00    +0.000 HD
ENDBRANCH   8  30
TORSDOF 4
ENDMDL
MODEL 6
REMARK VINA RESULT:      -7.1      5.367     11.439
REMARK  Name = 
REMARK  5 active torsions:
REMARK  status: ('A' for Active; 'I' for Inactive)
REMARK    1  A    between atoms: C_1  and  C_2
REMARK    2  A    between atoms: C_2  and  O_3
REMARK    3  A    between atoms: O_3  and  C_4
REMARK    4  A    between atoms: C_9  and  C_10
REMARK    5  A    between atoms: C_17  and  O_18
REMARK                            x       y       z     vdW  Elec       q    Type
REMARK                         _______ _______ _______ _____ _____    ______ ____
ROOT
ATOM      1  C   UNL     1      -3.471  12.950  22.421  0.00  0.00    +0.000 A 
ATOM      2  C   UNL     1      -2.690  12.197  23.313  0.00  0.00    +0.000 A 
ATOM      3  C   UNL     1      -1.597  11.512  22.802  0.00  0.00    +0.000 A 
ATOM      4  N   UNL     1      -0.903  10.428  23.280  0.00  0.00    +0.000 N 
ATOM      5  C   UNL     1      -0.255   9.800  22.231  0.00  0.00    +0.000 A 
ATOM      6  C   UNL     1       0.230   8.493  22.167  0.00  0.00    +0.000 A 
ATOM      7  C   UNL     1       0.915   8.111  21.017  0.00  0.00    +0.000 A 
ATOM      8  C   UNL     1       1.120   9.023  19.989  0.00  0.00    +0.000 A 
ATOM      9  C   UNL     1       0.561  10.307  20.019  0.00  0.00    +0.000 A 
ATOM     10  C   UNL     1      -0.187  10.696  21.150  0.00  0.00    +0.000 A 
ATOM     11  C   UNL     1      -1.047  11.720  21.563  0.00  0.00    +0.000 A 
ATOM     12  C   UNL     1      -1.787  12.490  20.618  0.00  0.00    +0.000 A 
ATOM     13  C   UNL     1      -3.099  12.773  21.070  0.00  0.00    +0.000 A 
ATOM     14  C   UNL     1      -3.922  12.480  19.918  0.00  0.00    +0.000 C 
ATOM     15  O   UNL     1      -5.054  12.016  19.808  0.00  0.00    +0.000 OA
ATOM     16  N   UNL     1      -3.050  12.561  18.861  0.00  0.00    +0.000 N 
ATOM     17  C   UNL     1      -1.729  12.650  19.204  0.00  0.00    +0.000 C 
ATOM     18  O   UNL     1      -0.823  12.888  18.412  0.00  0.00    +0.000 OA
ATOM     19  H   UNL     1      -1.088   9.994  24.171  0.00  0.00    +0.000 HD
ATOM     20  H   UNL     1      -3.320  12.320  17.925  0.00  0.00    +0.000 HD
ENDROOT
BRANCH   1  26
ATOM     21  C   UNL     1      -5.843  13.569  23.104  0.00  0.00    +0.000 A 
ATOM     22  C   UNL     1      -6.744  14.505  23.649  0.00  0.00    +0.000 A 
ATOM     23  C   UNL     1      -6.350  15.808  23.924  0.00  0.00    +0.000 A 
ATOM     24  C   UNL     1      -5.053  16.201  23.640  0.00  0.00    +0.000 A 
ATOM     25  C   UNL     1      -4.141  15.282  23.117  0.00  0.00    +0.000 A 
ATOM     26  C   UNL     1      -4.479  13.950  22.848  0.00  0.00    +0.000 A 
BRANCH  21  27
ATOM     27  O   UNL     1      -6.235  12.270  22.821  0.00  0.00    +0.000 OA
BRANCH  27  29
ATOM     28  C   UNL     1      -7.906  11.129  21.473  0.00  0.00    +0.000 C 
ATOM     29  C   UNL     1      -7.638  12.037  22.661  0.00  0.00    +0.000 C 
ENDBRANCH  27  29
ENDBRANCH  21  27
ENDBRANCH   1  26
BRANCH   8  30
ATOM     30  O   UNL     1       1.869   8.666  18.902  0.00  0.00    +0.000 OA
ATOM     31  H   UNL     1       2.654   8.188  19.220  0.00  0.00    +0.000 HD
ENDBRANCH   8  30
TORSDOF 4
ENDMDL
MODEL 7
REMARK VINA RESULT:      -6.9      2.567      4.839
REMARK  Name = 
REMARK  5 active torsions:
REMARK  status: ('A' for Active; 'I' for Inactive)
REMARK    1  A    between atoms: C_1  and  C_2
REMARK    2  A    between atoms: C_2  and  O_3
REMARK    3  A    between atoms: O_3  and  C_4
REMARK    4  A    between atoms: C_9  and  C_10
REMARK    5  A    between atoms: C_17  and  O_18
REMARK                            x       y       z     vdW  Elec       q    Type
REMARK                         _______ _______ _______ _____ _____    ______ ____
ROOT
ATOM      1  C   UNL     1       1.609   8.237  18.340  0.00  0.00    +0.000 A 
ATOM      2  C   UNL     1       0.705   8.640  17.344  0.00  0.00    +0.000 A 
ATOM      3  C   UNL     1      -0.161   9.685  17.636  0.00  0.00    +0.000 A 
ATOM      4  N   UNL     1      -1.366  10.044  17.083  0.00  0.00    +0.000 N 
ATOM      5  C   UNL     1      -2.080  10.800  17.996  0.00  0.00    +0.000 A 
ATOM      6  C   UNL     1      -3.453  11.048  18.032  0.00  0.00    +0.000 A 
ATOM      7  C   UNL     1      -3.931  11.907  19.017  0.00  0.00    +0.000 A 
ATOM      8  C   UNL     1      -3.051  12.506  19.911  0.00  0.00    +0.000 A 
ATOM      9  C   UNL     1      -1.686  12.191  19.926  0.00  0.00    +0.000 A 
ATOM     10  C   UNL     1      -1.189  11.278  18.972  0.00  0.00    +0.000 A 
ATOM     11  C   UNL     1      -0.032  10.540  18.701  0.00  0.00    +0.000 A 
ATOM     12  C   UNL     1       0.882  10.190  19.737  0.00  0.00    +0.000 A 
ATOM     13  C   UNL     1       1.396   8.879  19.579  0.00  0.00    +0.000 A 
ATOM     14  C   UNL     1       1.287   8.313  20.905  0.00  0.00    +0.000 C 
ATOM     15  O   UNL     1       1.044   7.176  21.299  0.00  0.00    +0.000 OA
ATOM     16  N   UNL     1       1.226   9.411  21.728  0.00  0.00    +0.000 N 
ATOM     17  C   UNL     1       1.061  10.608  21.088  0.00  0.00    +0.000 C 
ATOM     18  O   UNL     1       1.142  11.703  21.635  0.00  0.00    +0.000 OA
ATOM     19  H   UNL     1      -1.777   9.580  16.288  0.00  0.00    +0.000 HD
ATOM     20  H   UNL     1       1.060   9.331  22.714  0.00  0.00    +0.000 HD
ENDROOT
BRANCH   1  26
ATOM     21  C   UNL     1       2.675   5.926  18.287  0.00  0.00    +0.000 A 
ATOM     22  C   UNL     1       3.742   5.090  17.903  0.00  0.00    +0.000 A 
ATOM     23  C   UNL     1       4.907   5.614  17.357  0.00  0.00    +0.000 A 
ATOM     24  C   UNL     1       5.029   6.984  17.203  0.00  0.00    +0.000 A 
ATOM     25  C   UNL     1       3.975   7.828  17.561  0.00  0.00    +0.000 A 
ATOM     26  C   UNL     1       2.770   7.349  18.090  0.00  0.00    +0.000 A 
BRANCH  21  27
ATOM     27  O   UNL     1       1.515   5.408  18.840  0.00  0.00    +0.000 OA
BRANCH  27  29
ATOM     28  C   UNL     1       1.077   3.704  20.518  0.00  0.00    +0.000 C 
ATOM     29  C   UNL     1       1.488   3.998  19.086  0.00  0.00    +0.000 C 
ENDBRANCH  27  29
ENDBRANCH  21  27
ENDBRANCH   1  26
BRANCH   8  30
ATOM     30  O   UNL     1      -3.517  13.416  20.819  0.00  0.00    +0.000 OA
ATOM     31  H   UNL     1      -2.932  13.394  21.595  0.00  0.00    +0.000 HD
ENDBRANCH   8  30
TORSDOF 4
ENDMDL
MODEL 8
REMARK VINA RESULT:      -6.8      7.269     12.572
REMARK  Name = 
REMARK  5 active torsions:
REMARK  status: ('A' for Active; 'I' for Inactive)
REMARK    1  A    between atoms: C_1  and  C_2
REMARK    2  A    between atoms: C_2  and  O_3
REMARK    3  A    between atoms: O_3  and  C_4
REMARK    4  A    between atoms: C_9  and  C_10
REMARK    5  A    between atoms: C_17  and  O_18
REMARK                            x       y       z     vdW  Elec       q    Type
REMARK                         _______ _______ _______ _____ _____    ______ ____
ROOT
ATOM      1  C   UNL     1      -5.426  12.776  21.360  0.00  0.00    +0.000 A 
ATOM      2  C   UNL     1      -4.024  12.805  21.276  0.00  0.00    +0.000 A 
ATOM      3  C   UNL     1      -3.435  12.422  20.080  0.00  0.00    +0.000 A 
ATOM      4  N   UNL     1      -2.169  11.971  19.797  0.00  0.00    +0.000 N 
ATOM      5  C   UNL     1      -2.194  11.249  18.617  0.00  0.00    +0.000 A 
ATOM      6  C   UNL     1      -1.271  10.310  18.153  0.00  0.00    +0.000 A 
ATOM      7  C   UNL     1      -1.479   9.765  16.890  0.00  0.00    +0.000 A 
ATOM      8  C   UNL     1      -2.563  10.171  16.122  0.00  0.00    +0.000 A 
ATOM      9  C   UNL     1      -3.534  11.049  16.622  0.00  0.00    +0.000 A 
ATOM     10  C   UNL     1      -3.373  11.571  17.923  0.00  0.00    +0.000 A 
ATOM     11  C   UNL     1      -4.097  12.281  18.886  0.00  0.00    +0.000 A 
ATOM     12  C   UNL     1      -5.522  12.258  18.906  0.00  0.00    +0.000 A 
ATOM     13  C   UNL     1      -6.039  12.203  20.224  0.00  0.00    +0.000 A 
ATOM     14  C   UNL     1      -7.057  11.180  20.143  0.00  0.00    +0.000 C 
ATOM     15  O   UNL     1      -7.442  10.334  20.946  0.00  0.00    +0.000 OA
ATOM     16  N   UNL     1      -7.365  11.126  18.807  0.00  0.00    +0.000 N 
ATOM     17  C   UNL     1      -6.522  11.825  17.988  0.00  0.00    +0.000 C 
ATOM     18  O   UNL     1      -6.724  12.025  16.794  0.00  0.00    +0.000 OA
ATOM     19  H   UNL     1      -1.431  11.912  20.480  0.00  0.00    +0.000 HD
ATOM     20  H   UNL     1      -7.989  10.437  18.429  0.00  0.00    +0.000 HD
ENDROOT
BRANCH   1  26
ATOM     21  C   UNL     1      -6.604  14.798  22.361  0.00  0.00    +0.000 A 
ATOM     22  C   UNL     1      -7.463  15.343  23.335  0.00  0.00    +0.000 A 
ATOM     23  C   UNL     1      -7.916  14.580  24.403  0.00  0.00    +0.000 A 
ATOM     24  C   UNL     1      -7.501  13.265  24.524  0.00  0.00    +0.000 A 
ATOM     25  C   UNL     1      -6.664  12.701  23.558  0.00  0.00    +0.000 A 
ATOM     26  C   UNL     1      -6.201  13.419  22.448  0.00  0.00    +0.000 A 
BRANCH  21  27
ATOM     27  O   UNL     1      -6.143  15.558  21.297  0.00  0.00    +0.000 OA
BRANCH  27  29
ATOM     28  C   UNL     1      -7.876  15.249  19.620  0.00  0.00    +0.000 C 
ATOM     29  C   UNL     1      -7.130  16.231  20.507  0.00  0.00    +0.000 C 
ENDBRANCH  27  29
ENDBRANCH  21  27
ENDBRANCH   1  26
BRANCH   8  30
ATOM     30  O   UNL     1      -2.712   9.696  14.849  0.00  0.00    +0.000 OA
ATOM     31  H   UNL     1      -1.827   9.509  14.491  0.00  0.00    +0.000 HD
ENDBRANCH   8  30
TORSDOF 4
ENDMDL
MODEL 9
REMARK VINA RESULT:      -6.8      5.433     11.277
REMARK  Name = 
REMARK  5 active torsions:
REMARK  status: ('A' for Active; 'I' for Inactive)
REMARK    1  A    between atoms: C_1  and  C_2
REMARK    2  A    between atoms: C_2  and  O_3
REMARK    3  A    between atoms: O_3  and  C_4
REMARK    4  A    between atoms: C_9  and  C_10
REMARK    5  A    between atoms: C_17  and  O_18
REMARK                            x       y       z     vdW  Elec       q    Type
REMARK                         _______ _______ _______ _____ _____    ______ ____
ROOT
ATOM      1  C   UNL     1      -3.502  12.837  22.656  0.00  0.00    +0.000 A 
ATOM      2  C   UNL     1      -2.679  12.055  23.483  0.00  0.00    +0.000 A 
ATOM      3  C   UNL     1      -1.580  11.434  22.907  0.00  0.00    +0.000 A 
ATOM      4  N   UNL     1      -0.844  10.344  23.303  0.00  0.00    +0.000 N 
ATOM      5  C   UNL     1      -0.205   9.800  22.203  0.00  0.00    +0.000 A 
ATOM      6  C   UNL     1       0.314   8.514  22.049  0.00  0.00    +0.000 A 
ATOM      7  C   UNL     1       0.982   8.221  20.864  0.00  0.00    +0.000 A 
ATOM      8  C   UNL     1       1.136   9.198  19.888  0.00  0.00    +0.000 A 
ATOM      9  C   UNL     1       0.542  10.462  20.009  0.00  0.00    +0.000 A 
ATOM     10  C   UNL     1      -0.188  10.761  21.178  0.00  0.00    +0.000 A 
ATOM     11  C   UNL     1      -1.066  11.732  21.671  0.00  0.00    +0.000 A 
ATOM     12  C   UNL     1      -1.850  12.535  20.792  0.00  0.00    +0.000 A 
ATOM     13  C   UNL     1      -3.159  12.752  21.289  0.00  0.00    +0.000 A 
ATOM     14  C   UNL     1      -4.001  12.505  20.140  0.00  0.00    +0.000 C 
ATOM     15  O   UNL     1      -5.121  12.014  20.028  0.00  0.00    +0.000 OA
ATOM     16  N   UNL     1      -3.157  12.674  19.071  0.00  0.00    +0.000 N 
ATOM     17  C   UNL     1      -1.832  12.781  19.388  0.00  0.00    +0.000 C 
ATOM     18  O   UNL     1      -0.951  13.092  18.592  0.00  0.00    +0.000 OA
ATOM     19  H   UNL     1      -0.996   9.852  24.170  0.00  0.00    +0.000 HD
ATOM     20  H   UNL     1      -3.443  12.481  18.128  0.00  0.00    +0.000 HD
ENDROOT
BRANCH   1  26
ATOM     21  C   UNL     1      -4.215  15.166  23.393  0.00  0.00    +0.000 A 
ATOM     22  C   UNL     1      -5.239  16.071  23.735  0.00  0.00    +0.000 A 
ATOM     23  C   UNL     1      -6.553  15.647  23.885  0.00  0.00    +0.000 A 
ATOM     24  C   UNL     1      -6.860  14.308  23.714  0.00  0.00    +0.000 A 
ATOM     25  C   UNL     1      -5.861  13.400  23.356  0.00  0.00    +0.000 A 
ATOM     26  C   UNL     1      -4.527  13.780  23.166  0.00  0.00    +0.000 A 
BRANCH  21  27
ATOM     27  O   UNL     1      -2.901  15.584  23.250  0.00  0.00    +0.000 OA
BRANCH  27  29
ATOM     28  C   UNL     1      -2.149  15.264  25.540  0.00  0.00    +0.000 C 
ATOM     29  C   UNL     1      -2.300  16.230  24.377  0.00  0.00    +0.000 C 
ENDBRANCH  27  29
ENDBRANCH  21  27
ENDBRANCH   1  26
BRANCH   8  30
ATOM     30  O   UNL     1       1.868   8.930  18.765  0.00  0.00    +0.000 OA
ATOM     31  H   UNL     1       1.300   9.084  17.991  0.00  0.00    +0.000 HD
ENDBRANCH   8  30
TORSDOF 4
ENDMDL
