MODEL 1
REMARK VINA RESULT:      -9.2      0.000      0.000
REMARK  Name = 
REMARK  9 active torsions:
REMARK  status: ('A' for Active; 'I' for Inactive)
REMARK    1  A    between atoms: C_1  and  C_2
REMARK    2  A    between atoms: C_5  and  C_6
REMARK    3  A    between atoms: C_11  and  C_12
REMARK    4  A    between atoms: C_15  and  C_16
REMARK    5  A    between atoms: C_23  and  C_24
REMARK    6  A    between atoms: C_26  and  C_27
REMARK    7  A    between atoms: C_27  and  C_28
REMARK    8  A    between atoms: C_27  and  C_29
REMARK    9  A    between atoms: C_31  and  C_32
REMARK                            x       y       z     vdW  Elec       q    Type
REMARK                         _______ _______ _______ _____ _____    ______ ____
ROOT
ATOM      1  C   UNL     1       3.631   3.286  18.276  0.00  0.00    +0.000 C 
ATOM      2  C   UNL     1       3.338   4.764  18.182  0.00  0.00    +0.000 A 
ATOM      3  C   UNL     1       2.177   5.226  18.851  0.00  0.00    +0.000 A 
ATOM      4  C   UNL     1       1.824   6.584  18.897  0.00  0.00    +0.000 A 
ATOM      5  C   UNL     1       2.628   7.527  18.271  0.00  0.00    +0.000 A 
ATOM      6  C   UNL     1       3.761   7.056  17.540  0.00  0.00    +0.000 A 
ATOM      7  C   UNL     1       4.146   5.684  17.473  0.00  0.00    +0.000 A 
ENDROOT
BRANCH   5   8
ATOM      8  C   UNL     1       2.186   8.964  18.129  0.00  0.00    +0.000 C 
ATOM      9  O   UNL     1       2.613   9.562  17.137  0.00  0.00    +0.000 OA
ATOM     10  N   UNL     1       1.222   9.578  18.965  0.00  0.00    +0.000 N 
ATOM     11  C   UNL     1       0.482  10.688  18.374  0.00  0.00    +0.000 C 
ATOM     12  C   UNL     1      -0.815  10.933  19.142  0.00  0.00    +0.000 C 
ATOM     13  C   UNL     1      -0.477  11.623  20.480  0.00  0.00    +0.000 C 
ATOM     14  C   UNL     1       0.749  10.855  21.104  0.00  0.00    +0.000 C 
ATOM     15  C   UNL     1       1.096   9.477  20.433  0.00  0.00    +0.000 C 
BRANCH  13  16
ATOM     16  C   UNL     1      -1.715  11.929  21.354  0.00  0.00    +0.000 A 
ATOM     17  C   UNL     1      -1.736  11.699  22.738  0.00  0.00    +0.000 A 
ATOM     18  C   UNL     1      -2.868  11.996  23.522  0.00  0.00    +0.000 A 
ATOM     19  C   UNL     1      -4.005  12.580  22.945  0.00  0.00    +0.000 A 
ATOM     20  C   UNL     1      -3.972  12.901  21.591  0.00  0.00    +0.000 A 
ATOM     21  C   UNL     1      -2.839  12.596  20.817  0.00  0.00    +0.000 A 
BRANCH  19  22
ATOM     22  C   UNL     1      -5.171  12.845  23.733  0.00  0.00    +0.000 C 
ATOM     23  N   UNL     1      -6.138  13.053  24.359  0.00  0.00    +0.000 NA
ENDBRANCH  19  22
ENDBRANCH  13  16
ENDBRANCH   5   8
BRANCH   7  24
ATOM     24  C   UNL     1       5.352   5.266  16.689  0.00  0.00    +0.000 A 
ATOM     25  N   UNL     1       5.353   4.971  15.330  0.00  0.00    +0.000 N 
ATOM     26  C   UNL     1       6.594   4.520  14.943  0.00  0.00    +0.000 A 
ATOM     27  N   UNL     1       7.430   4.616  15.948  0.00  0.00    +0.000 NA
ATOM     28  C   UNL     1       6.696   5.090  17.019  0.00  0.00    +0.000 A 
ATOM     29  C   UNL     1       7.404   5.295  18.304  0.00  0.00    +0.000 C 
ATOM     30  H   UNL     1       4.569   5.050  14.705  0.00  0.00    +0.000 HD
BRANCH  26  31
ATOM     31  C   UNL     1       6.897   4.021  13.553  0.00  0.00    +0.000 C 
ATOM     32  C   UNL     1       5.616   3.612  12.824  0.00  0.00    +0.000 C 
ATOM     33  C   UNL     1       7.646   5.075  12.732  0.00  0.00    +0.000 C 
ENDBRANCH  26  31
ENDBRANCH   7  24
TORSDOF 5
ENDMDL
MODEL 2
REMARK VINA RESULT:      -9.1      0.609      1.040
REMARK  Name = 
REMARK  9 active torsions:
REMARK  status: ('A' for Active; 'I' for Inactive)
REMARK    1  A    between atoms: C_1  and  C_2
REMARK    2  A    between atoms: C_5  and  C_6
REMARK    3  A    between atoms: C_11  and  C_12
REMARK    4  A    between atoms: C_15  and  C_16
REMARK    5  A    between atoms: C_23  and  C_24
REMARK    6  A    between atoms: C_26  and  C_27
REMARK    7  A    between atoms: C_27  and  C_28
REMARK    8  A    between atoms: C_27  and  C_29
REMARK    9  A    between atoms: C_31  and  C_32
REMARK                            x       y       z     vdW  Elec       q    Type
REMARK                         _______ _______ _______ _____ _____    ______ ____
ROOT
ATOM      1  C   UNL     1       4.222   3.776  19.478  0.00  0.00    +0.000 C 
ATOM      2  C   UNL     1       3.706   5.141  19.088  0.00  0.00    +0.000 A 
ATOM      3  C   UNL     1       2.561   5.609  19.778  0.00  0.00    +0.000 A 
ATOM      4  C   UNL     1       2.017   6.883  19.558  0.00  0.00    +0.000 A 
ATOM      5  C   UNL     1       2.608   7.735  18.634  0.00  0.00    +0.000 A 
ATOM      6  C   UNL     1       3.722   7.240  17.890  0.00  0.00    +0.000 A 
ATOM      7  C   UNL     1       4.297   5.950  18.089  0.00  0.00    +0.000 A 
ENDROOT
BRANCH   5   8
ATOM      8  C   UNL     1       1.947   9.030  18.226  0.00  0.00    +0.000 C 
ATOM      9  O   UNL     1       2.199   9.426  17.084  0.00  0.00    +0.000 OA
ATOM     10  N   UNL     1       0.973   9.698  19.007  0.00  0.00    +0.000 N 
ATOM     11  C   UNL     1       0.031  10.534  18.271  0.00  0.00    +0.000 C 
ATOM     12  C   UNL     1      -1.223  10.788  19.106  0.00  0.00    +0.000 C 
ATOM     13  C   UNL     1      -0.885  11.811  20.210  0.00  0.00    +0.000 C 
ATOM     14  C   UNL     1       0.489  11.374  20.847  0.00  0.00    +0.000 C 
ATOM     15  C   UNL     1       0.982   9.932  20.465  0.00  0.00    +0.000 C 
BRANCH  13  16
ATOM     16  C   UNL     1      -2.079  12.157  21.127  0.00  0.00    +0.000 A 
ATOM     17  C   UNL     1      -3.324  12.566  20.624  0.00  0.00    +0.000 A 
ATOM     18  C   UNL     1      -4.406  12.866  21.474  0.00  0.00    +0.000 A 
ATOM     19  C   UNL     1      -4.286  12.718  22.864  0.00  0.00    +0.000 A 
ATOM     20  C   UNL     1      -3.090  12.226  23.379  0.00  0.00    +0.000 A 
ATOM     21  C   UNL     1      -2.015  11.935  22.522  0.00  0.00    +0.000 A 
BRANCH  19  22
ATOM     22  C   UNL     1      -5.372  13.060  23.731  0.00  0.00    +0.000 C 
ATOM     23  N   UNL     1      -6.251  13.362  24.444  0.00  0.00    +0.000 NA
ENDBRANCH  19  22
ENDBRANCH  13  16
ENDBRANCH   5   8
BRANCH   7  24
ATOM     24  C   UNL     1       5.470   5.501  17.271  0.00  0.00    +0.000 A 
ATOM     25  N   UNL     1       5.415   5.158  15.925  0.00  0.00    +0.000 N 
ATOM     26  C   UNL     1       6.639   4.691  15.504  0.00  0.00    +0.000 A 
ATOM     27  N   UNL     1       7.515   4.821  16.470  0.00  0.00    +0.000 NA
ATOM     28  C   UNL     1       6.826   5.334  17.553  0.00  0.00    +0.000 A 
ATOM     29  C   UNL     1       7.586   5.584  18.800  0.00  0.00    +0.000 C 
ATOM     30  H   UNL     1       4.606   5.216  15.331  0.00  0.00    +0.000 HD
BRANCH  26  31
ATOM     31  C   UNL     1       6.884   4.141  14.122  0.00  0.00    +0.000 C 
ATOM     32  C   UNL     1       5.569   3.754  13.442  0.00  0.00    +0.000 C 
ATOM     33  C   UNL     1       7.643   5.145  13.249  0.00  0.00    +0.000 C 
ENDBRANCH  26  31
ENDBRANCH   7  24
TORSDOF 5
ENDMDL
MODEL 3
REMARK VINA RESULT:      -7.8      1.566      2.555
REMARK  Name = 
REMARK  9 active torsions:
REMARK  status: ('A' for Active; 'I' for Inactive)
REMARK    1  A    between atoms: C_1  and  C_2
REMARK    2  A    between atoms: C_5  and  C_6
REMARK    3  A    between atoms: C_11  and  C_12
REMARK    4  A    between atoms: C_15  and  C_16
REMARK    5  A    between atoms: C_23  and  C_24
REMARK    6  A    between atoms: C_26  and  C_27
REMARK    7  A    between atoms: C_27  and  C_28
REMARK    8  A    between atoms: C_27  and  C_29
REMARK    9  A    between atoms: C_31  and  C_32
REMARK                            x       y       z     vdW  Elec       q    Type
REMARK                         _______ _______ _______ _____ _____    ______ ____
ROOT
ATOM      1  C   UNL     1       2.459   4.280  20.899  0.00  0.00    +0.000 C 
ATOM      2  C   UNL     1       2.191   5.663  20.355  0.00  0.00    +0.000 A 
ATOM      3  C   UNL     1       1.336   6.493  21.121  0.00  0.00    +0.000 A 
ATOM      4  C   UNL     1       1.054   7.820  20.762  0.00  0.00    +0.000 A 
ATOM      5  C   UNL     1       1.625   8.361  19.617  0.00  0.00    +0.000 A 
ATOM      6  C   UNL     1       2.433   7.505  18.809  0.00  0.00    +0.000 A 
ATOM      7  C   UNL     1       2.737   6.152  19.145  0.00  0.00    +0.000 A 
ENDROOT
BRANCH   5   8
ATOM      8  C   UNL     1       1.199   9.711  19.091  0.00  0.00    +0.000 C 
ATOM      9  O   UNL     1       1.665  10.030  17.993  0.00  0.00    +0.000 OA
ATOM     10  N   UNL     1       0.212  10.519  19.703  0.00  0.00    +0.000 N 
ATOM     11  C   UNL     1      -0.499  11.436  18.818  0.00  0.00    +0.000 C 
ATOM     12  C   UNL     1      -1.820  11.871  19.450  0.00  0.00    +0.000 C 
ATOM     13  C   UNL     1      -1.522  12.886  20.573  0.00  0.00    +0.000 C 
ATOM     14  C   UNL     1      -0.324  12.309  21.418  0.00  0.00    +0.000 C 
ATOM     15  C   UNL     1       0.035  10.804  21.141  0.00  0.00    +0.000 C 
BRANCH  13  16
ATOM     16  C   UNL     1      -2.786  13.407  21.293  0.00  0.00    +0.000 A 
ATOM     17  C   UNL     1      -3.482  12.645  22.244  0.00  0.00    +0.000 A 
ATOM     18  C   UNL     1      -4.625  13.140  22.900  0.00  0.00    +0.000 A 
ATOM     19  C   UNL     1      -5.082  14.444  22.655  0.00  0.00    +0.000 A 
ATOM     20  C   UNL     1      -4.354  15.250  21.785  0.00  0.00    +0.000 A 
ATOM     21  C   UNL     1      -3.218  14.743  21.132  0.00  0.00    +0.000 A 
BRANCH  19  22
ATOM     22  C   UNL     1      -6.267  14.934  23.292  0.00  0.00    +0.000 C 
ATOM     23  N   UNL     1      -7.239  15.352  23.794  0.00  0.00    +0.000 NA
ENDBRANCH  19  22
ENDBRANCH  13  16
ENDBRANCH   5   8
BRANCH   7  24
ATOM     24  C   UNL     1       3.598   5.316  18.248  0.00  0.00    +0.000 A 
ATOM     25  N   UNL     1       4.947   5.544  18.001  0.00  0.00    +0.000 N 
ATOM     26  C   UNL     1       5.412   4.663  17.053  0.00  0.00    +0.000 A 
ATOM     27  N   UNL     1       4.472   3.799  16.757  0.00  0.00    +0.000 NA
ATOM     28  C   UNL     1       3.361   4.167  17.492  0.00  0.00    +0.000 A 
ATOM     29  C   UNL     1       2.135   3.349  17.347  0.00  0.00    +0.000 C 
ATOM     30  H   UNL     1       5.515   6.257  18.426  0.00  0.00    +0.000 HD
BRANCH  26  31
ATOM     31  C   UNL     1       6.810   4.715  16.489  0.00  0.00    +0.000 C 
ATOM     32  C   UNL     1       6.797   4.541  14.969  0.00  0.00    +0.000 C 
ATOM     33  C   UNL     1       7.510   6.027  16.855  0.00  0.00    +0.000 C 
ENDBRANCH  26  31
ENDBRANCH   7  24
TORSDOF 5
ENDMDL
MODEL 4
REMARK VINA RESULT:      -7.7      3.228     12.138
REMARK  Name = 
REMARK  9 active torsions:
REMARK  status: ('A' for Active; 'I' for Inactive)
REMARK    1  A    between atoms: C_1  and  C_2
REMARK    2  A    between atoms: C_5  and  C_6
REMARK    3  A    between atoms: C_11  and  C_12
REMARK    4  A    between atoms: C_15  and  C_16
REMARK    5  A    between atoms: C_23  and  C_24
REMARK    6  A    between atoms: C_26  and  C_27
REMARK    7  A    between atoms: C_27  and  C_28
REMARK    8  A    between atoms: C_27  and  C_29
REMARK    9  A    between atoms: C_31  and  C_32
REMARK                            x       y       z     vdW  Elec       q    Type
REMARK                         _______ _______ _______ _____ _____    ______ ____
ROOT
ATOM      1  C   UNL     1      -6.368  12.293  17.453  0.00  0.00    +0.000 C 
ATOM      2  C   UNL     1      -5.029  12.173  18.140  0.00  0.00    +0.000 A 
ATOM      3  C   UNL     1      -3.965  11.640  17.371  0.00  0.00    +0.000 A 
ATOM      4  C   UNL     1      -2.657  11.533  17.866  0.00  0.00    +0.000 A 
ATOM      5  C   UNL     1      -2.371  11.959  19.156  0.00  0.00    +0.000 A 
ATOM      6  C   UNL     1      -3.455  12.434  19.956  0.00  0.00    +0.000 A 
ATOM      7  C   UNL     1      -4.795  12.554  19.482  0.00  0.00    +0.000 A 
ENDROOT
BRANCH   5   8
ATOM      8  C   UNL     1      -1.030  11.684  19.795  0.00  0.00    +0.000 C 
ATOM      9  O   UNL     1      -0.635  12.532  20.601  0.00  0.00    +0.000 OA
ATOM     10  N   UNL     1      -0.313  10.475  19.630  0.00  0.00    +0.000 N 
ATOM     11  C   UNL     1       0.593  10.120  20.717  0.00  0.00    +0.000 C 
ATOM     12  C   UNL     1       0.916   8.628  20.677  0.00  0.00    +0.000 C 
ATOM     13  C   UNL     1       1.899   8.364  19.518  0.00  0.00    +0.000 C 
ATOM     14  C   UNL     1       1.365   9.153  18.264  0.00  0.00    +0.000 C 
ATOM     15  C   UNL     1      -0.101   9.707  18.387  0.00  0.00    +0.000 C 
BRANCH  13  16
ATOM     16  C   UNL     1       2.308   6.880  19.373  0.00  0.00    +0.000 A 
ATOM     17  C   UNL     1       1.974   5.908  20.328  0.00  0.00    +0.000 A 
ATOM     18  C   UNL     1       2.344   4.558  20.174  0.00  0.00    +0.000 A 
ATOM     19  C   UNL     1       3.026   4.130  19.025  0.00  0.00    +0.000 A 
ATOM     20  C   UNL     1       3.286   5.059  18.022  0.00  0.00    +0.000 A 
ATOM     21  C   UNL     1       2.917   6.405  18.189  0.00  0.00    +0.000 A 
BRANCH  19  22
ATOM     22  C   UNL     1       3.437   2.766  18.885  0.00  0.00    +0.000 C 
ATOM     23  N   UNL     1       3.796   1.656  18.779  0.00  0.00    +0.000 NA
ENDBRANCH  19  22
ENDBRANCH  13  16
ENDBRANCH   5   8
BRANCH   7  24
ATOM     24  C   UNL     1      -5.881  13.065  20.380  0.00  0.00    +0.000 A 
ATOM     25  N   UNL     1      -5.925  14.343  20.926  0.00  0.00    +0.000 N 
ATOM     26  C   UNL     1      -6.993  14.455  21.786  0.00  0.00    +0.000 A 
ATOM     27  N   UNL     1      -7.712  13.360  21.739  0.00  0.00    +0.000 NA
ATOM     28  C   UNL     1      -7.061  12.505  20.870  0.00  0.00    +0.000 A 
ATOM     29  C   UNL     1      -7.666  11.175  20.629  0.00  0.00    +0.000 C 
ATOM     30  H   UNL     1      -5.272  15.086  20.748  0.00  0.00    +0.000 HD
BRANCH  26  31
ATOM     31  C   UNL     1      -7.260  15.684  22.617  0.00  0.00    +0.000 C 
ATOM     32  C   UNL     1      -6.054  16.030  23.492  0.00  0.00    +0.000 C 
ATOM     33  C   UNL     1      -7.624  16.884  21.738  0.00  0.00    +0.000 C 
ENDBRANCH  26  31
ENDBRANCH   7  24
TORSDOF 5
ENDMDL
MODEL 5
REMARK VINA RESULT:      -7.6      1.191      1.651
REMARK  Name = 
REMARK  9 active torsions:
REMARK  status: ('A' for Active; 'I' for Inactive)
REMARK    1  A    between atoms: C_1  and  C_2
REMARK    2  A    between atoms: C_5  and  C_6
REMARK    3  A    between atoms: C_11  and  C_12
REMARK    4  A    between atoms: C_15  and  C_16
REMARK    5  A    between atoms: C_23  and  C_24
REMARK    6  A    between atoms: C_26  and  C_27
REMARK    7  A    between atoms: C_27  and  C_28
REMARK    8  A    between atoms: C_27  and  C_29
REMARK    9  A    between atoms: C_31  and  C_32
REMARK                            x       y       z     vdW  Elec       q    Type
REMARK                         _______ _______ _______ _____ _____    ______ ____
ROOT
ATOM      1  C   UNL     1       3.219   3.873  20.126  0.00  0.00    +0.000 C 
ATOM      2  C   UNL     1       2.853   5.300  19.797  0.00  0.00    +0.000 A 
ATOM      3  C   UNL     1       1.753   5.853  20.498  0.00  0.00    +0.000 A 
ATOM      4  C   UNL     1       1.347   7.186  20.334  0.00  0.00    +0.000 A 
ATOM      5  C   UNL     1       2.035   8.014  19.457  0.00  0.00    +0.000 A 
ATOM      6  C   UNL     1       3.102   7.440  18.699  0.00  0.00    +0.000 A 
ATOM      7  C   UNL     1       3.537   6.089  18.842  0.00  0.00    +0.000 A 
ENDROOT
BRANCH   5   8
ATOM      8  C   UNL     1       1.518   9.388  19.105  0.00  0.00    +0.000 C 
ATOM      9  O   UNL     1       1.966   9.881  18.066  0.00  0.00    +0.000 OA
ATOM     10  N   UNL     1       0.472  10.038  19.803  0.00  0.00    +0.000 N 
ATOM     11  C   UNL     1      -0.297  11.012  19.035  0.00  0.00    +0.000 C 
ATOM     12  C   UNL     1      -1.649  11.266  19.698  0.00  0.00    +0.000 C 
ATOM     13  C   UNL     1      -1.431  12.143  20.948  0.00  0.00    +0.000 C 
ATOM     14  C   UNL     1      -0.200  11.545  21.729  0.00  0.00    +0.000 C 
ATOM     15  C   UNL     1       0.267  10.118  21.263  0.00  0.00    +0.000 C 
BRANCH  13  16
ATOM     16  C   UNL     1      -2.734  12.476  21.711  0.00  0.00    +0.000 A 
ATOM     17  C   UNL     1      -3.943  12.751  21.055  0.00  0.00    +0.000 A 
ATOM     18  C   UNL     1      -5.124  13.040  21.766  0.00  0.00    +0.000 A 
ATOM     19  C   UNL     1      -5.139  13.017  23.169  0.00  0.00    +0.000 A 
ATOM     20  C   UNL     1      -3.973  12.657  23.839  0.00  0.00    +0.000 A 
ATOM     21  C   UNL     1      -2.799  12.375  23.120  0.00  0.00    +0.000 A 
BRANCH  19  22
ATOM     22  C   UNL     1      -6.328  13.350  23.893  0.00  0.00    +0.000 C 
ATOM     23  N   UNL     1      -7.287  13.636  24.500  0.00  0.00    +0.000 NA
ENDBRANCH  19  22
ENDBRANCH  13  16
ENDBRANCH   5   8
BRANCH   7  24
ATOM     24  C   UNL     1       4.668   5.558  18.014  0.00  0.00    +0.000 A 
ATOM     25  N   UNL     1       4.555   5.130  16.696  0.00  0.00    +0.000 N 
ATOM     26  C   UNL     1       5.750   4.605  16.264  0.00  0.00    +0.000 A 
ATOM     27  N   UNL     1       6.665   4.776  17.186  0.00  0.00    +0.000 NA
ATOM     28  C   UNL     1       6.030   5.376  18.257  0.00  0.00    +0.000 A 
ATOM     29  C   UNL     1       6.841   5.687  19.456  0.00  0.00    +0.000 C 
ATOM     30  H   UNL     1       3.725   5.169  16.129  0.00  0.00    +0.000 HD
BRANCH  26  31
ATOM     31  C   UNL     1       5.931   3.960  14.912  0.00  0.00    +0.000 C 
ATOM     32  C   UNL     1       4.693   4.161  14.037  0.00  0.00    +0.000 C 
ATOM     33  C   UNL     1       7.168   4.508  14.194  0.00  0.00    +0.000 C 
ENDBRANCH  26  31
ENDBRANCH   7  24
TORSDOF 5
ENDMDL
MODEL 6
REMARK VINA RESULT:      -7.6      1.766      2.566
REMARK  Name = 
REMARK  9 active torsions:
REMARK  status: ('A' for Active; 'I' for Inactive)
REMARK    1  A    between atoms: C_1  and  C_2
REMARK    2  A    between atoms: C_5  and  C_6
REMARK    3  A    between atoms: C_11  and  C_12
REMARK    4  A    between atoms: C_15  and  C_16
REMARK    5  A    between atoms: C_23  and  C_24
REMARK    6  A    between atoms: C_26  and  C_27
REMARK    7  A    between atoms: C_27  and  C_28
REMARK    8  A    between atoms: C_27  and  C_29
REMARK    9  A    between atoms: C_31  and  C_32
REMARK                            x       y       z     vdW  Elec       q    Type
REMARK                         _______ _______ _______ _____ _____    ______ ____
ROOT
ATOM      1  C   UNL     1       2.618   4.088  20.689  0.00  0.00    +0.000 C 
ATOM      2  C   UNL     1       2.375   5.456  20.099  0.00  0.00    +0.000 A 
ATOM      3  C   UNL     1       1.609   6.359  20.878  0.00  0.00    +0.000 A 
ATOM      4  C   UNL     1       1.364   7.680  20.476  0.00  0.00    +0.000 A 
ATOM      5  C   UNL     1       1.882   8.143  19.274  0.00  0.00    +0.000 A 
ATOM      6  C   UNL     1       2.597   7.216  18.457  0.00  0.00    +0.000 A 
ATOM      7  C   UNL     1       2.863   5.866  18.836  0.00  0.00    +0.000 A 
ENDROOT
BRANCH   5   8
ATOM      8  C   UNL     1       1.483   9.487  18.713  0.00  0.00    +0.000 C 
ATOM      9  O   UNL     1       1.689   9.649  17.507  0.00  0.00    +0.000 OA
ATOM     10  N   UNL     1       0.772  10.467  19.447  0.00  0.00    +0.000 N 
ATOM     11  C   UNL     1      -0.038  11.390  18.658  0.00  0.00    +0.000 C 
ATOM     12  C   UNL     1      -1.104  12.046  19.532  0.00  0.00    +0.000 C 
ATOM     13  C   UNL     1      -0.430  13.105  20.428  0.00  0.00    +0.000 C 
ATOM     14  C   UNL     1       0.875  12.451  21.023  0.00  0.00    +0.000 C 
ATOM     15  C   UNL     1       0.992  10.894  20.843  0.00  0.00    +0.000 C 
BRANCH  13  16
ATOM     16  C   UNL     1      -1.410  13.847  21.365  0.00  0.00    +0.000 A 
ATOM     17  C   UNL     1      -2.454  14.651  20.881  0.00  0.00    +0.000 A 
ATOM     18  C   UNL     1      -3.346  15.310  21.748  0.00  0.00    +0.000 A 
ATOM     19  C   UNL     1      -3.247  15.144  23.138  0.00  0.00    +0.000 A 
ATOM     20  C   UNL     1      -2.278  14.278  23.636  0.00  0.00    +0.000 A 
ATOM     21  C   UNL     1      -1.389  13.630  22.761  0.00  0.00    +0.000 A 
BRANCH  19  22
ATOM     22  C   UNL     1      -4.129  15.844  24.022  0.00  0.00    +0.000 C 
ATOM     23  N   UNL     1      -4.868  16.412  24.730  0.00  0.00    +0.000 NA
ENDBRANCH  19  22
ENDBRANCH  13  16
ENDBRANCH   5   8
BRANCH   7  24
ATOM     24  C   UNL     1       3.625   4.952  17.926  0.00  0.00    +0.000 A 
ATOM     25  N   UNL     1       4.897   5.208  17.425  0.00  0.00    +0.000 N 
ATOM     26  C   UNL     1       5.265   4.223  16.539  0.00  0.00    +0.000 A 
ATOM     27  N   UNL     1       4.355   3.281  16.525  0.00  0.00    +0.000 NA
ATOM     28  C   UNL     1       3.352   3.696  17.381  0.00  0.00    +0.000 A 
ATOM     29  C   UNL     1       2.181   2.808  17.558  0.00  0.00    +0.000 C 
ATOM     30  H   UNL     1       5.473   6.001  17.648  0.00  0.00    +0.000 HD
BRANCH  26  31
ATOM     31  C   UNL     1       6.547   4.260  15.745  0.00  0.00    +0.000 C 
ATOM     32  C   UNL     1       6.274   4.077  14.251  0.00  0.00    +0.000 C 
ATOM     33  C   UNL     1       7.307   5.570  15.975  0.00  0.00    +0.000 C 
ENDBRANCH  26  31
ENDBRANCH   7  24
TORSDOF 5
ENDMDL
MODEL 7
REMARK VINA RESULT:      -7.6      2.134      3.035
REMARK  Name = 
REMARK  9 active torsions:
REMARK  status: ('A' for Active; 'I' for Inactive)
REMARK    1  A    between atoms: C_1  and  C_2
REMARK    2  A    between atoms: C_5  and  C_6
REMARK    3  A    between atoms: C_11  and  C_12
REMARK    4  A    between atoms: C_15  and  C_16
REMARK    5  A    between atoms: C_23  and  C_24
REMARK    6  A    between atoms: C_26  and  C_27
REMARK    7  A    between atoms: C_27  and  C_28
REMARK    8  A    between atoms: C_27  and  C_29
REMARK    9  A    between atoms: C_31  and  C_32
REMARK                            x       y       z     vdW  Elec       q    Type
REMARK                         _______ _______ _______ _____ _____    ______ ____
ROOT
ATOM      1  C   UNL     1       2.367   4.762  20.957  0.00  0.00    +0.000 C 
ATOM      2  C   UNL     1       2.082   6.124  20.370  0.00  0.00    +0.000 A 
ATOM      3  C   UNL     1       1.285   6.999  21.150  0.00  0.00    +0.000 A 
ATOM      4  C   UNL     1       0.998   8.313  20.752  0.00  0.00    +0.000 A 
ATOM      5  C   UNL     1       1.503   8.796  19.552  0.00  0.00    +0.000 A 
ATOM      6  C   UNL     1       2.250   7.895  18.733  0.00  0.00    +0.000 A 
ATOM      7  C   UNL     1       2.558   6.553  19.109  0.00  0.00    +0.000 A 
ENDROOT
BRANCH   5   8
ATOM      8  C   UNL     1       1.062  10.128  18.994  0.00  0.00    +0.000 C 
ATOM      9  O   UNL     1       1.207  10.276  17.777  0.00  0.00    +0.000 OA
ATOM     10  N   UNL     1       0.377  11.110  19.750  0.00  0.00    +0.000 N 
ATOM     11  C   UNL     1      -0.480  12.014  18.990  0.00  0.00    +0.000 C 
ATOM     12  C   UNL     1      -1.510  12.670  19.907  0.00  0.00    +0.000 C 
ATOM     13  C   UNL     1      -0.804  13.748  20.755  0.00  0.00    +0.000 C 
ATOM     14  C   UNL     1       0.535  13.115  21.293  0.00  0.00    +0.000 C 
ATOM     15  C   UNL     1       0.661  11.558  21.128  0.00  0.00    +0.000 C 
BRANCH  13  16
ATOM     16  C   UNL     1      -1.746  14.492  21.729  0.00  0.00    +0.000 A 
ATOM     17  C   UNL     1      -2.247  13.896  22.897  0.00  0.00    +0.000 A 
ATOM     18  C   UNL     1      -3.095  14.592  23.780  0.00  0.00    +0.000 A 
ATOM     19  C   UNL     1      -3.431  15.933  23.542  0.00  0.00    +0.000 A 
ATOM     20  C   UNL     1      -2.871  16.572  22.439  0.00  0.00    +0.000 A 
ATOM     21  C   UNL     1      -2.031  15.866  21.561  0.00  0.00    +0.000 A 
BRANCH  19  22
ATOM     22  C   UNL     1      -4.323  16.630  24.417  0.00  0.00    +0.000 C 
ATOM     23  N   UNL     1      -5.035  17.213  25.142  0.00  0.00    +0.000 NA
ENDBRANCH  19  22
ENDBRANCH  13  16
ENDBRANCH   5   8
BRANCH   7  24
ATOM     24  C   UNL     1       3.351   5.667  18.198  0.00  0.00    +0.000 A 
ATOM     25  N   UNL     1       4.672   5.889  17.825  0.00  0.00    +0.000 N 
ATOM     26  C   UNL     1       5.068   4.951  16.900  0.00  0.00    +0.000 A 
ATOM     27  N   UNL     1       4.118   4.064  16.739  0.00  0.00    +0.000 NA
ATOM     28  C   UNL     1       3.066   4.471  17.539  0.00  0.00    +0.000 A 
ATOM     29  C   UNL     1       1.843   3.637  17.549  0.00  0.00    +0.000 C 
ATOM     30  H   UNL     1       5.265   6.631  18.155  0.00  0.00    +0.000 HD
BRANCH  26  31
ATOM     31  C   UNL     1       6.414   4.976  16.220  0.00  0.00    +0.000 C 
ATOM     32  C   UNL     1       7.529   4.586  17.191  0.00  0.00    +0.000 C 
ATOM     33  C   UNL     1       6.440   4.049  15.001  0.00  0.00    +0.000 C 
ENDBRANCH  26  31
ENDBRANCH   7  24
TORSDOF 5
ENDMDL
MODEL 8
REMARK VINA RESULT:      -7.4      2.989     12.091
REMARK  Name = 
REMARK  9 active torsions:
REMARK  status: ('A' for Active; 'I' for Inactive)
REMARK    1  A    between atoms: C_1  and  C_2
REMARK    2  A    between atoms: C_5  and  C_6
REMARK    3  A    between atoms: C_11  and  C_12
REMARK    4  A    between atoms: C_15  and  C_16
REMARK    5  A    between atoms: C_23  and  C_24
REMARK    6  A    between atoms: C_26  and  C_27
REMARK    7  A    between atoms: C_27  and  C_28
REMARK    8  A    between atoms: C_27  and  C_29
REMARK    9  A    between atoms: C_31  and  C_32
REMARK                            x       y       z     vdW  Elec       q    Type
REMARK                         _______ _______ _______ _____ _____    ______ ____
ROOT
ATOM      1  C   UNL     1      -6.114  12.153  17.387  0.00  0.00    +0.000 C 
ATOM      2  C   UNL     1      -4.744  12.007  18.005  0.00  0.00    +0.000 A 
ATOM      3  C   UNL     1      -3.732  11.447  17.186  0.00  0.00    +0.000 A 
ATOM      4  C   UNL     1      -2.403  11.314  17.615  0.00  0.00    +0.000 A 
ATOM      5  C   UNL     1      -2.042  11.742  18.886  0.00  0.00    +0.000 A 
ATOM      6  C   UNL     1      -3.073  12.245  19.736  0.00  0.00    +0.000 A 
ATOM      7  C   UNL     1      -4.434  12.391  19.331  0.00  0.00    +0.000 A 
ENDROOT
BRANCH   5   8
ATOM      8  C   UNL     1      -0.677  11.442  19.456  0.00  0.00    +0.000 C 
ATOM      9  O   UNL     1      -0.236  12.270  20.259  0.00  0.00    +0.000 OA
ATOM     10  N   UNL     1       0.019  10.229  19.237  0.00  0.00    +0.000 N 
ATOM     11  C   UNL     1       0.970   9.844  20.275  0.00  0.00    +0.000 C 
ATOM     12  C   UNL     1       1.274   8.349  20.193  0.00  0.00    +0.000 C 
ATOM     13  C   UNL     1       2.200   8.097  18.986  0.00  0.00    +0.000 C 
ATOM     14  C   UNL     1       1.617   8.915  17.772  0.00  0.00    +0.000 C 
ATOM     15  C   UNL     1       0.165   9.481  17.973  0.00  0.00    +0.000 C 
BRANCH  13  16
ATOM     16  C   UNL     1       2.585   6.612  18.795  0.00  0.00    +0.000 A 
ATOM     17  C   UNL     1       3.731   6.215  18.089  0.00  0.00    +0.000 A 
ATOM     18  C   UNL     1       4.075   4.858  17.934  0.00  0.00    +0.000 A 
ATOM     19  C   UNL     1       3.298   3.852  18.529  0.00  0.00    +0.000 A 
ATOM     20  C   UNL     1       2.210   4.227  19.311  0.00  0.00    +0.000 A 
ATOM     21  C   UNL     1       1.873   5.584  19.453  0.00  0.00    +0.000 A 
BRANCH  19  22
ATOM     22  C   UNL     1       3.624   2.470  18.340  0.00  0.00    +0.000 C 
ATOM     23  N   UNL     1       3.911   1.344  18.196  0.00  0.00    +0.000 NA
ENDBRANCH  19  22
ENDBRANCH  13  16
ENDBRANCH   5   8
BRANCH   7  24
ATOM     24  C   UNL     1      -5.460  12.931  20.280  0.00  0.00    +0.000 A 
ATOM     25  N   UNL     1      -5.427  14.198  20.851  0.00  0.00    +0.000 N 
ATOM     26  C   UNL     1      -6.455  14.340  21.753  0.00  0.00    +0.000 A 
ATOM     27  N   UNL     1      -7.223  13.279  21.714  0.00  0.00    +0.000 NA
ATOM     28  C   UNL     1      -6.645  12.414  20.805  0.00  0.00    +0.000 A 
ATOM     29  C   UNL     1      -7.317  11.117  20.561  0.00  0.00    +0.000 C 
ATOM     30  H   UNL     1      -4.748  14.916  20.662  0.00  0.00    +0.000 HD
BRANCH  26  31
ATOM     31  C   UNL     1      -6.635  15.562  22.617  0.00  0.00    +0.000 C 
ATOM     32  C   UNL     1      -7.916  16.313  22.249  0.00  0.00    +0.000 C 
ATOM     33  C   UNL     1      -6.659  15.195  24.104  0.00  0.00    +0.000 C 
ENDBRANCH  26  31
ENDBRANCH   7  24
TORSDOF 5
ENDMDL
MODEL 9
REMARK VINA RESULT:      -7.3      1.639      1.878
REMARK  Name = 
REMARK  9 active torsions:
REMARK  status: ('A' for Active; 'I' for Inactive)
REMARK    1  A    between atoms: C_1  and  C_2
REMARK    2  A    between atoms: C_5  and  C_6
REMARK    3  A    between atoms: C_11  and  C_12
REMARK    4  A    between atoms: C_15  and  C_16
REMARK    5  A    between atoms: C_23  and  C_24
REMARK    6  A    between atoms: C_26  and  C_27
REMARK    7  A    between atoms: C_27  and  C_28
REMARK    8  A    between atoms: C_27  and  C_29
REMARK    9  A    between atoms: C_31  and  C_32
REMARK                            x       y       z     vdW  Elec       q    Type
REMARK                         _______ _______ _______ _____ _____    ______ ____
ROOT
ATOM      1  C   UNL     1       4.755   4.172  19.378  0.00  0.00    +0.000 C 
ATOM      2  C   UNL     1       3.982   5.413  19.001  0.00  0.00    +0.000 A 
ATOM      3  C   UNL     1       2.870   5.743  19.816  0.00  0.00    +0.000 A 
ATOM      4  C   UNL     1       2.106   6.901  19.614  0.00  0.00    +0.000 A 
ATOM      5  C   UNL     1       2.432   7.773  18.584  0.00  0.00    +0.000 A 
ATOM      6  C   UNL     1       3.510   7.409  17.721  0.00  0.00    +0.000 A 
ATOM      7  C   UNL     1       4.306   6.238  17.898  0.00  0.00    +0.000 A 
ENDROOT
BRANCH   5   8
ATOM      8  C   UNL     1       1.526   8.922  18.211  0.00  0.00    +0.000 C 
ATOM      9  O   UNL     1       1.113   8.924  17.048  0.00  0.00    +0.000 OA
ATOM     10  N   UNL     1       1.030   9.867  19.140  0.00  0.00    +0.000 N 
ATOM     11  C   UNL     1      -0.238  10.500  18.789  0.00  0.00    +0.000 C 
ATOM     12  C   UNL     1      -0.902  11.090  20.031  0.00  0.00    +0.000 C 
ATOM     13  C   UNL     1      -0.152  12.378  20.430  0.00  0.00    +0.000 C 
ATOM     14  C   UNL     1       1.390  12.062  20.358  0.00  0.00    +0.000 C 
ATOM     15  C   UNL     1       1.762  10.540  20.231  0.00  0.00    +0.000 C 
BRANCH  13  16
ATOM     16  C   UNL     1      -0.734  13.077  21.680  0.00  0.00    +0.000 A 
ATOM     17  C   UNL     1      -0.323  14.354  22.090  0.00  0.00    +0.000 A 
ATOM     18  C   UNL     1      -0.872  14.982  23.224  0.00  0.00    +0.000 A 
ATOM     19  C   UNL     1      -1.891  14.362  23.962  0.00  0.00    +0.000 A 
ATOM     20  C   UNL     1      -2.378  13.135  23.521  0.00  0.00    +0.000 A 
ATOM     21  C   UNL     1      -1.819  12.515  22.390  0.00  0.00    +0.000 A 
BRANCH  19  22
ATOM     22  C   UNL     1      -2.422  14.981  25.139  0.00  0.00    +0.000 C 
ATOM     23  N   UNL     1      -2.834  15.492  26.109  0.00  0.00    +0.000 NA
ENDBRANCH  19  22
ENDBRANCH  13  16
ENDBRANCH   5   8
BRANCH   7  24
ATOM     24  C   UNL     1       5.425   5.924  16.953  0.00  0.00    +0.000 A 
ATOM     25  N   UNL     1       5.281   5.742  15.582  0.00  0.00    +0.000 N 
ATOM     26  C   UNL     1       6.479   5.363  15.024  0.00  0.00    +0.000 A 
ATOM     27  N   UNL     1       7.420   5.403  15.935  0.00  0.00    +0.000 NA
ATOM     28  C   UNL     1       6.802   5.764  17.117  0.00  0.00    +0.000 A 
ATOM     29  C   UNL     1       7.645   5.886  18.329  0.00  0.00    +0.000 C 
ATOM     30  H   UNL     1       4.429   5.846  15.057  0.00  0.00    +0.000 HD
BRANCH  26  31
ATOM     31  C   UNL     1       6.635   4.989  13.571  0.00  0.00    +0.000 C 
ATOM     32  C   UNL     1       8.048   5.295  13.072  0.00  0.00    +0.000 C 
ATOM     33  C   UNL     1       6.313   3.510  13.339  0.00  0.00    +0.000 C 
ENDBRANCH  26  31
ENDBRANCH   7  24
TORSDOF 5
ENDMDL
