MODEL 1
REMARK VINA RESULT:      -9.0      0.000      0.000
REMARK  Name = 
REMARK  4 active torsions:
REMARK  status: ('A' for Active; 'I' for Inactive)
REMARK    1  A    between atoms: C_1  and  O_2
REMARK    2  A    between atoms: O_2  and  C_3
REMARK    3  A    between atoms: C_7  and  C_8
REMARK    4  A    between atoms: C_24  and  O_25
REMARK                            x       y       z     vdW  Elec       q    Type
REMARK                         _______ _______ _______ _____ _____    ______ ____
ROOT
ATOM      1  C   UNL     1       2.562   7.318  18.589  0.00  0.00    +0.000 A 
ATOM      2  N   UNL     1       2.239   6.116  19.111  0.00  0.00    +0.000 NA
ATOM      3  C   UNL     1       2.841   5.020  18.593  0.00  0.00    +0.000 A 
ATOM      4  N   UNL     1       2.497   3.800  19.157  0.00  0.00    +0.000 N 
ATOM      5  C   UNL     1       1.136   3.586  19.652  0.00  0.00    +0.000 C 
ATOM      6  C   UNL     1       1.130   3.263  21.145  0.00  0.00    +0.000 C 
ATOM      7  C   UNL     1       2.105   2.137  21.480  0.00  0.00    +0.000 C 
ATOM      8  C   UNL     1       3.502   2.491  20.990  0.00  0.00    +0.000 C 
ATOM      9  C   UNL     1       3.503   2.796  19.496  0.00  0.00    +0.000 C 
ATOM     10  C   UNL     1       3.770   5.134  17.528  0.00  0.00    +0.000 A 
ATOM     11  C   UNL     1       4.385   4.062  16.820  0.00  0.00    +0.000 A 
ATOM     12  C   UNL     1       5.345   4.285  15.836  0.00  0.00    +0.000 A 
ATOM     13  C   UNL     1       5.678   5.585  15.500  0.00  0.00    +0.000 A 
ATOM     14  C   UNL     1       5.026   6.645  16.132  0.00  0.00    +0.000 A 
ATOM     15  C   UNL     1       4.073   6.442  17.125  0.00  0.00    +0.000 A 
ATOM     16  N   UNL     1       3.480   7.515  17.634  0.00  0.00    +0.000 NA
ENDROOT
BRANCH   1  21
ATOM     17  C   UNL     1       0.860   9.855  20.903  0.00  0.00    +0.000 A 
ATOM     18  C   UNL     1       0.480  10.818  19.960  0.00  0.00    +0.000 A 
ATOM     19  C   UNL     1       0.766  10.651  18.610  0.00  0.00    +0.000 A 
ATOM     20  C   UNL     1       1.448   9.512  18.190  0.00  0.00    +0.000 A 
ATOM     21  C   UNL     1       1.847   8.506  19.099  0.00  0.00    +0.000 A 
ATOM     22  C   UNL     1       1.532   8.697  20.469  0.00  0.00    +0.000 A 
BRANCH  17  24
ATOM     23  C   UNL     1      -0.664  11.017  22.344  0.00  0.00    +0.000 C 
ATOM     24  O   UNL     1       0.487  10.207  22.174  0.00  0.00    +0.000 OA
ENDBRANCH  17  24
BRANCH  22  25
ATOM     25  O   UNL     1       1.895   7.740  21.389  0.00  0.00    +0.000 OA
ATOM     26  H   UNL     1       1.402   6.916  21.183  0.00  0.00    +0.000 HD
ENDBRANCH  22  25
ENDBRANCH   1  21
TORSDOF 3
ENDMDL
MODEL 2
REMARK VINA RESULT:      -8.7      1.328      1.765
REMARK  Name = 
REMARK  4 active torsions:
REMARK  status: ('A' for Active; 'I' for Inactive)
REMARK    1  A    between atoms: C_1  and  O_2
REMARK    2  A    between atoms: O_2  and  C_3
REMARK    3  A    between atoms: C_7  and  C_8
REMARK    4  A    between atoms: C_24  and  O_25
REMARK                            x       y       z     vdW  Elec       q    Type
REMARK                         _______ _______ _______ _____ _____    ______ ____
ROOT
ATOM      1  C   UNL     1       2.506   7.340  18.757  0.00  0.00    +0.000 A 
ATOM      2  N   UNL     1       2.205   6.118  19.244  0.00  0.00    +0.000 NA
ATOM      3  C   UNL     1       2.809   5.046  18.681  0.00  0.00    +0.000 A 
ATOM      4  N   UNL     1       2.487   3.804  19.211  0.00  0.00    +0.000 N 
ATOM      5  C   UNL     1       1.138   3.559  19.722  0.00  0.00    +0.000 C 
ATOM      6  C   UNL     1       1.163   3.188  21.204  0.00  0.00    +0.000 C 
ATOM      7  C   UNL     1       2.155   2.063  21.485  0.00  0.00    +0.000 C 
ATOM      8  C   UNL     1       3.539   2.447  20.981  0.00  0.00    +0.000 C 
ATOM      9  C   UNL     1       3.510   2.800  19.499  0.00  0.00    +0.000 C 
ATOM     10  C   UNL     1       3.718   5.204  17.603  0.00  0.00    +0.000 A 
ATOM     11  C   UNL     1       4.330   4.163  16.850  0.00  0.00    +0.000 A 
ATOM     12  C   UNL     1       5.270   4.428  15.857  0.00  0.00    +0.000 A 
ATOM     13  C   UNL     1       5.583   5.742  15.558  0.00  0.00    +0.000 A 
ATOM     14  C   UNL     1       4.932   6.773  16.235  0.00  0.00    +0.000 A 
ATOM     15  C   UNL     1       3.999   6.528  17.238  0.00  0.00    +0.000 A 
ATOM     16  N   UNL     1       3.405   7.578  17.792  0.00  0.00    +0.000 NA
ENDROOT
BRANCH   1  21
ATOM     17  C   UNL     1       0.798  10.747  19.151  0.00  0.00    +0.000 A 
ATOM     18  C   UNL     1       0.405  10.661  20.492  0.00  0.00    +0.000 A 
ATOM     19  C   UNL     1       0.684   9.530  21.250  0.00  0.00    +0.000 A 
ATOM     20  C   UNL     1       1.360   8.463  20.664  0.00  0.00    +0.000 A 
ATOM     21  C   UNL     1       1.788   8.502  19.318  0.00  0.00    +0.000 A 
ATOM     22  C   UNL     1       1.498   9.673  18.571  0.00  0.00    +0.000 A 
BRANCH  17  24
ATOM     23  C   UNL     1      -0.953  12.255  18.509  0.00  0.00    +0.000 C 
ATOM     24  O   UNL     1       0.427  11.939  18.583  0.00  0.00    +0.000 OA
ENDBRANCH  17  24
BRANCH  22  25
ATOM     25  O   UNL     1       1.901   9.758  17.258  0.00  0.00    +0.000 OA
ATOM     26  H   UNL     1       2.251  10.663  17.104  0.00  0.00    +0.000 HD
ENDBRANCH  22  25
ENDBRANCH   1  21
TORSDOF 3
ENDMDL
MODEL 3
REMARK VINA RESULT:      -8.5      1.062      3.987
REMARK  Name = 
REMARK  4 active torsions:
REMARK  status: ('A' for Active; 'I' for Inactive)
REMARK    1  A    between atoms: C_1  and  O_2
REMARK    2  A    between atoms: O_2  and  C_3
REMARK    3  A    between atoms: C_7  and  C_8
REMARK    4  A    between atoms: C_24  and  O_25
REMARK                            x       y       z     vdW  Elec       q    Type
REMARK                         _______ _______ _______ _____ _____    ______ ____
ROOT
ATOM      1  C   UNL     1       2.305   6.916  19.608  0.00  0.00    +0.000 A 
ATOM      2  N   UNL     1       3.302   6.672  18.732  0.00  0.00    +0.000 NA
ATOM      3  C   UNL     1       3.879   5.449  18.756  0.00  0.00    +0.000 A 
ATOM      4  N   UNL     1       4.894   5.224  17.836  0.00  0.00    +0.000 N 
ATOM      5  C   UNL     1       5.781   6.322  17.450  0.00  0.00    +0.000 C 
ATOM      6  C   UNL     1       5.703   6.600  15.950  0.00  0.00    +0.000 C 
ATOM      7  C   UNL     1       5.888   5.326  15.131  0.00  0.00    +0.000 C 
ATOM      8  C   UNL     1       4.872   4.276  15.559  0.00  0.00    +0.000 C 
ATOM      9  C   UNL     1       4.967   3.992  17.054  0.00  0.00    +0.000 C 
ATOM     10  C   UNL     1       3.458   4.461  19.683  0.00  0.00    +0.000 A 
ATOM     11  C   UNL     1       4.051   3.184  19.892  0.00  0.00    +0.000 A 
ATOM     12  C   UNL     1       3.509   2.257  20.778  0.00  0.00    +0.000 A 
ATOM     13  C   UNL     1       2.391   2.603  21.516  0.00  0.00    +0.000 A 
ATOM     14  C   UNL     1       1.847   3.880  21.379  0.00  0.00    +0.000 A 
ATOM     15  C   UNL     1       2.367   4.815  20.489  0.00  0.00    +0.000 A 
ATOM     16  N   UNL     1       1.803   6.016  20.464  0.00  0.00    +0.000 NA
ENDROOT
BRANCH   1  21
ATOM     17  C   UNL     1       0.871  10.262  20.806  0.00  0.00    +0.000 A 
ATOM     18  C   UNL     1       0.636  10.875  19.569  0.00  0.00    +0.000 A 
ATOM     19  C   UNL     1       0.933  10.223  18.378  0.00  0.00    +0.000 A 
ATOM     20  C   UNL     1       1.480   8.943  18.416  0.00  0.00    +0.000 A 
ATOM     21  C   UNL     1       1.729   8.276  19.636  0.00  0.00    +0.000 A 
ATOM     22  C   UNL     1       1.407   8.960  20.836  0.00  0.00    +0.000 A 
BRANCH  17  24
ATOM     23  C   UNL     1      -0.775  10.909  22.426  0.00  0.00    +0.000 C 
ATOM     24  O   UNL     1       0.513  11.069  21.854  0.00  0.00    +0.000 OA
ENDBRANCH  17  24
BRANCH  22  25
ATOM     25  O   UNL     1       1.625   8.346  22.048  0.00  0.00    +0.000 OA
ATOM     26  H   UNL     1       1.343   8.963  22.758  0.00  0.00    +0.000 HD
ENDBRANCH  22  25
ENDBRANCH   1  21
TORSDOF 3
ENDMDL
MODEL 4
REMARK VINA RESULT:      -7.9      1.333      4.026
REMARK  Name = 
REMARK  4 active torsions:
REMARK  status: ('A' for Active; 'I' for Inactive)
REMARK    1  A    between atoms: C_1  and  O_2
REMARK    2  A    between atoms: O_2  and  C_3
REMARK    3  A    between atoms: C_7  and  C_8
REMARK    4  A    between atoms: C_24  and  O_25
REMARK                            x       y       z     vdW  Elec       q    Type
REMARK                         _______ _______ _______ _____ _____    ______ ____
ROOT
ATOM      1  C   UNL     1       2.527   6.384  18.585  0.00  0.00    +0.000 A 
ATOM      2  N   UNL     1       3.723   6.161  18.002  0.00  0.00    +0.000 NA
ATOM      3  C   UNL     1       4.127   4.878  17.857  0.00  0.00    +0.000 A 
ATOM      4  N   UNL     1       5.355   4.680  17.244  0.00  0.00    +0.000 N 
ATOM      5  C   UNL     1       6.433   5.651  17.445  0.00  0.00    +0.000 C 
ATOM      6  C   UNL     1       6.878   6.269  16.121  0.00  0.00    +0.000 C 
ATOM      7  C   UNL     1       7.184   5.200  15.075  0.00  0.00    +0.000 C 
ATOM      8  C   UNL     1       5.978   4.290  14.890  0.00  0.00    +0.000 C 
ATOM      9  C   UNL     1       5.548   3.664  16.211  0.00  0.00    +0.000 C 
ATOM     10  C   UNL     1       3.322   3.804  18.318  0.00  0.00    +0.000 A 
ATOM     11  C   UNL     1       3.674   2.425  18.332  0.00  0.00    +0.000 A 
ATOM     12  C   UNL     1       2.777   1.441  18.738  0.00  0.00    +0.000 A 
ATOM     13  C   UNL     1       1.523   1.814  19.187  0.00  0.00    +0.000 A 
ATOM     14  C   UNL     1       1.193   3.169  19.252  0.00  0.00    +0.000 A 
ATOM     15  C   UNL     1       2.072   4.165  18.840  0.00  0.00    +0.000 A 
ATOM     16  N   UNL     1       1.679   5.425  18.982  0.00  0.00    +0.000 NA
ENDROOT
BRANCH   1  21
ATOM     17  C   UNL     1       1.340   9.628  20.245  0.00  0.00    +0.000 A 
ATOM     18  C   UNL     1       1.375  10.486  19.139  0.00  0.00    +0.000 A 
ATOM     19  C   UNL     1       1.773  10.028  17.889  0.00  0.00    +0.000 A 
ATOM     20  C   UNL     1       2.149   8.696  17.735  0.00  0.00    +0.000 A 
ATOM     21  C   UNL     1       2.122   7.786  18.815  0.00  0.00    +0.000 A 
ATOM     22  C   UNL     1       1.702   8.278  20.078  0.00  0.00    +0.000 A 
BRANCH  17  24
ATOM     23  C   UNL     1      -0.446  10.197  21.742  0.00  0.00    +0.000 C 
ATOM     24  O   UNL     1       0.923  10.272  21.381  0.00  0.00    +0.000 OA
ENDBRANCH  17  24
BRANCH  22  25
ATOM     25  O   UNL     1       1.654   7.426  21.157  0.00  0.00    +0.000 OA
ATOM     26  H   UNL     1       2.486   6.904  21.173  0.00  0.00    +0.000 HD
ENDBRANCH  22  25
ENDBRANCH   1  21
TORSDOF 3
ENDMDL
MODEL 5
REMARK VINA RESULT:      -7.9      1.589      4.338
REMARK  Name = 
REMARK  4 active torsions:
REMARK  status: ('A' for Active; 'I' for Inactive)
REMARK    1  A    between atoms: C_1  and  O_2
REMARK    2  A    between atoms: O_2  and  C_3
REMARK    3  A    between atoms: C_7  and  C_8
REMARK    4  A    between atoms: C_24  and  O_25
REMARK                            x       y       z     vdW  Elec       q    Type
REMARK                         _______ _______ _______ _____ _____    ______ ____
ROOT
ATOM      1  C   UNL     1       2.222   6.769  19.985  0.00  0.00    +0.000 A 
ATOM      2  N   UNL     1       3.193   6.602  19.063  0.00  0.00    +0.000 NA
ATOM      3  C   UNL     1       3.780   5.386  18.976  0.00  0.00    +0.000 A 
ATOM      4  N   UNL     1       4.767   5.241  18.011  0.00  0.00    +0.000 N 
ATOM      5  C   UNL     1       5.634   6.374  17.684  0.00  0.00    +0.000 C 
ATOM      6  C   UNL     1       5.508   6.765  16.212  0.00  0.00    +0.000 C 
ATOM      7  C   UNL     1       5.677   5.558  15.293  0.00  0.00    +0.000 C 
ATOM      8  C   UNL     1       4.682   4.470  15.670  0.00  0.00    +0.000 C 
ATOM      9  C   UNL     1       4.825   4.073  17.135  0.00  0.00    +0.000 C 
ATOM     10  C   UNL     1       3.394   4.327  19.837  0.00  0.00    +0.000 A 
ATOM     11  C   UNL     1       4.002   3.043  19.929  0.00  0.00    +0.000 A 
ATOM     12  C   UNL     1       3.494   2.046  20.758  0.00  0.00    +0.000 A 
ATOM     13  C   UNL     1       2.397   2.323  21.554  0.00  0.00    +0.000 A 
ATOM     14  C   UNL     1       1.840   3.602  21.531  0.00  0.00    +0.000 A 
ATOM     15  C   UNL     1       2.326   4.607  20.700  0.00  0.00    +0.000 A 
ATOM     16  N   UNL     1       1.752   5.802  20.784  0.00  0.00    +0.000 NA
ENDROOT
BRANCH   1  21
ATOM     17  C   UNL     1       0.821  10.256  19.237  0.00  0.00    +0.000 A 
ATOM     18  C   UNL     1       0.512  10.671  20.538  0.00  0.00    +0.000 A 
ATOM     19  C   UNL     1       0.750   9.845  21.629  0.00  0.00    +0.000 A 
ATOM     20  C   UNL     1       1.299   8.581  21.425  0.00  0.00    +0.000 A 
ATOM     21  C   UNL     1       1.637   8.117  20.134  0.00  0.00    +0.000 A 
ATOM     22  C   UNL     1       1.393   8.985  19.039  0.00  0.00    +0.000 A 
BRANCH  17  24
ATOM     23  C   UNL     1      -0.567  12.097  18.575  0.00  0.00    +0.000 C 
ATOM     24  O   UNL     1       0.509  11.213  18.306  0.00  0.00    +0.000 OA
ENDBRANCH  17  24
BRANCH  22  25
ATOM     25  O   UNL     1       1.713   8.578  17.764  0.00  0.00    +0.000 OA
ATOM     26  H   UNL     1       0.988   8.856  17.163  0.00  0.00    +0.000 HD
ENDBRANCH  22  25
ENDBRANCH   1  21
TORSDOF 3
ENDMDL
MODEL 6
REMARK VINA RESULT:      -7.7      1.794      4.299
REMARK  Name = 
REMARK  4 active torsions:
REMARK  status: ('A' for Active; 'I' for Inactive)
REMARK    1  A    between atoms: C_1  and  O_2
REMARK    2  A    between atoms: O_2  and  C_3
REMARK    3  A    between atoms: C_7  and  C_8
REMARK    4  A    between atoms: C_24  and  O_25
REMARK                            x       y       z     vdW  Elec       q    Type
REMARK                         _______ _______ _______ _____ _____    ______ ____
ROOT
ATOM      1  C   UNL     1       2.322   6.504  19.308  0.00  0.00    +0.000 A 
ATOM      2  N   UNL     1       3.571   6.408  18.806  0.00  0.00    +0.000 NA
ATOM      3  C   UNL     1       4.046   5.173  18.524  0.00  0.00    +0.000 A 
ATOM      4  N   UNL     1       5.329   5.107  18.000  0.00  0.00    +0.000 N 
ATOM      5  C   UNL     1       6.338   6.078  18.424  0.00  0.00    +0.000 C 
ATOM      6  C   UNL     1       6.861   6.891  17.241  0.00  0.00    +0.000 C 
ATOM      7  C   UNL     1       7.301   5.990  16.091  0.00  0.00    +0.000 C 
ATOM      8  C   UNL     1       6.159   5.073  15.678  0.00  0.00    +0.000 C 
ATOM      9  C   UNL     1       5.653   4.253  16.859  0.00  0.00    +0.000 C 
ATOM     10  C   UNL     1       3.258   4.017  18.762  0.00  0.00    +0.000 A 
ATOM     11  C   UNL     1       3.673   2.663  18.619  0.00  0.00    +0.000 A 
ATOM     12  C   UNL     1       2.793   1.600  18.806  0.00  0.00    +0.000 A 
ATOM     13  C   UNL     1       1.490   1.862  19.190  0.00  0.00    +0.000 A 
ATOM     14  C   UNL     1       1.093   3.181  19.410  0.00  0.00    +0.000 A 
ATOM     15  C   UNL     1       1.954   4.256  19.216  0.00  0.00    +0.000 A 
ATOM     16  N   UNL     1       1.491   5.469  19.494  0.00  0.00    +0.000 NA
ENDROOT
BRANCH   1  21
ATOM     17  C   UNL     1       1.258  10.184  19.196  0.00  0.00    +0.000 A 
ATOM     18  C   UNL     1       0.881  10.362  20.533  0.00  0.00    +0.000 A 
ATOM     19  C   UNL     1       0.967   9.318  21.447  0.00  0.00    +0.000 A 
ATOM     20  C   UNL     1       1.431   8.075  21.025  0.00  0.00    +0.000 A 
ATOM     21  C   UNL     1       1.833   7.844  19.690  0.00  0.00    +0.000 A 
ATOM     22  C   UNL     1       1.744   8.929  18.781  0.00  0.00    +0.000 A 
BRANCH  17  24
ATOM     23  C   UNL     1       2.144  12.284  18.450  0.00  0.00    +0.000 C 
ATOM     24  O   UNL     1       1.096  11.329  18.461  0.00  0.00    +0.000 OA
ENDBRANCH  17  24
BRANCH  22  25
ATOM     25  O   UNL     1       2.132   8.753  17.473  0.00  0.00    +0.000 OA
ATOM     26  H   UNL     1       2.017   9.607  17.002  0.00  0.00    +0.000 HD
ENDBRANCH  22  25
ENDBRANCH   1  21
TORSDOF 3
ENDMDL
MODEL 7
REMARK VINA RESULT:      -7.1      2.718      6.377
REMARK  Name = 
REMARK  4 active torsions:
REMARK  status: ('A' for Active; 'I' for Inactive)
REMARK    1  A    between atoms: C_1  and  O_2
REMARK    2  A    between atoms: O_2  and  C_3
REMARK    3  A    between atoms: C_7  and  C_8
REMARK    4  A    between atoms: C_24  and  O_25
REMARK                            x       y       z     vdW  Elec       q    Type
REMARK                         _______ _______ _______ _____ _____    ______ ____
ROOT
ATOM      1  C   UNL     1       4.072   5.826  17.186  0.00  0.00    +0.000 A 
ATOM      2  N   UNL     1       3.791   5.058  18.259  0.00  0.00    +0.000 NA
ATOM      3  C   UNL     1       3.030   5.596  19.240  0.00  0.00    +0.000 A 
ATOM      4  N   UNL     1       2.749   4.779  20.325  0.00  0.00    +0.000 N 
ATOM      5  C   UNL     1       3.741   3.800  20.775  0.00  0.00    +0.000 C 
ATOM      6  C   UNL     1       3.192   2.377  20.701  0.00  0.00    +0.000 C 
ATOM      7  C   UNL     1       1.837   2.260  21.393  0.00  0.00    +0.000 C 
ATOM      8  C   UNL     1       0.860   3.267  20.803  0.00  0.00    +0.000 C 
ATOM      9  C   UNL     1       1.406   4.687  20.895  0.00  0.00    +0.000 C 
ATOM     10  C   UNL     1       2.556   6.930  19.146  0.00  0.00    +0.000 A 
ATOM     11  C   UNL     1       1.849   7.652  20.149  0.00  0.00    +0.000 A 
ATOM     12  C   UNL     1       1.362   8.937  19.924  0.00  0.00    +0.000 A 
ATOM     13  C   UNL     1       1.613   9.552  18.710  0.00  0.00    +0.000 A 
ATOM     14  C   UNL     1       2.372   8.884  17.749  0.00  0.00    +0.000 A 
ATOM     15  C   UNL     1       2.857   7.596  17.950  0.00  0.00    +0.000 A 
ATOM     16  N   UNL     1       3.605   7.066  16.990  0.00  0.00    +0.000 NA
ENDROOT
BRANCH   1  21
ATOM     17  C   UNL     1       7.011   5.295  14.786  0.00  0.00    +0.000 A 
ATOM     18  C   UNL     1       6.603   4.105  14.171  0.00  0.00    +0.000 A 
ATOM     19  C   UNL     1       5.408   3.490  14.523  0.00  0.00    +0.000 A 
ATOM     20  C   UNL     1       4.607   4.062  15.508  0.00  0.00    +0.000 A 
ATOM     21  C   UNL     1       4.968   5.266  16.153  0.00  0.00    +0.000 A 
ATOM     22  C   UNL     1       6.188   5.878  15.767  0.00  0.00    +0.000 A 
BRANCH  17  24
ATOM     23  C   UNL     1       8.429   5.719  12.898  0.00  0.00    +0.000 C 
ATOM     24  O   UNL     1       8.215   5.736  14.300  0.00  0.00    +0.000 OA
ENDBRANCH  17  24
BRANCH  22  25
ATOM     25  O   UNL     1       6.576   7.056  16.363  0.00  0.00    +0.000 OA
ATOM     26  H   UNL     1       6.602   7.754  15.673  0.00  0.00    +0.000 HD
ENDBRANCH  22  25
ENDBRANCH   1  21
TORSDOF 3
ENDMDL
MODEL 8
REMARK VINA RESULT:      -6.7      9.175     11.035
REMARK  Name = 
REMARK  4 active torsions:
REMARK  status: ('A' for Active; 'I' for Inactive)
REMARK    1  A    between atoms: C_1  and  O_2
REMARK    2  A    between atoms: O_2  and  C_3
REMARK    3  A    between atoms: C_7  and  C_8
REMARK    4  A    between atoms: C_24  and  O_25
REMARK                            x       y       z     vdW  Elec       q    Type
REMARK                         _______ _______ _______ _____ _____    ______ ____
ROOT
ATOM      1  C   UNL     1       7.468  15.903  18.343  0.00  0.00    +0.000 A 
ATOM      2  N   UNL     1       8.137  14.732  18.400  0.00  0.00    +0.000 NA
ATOM      3  C   UNL     1       9.478  14.761  18.218  0.00  0.00    +0.000 A 
ATOM      4  N   UNL     1      10.139  13.544  18.293  0.00  0.00    +0.000 N 
ATOM      5  C   UNL     1       9.475  12.325  17.827  0.00  0.00    +0.000 C 
ATOM      6  C   UNL     1       9.335  11.302  18.953  0.00  0.00    +0.000 C 
ATOM      7  C   UNL     1      10.666  11.061  19.661  0.00  0.00    +0.000 C 
ATOM      8  C   UNL     1      11.234  12.377  20.170  0.00  0.00    +0.000 C 
ATOM      9  C   UNL     1      11.386  13.388  19.039  0.00  0.00    +0.000 C 
ATOM     10  C   UNL     1      10.152  15.982  17.961  0.00  0.00    +0.000 A 
ATOM     11  C   UNL     1      11.530  16.139  17.640  0.00  0.00    +0.000 A 
ATOM     12  C   UNL     1      12.110  17.395  17.480  0.00  0.00    +0.000 A 
ATOM     13  C   UNL     1      11.317  18.523  17.587  0.00  0.00    +0.000 A 
ATOM     14  C   UNL     1       9.949  18.379  17.824  0.00  0.00    +0.000 A 
ATOM     15  C   UNL     1       9.355  17.134  17.999  0.00  0.00    +0.000 A 
ATOM     16  N   UNL     1       8.039  17.103  18.176  0.00  0.00    +0.000 NA
ENDROOT
BRANCH   1  21
ATOM     17  C   UNL     1       3.832  16.813  19.140  0.00  0.00    +0.000 A 
ATOM     18  C   UNL     1       3.187  15.679  18.632  0.00  0.00    +0.000 A 
ATOM     19  C   UNL     1       3.909  14.646  18.046  0.00  0.00    +0.000 A 
ATOM     20  C   UNL     1       5.295  14.744  17.957  0.00  0.00    +0.000 A 
ATOM     21  C   UNL     1       5.996  15.862  18.462  0.00  0.00    +0.000 A 
ATOM     22  C   UNL     1       5.235  16.897  19.064  0.00  0.00    +0.000 A 
BRANCH  17  24
ATOM     23  C   UNL     1       1.594  17.669  19.241  0.00  0.00    +0.000 C 
ATOM     24  O   UNL     1       2.944  17.713  19.671  0.00  0.00    +0.000 OA
ENDBRANCH  17  24
BRANCH  22  25
ATOM     25  O   UNL     1       5.876  18.002  19.576  0.00  0.00    +0.000 OA
ATOM     26  H   UNL     1       6.624  18.225  18.980  0.00  0.00    +0.000 HD
ENDBRANCH  22  25
ENDBRANCH   1  21
TORSDOF 3
ENDMDL
MODEL 9
REMARK VINA RESULT:      -6.6      3.285      8.780
REMARK  Name = 
REMARK  4 active torsions:
REMARK  status: ('A' for Active; 'I' for Inactive)
REMARK    1  A    between atoms: C_1  and  O_2
REMARK    2  A    between atoms: O_2  and  C_3
REMARK    3  A    between atoms: C_7  and  C_8
REMARK    4  A    between atoms: C_24  and  O_25
REMARK                            x       y       z     vdW  Elec       q    Type
REMARK                         _______ _______ _______ _____ _____    ______ ____
ROOT
ATOM      1  C   UNL     1       0.865  10.493  20.348  0.00  0.00    +0.000 A 
ATOM      2  N   UNL     1       1.290  11.697  19.909  0.00  0.00    +0.000 NA
ATOM      3  C   UNL     1       0.740  12.802  20.465  0.00  0.00    +0.000 A 
ATOM      4  N   UNL     1       1.205  14.024  20.001  0.00  0.00    +0.000 N 
ATOM      5  C   UNL     1       1.604  14.167  18.600  0.00  0.00    +0.000 C 
ATOM      6  C   UNL     1       3.071  14.575  18.478  0.00  0.00    +0.000 C 
ATOM      7  C   UNL     1       3.391  15.788  19.349  0.00  0.00    +0.000 C 
ATOM      8  C   UNL     1       3.007  15.510  20.795  0.00  0.00    +0.000 C 
ATOM      9  C   UNL     1       1.538  15.118  20.911  0.00  0.00    +0.000 C 
ATOM     10  C   UNL     1      -0.259  12.694  21.465  0.00  0.00    +0.000 A 
ATOM     11  C   UNL     1      -0.997  13.764  22.047  0.00  0.00    +0.000 A 
ATOM     12  C   UNL     1      -1.906  13.555  23.080  0.00  0.00    +0.000 A 
ATOM     13  C   UNL     1      -2.139  12.266  23.524  0.00  0.00    +0.000 A 
ATOM     14  C   UNL     1      -1.481  11.200  22.908  0.00  0.00    +0.000 A 
ATOM     15  C   UNL     1      -0.560  11.391  21.883  0.00  0.00    +0.000 A 
ATOM     16  N   UNL     1      -0.020  10.308  21.336  0.00  0.00    +0.000 NA
ENDROOT
BRANCH   1  21
ATOM     17  C   UNL     1       2.248   6.978  19.704  0.00  0.00    +0.000 A 
ATOM     18  C   UNL     1       2.429   7.044  18.317  0.00  0.00    +0.000 A 
ATOM     19  C   UNL     1       2.111   8.197  17.608  0.00  0.00    +0.000 A 
ATOM     20  C   UNL     1       1.600   9.300  18.287  0.00  0.00    +0.000 A 
ATOM     21  C   UNL     1       1.406   9.288  19.686  0.00  0.00    +0.000 A 
ATOM     22  C   UNL     1       1.748   8.103  20.386  0.00  0.00    +0.000 A 
BRANCH  17  24
ATOM     23  C   UNL     1       1.611   4.785  20.440  0.00  0.00    +0.000 C 
ATOM     24  O   UNL     1       2.617   5.759  20.211  0.00  0.00    +0.000 OA
ENDBRANCH  17  24
BRANCH  22  25
ATOM     25  O   UNL     1       1.583   8.048  21.751  0.00  0.00    +0.000 OA
ATOM     26  H   UNL     1       2.227   8.666  22.162  0.00  0.00    +0.000 HD
ENDBRANCH  22  25
ENDBRANCH   1  21
TORSDOF 3
ENDMDL
