MODEL 1
REMARK VINA RESULT:      -6.3      0.000      0.000
REMARK  Name = 
REMARK  6 active torsions:
REMARK  status: ('A' for Active; 'I' for Inactive)
REMARK    1  A    between atoms: C_2  and  C_3
REMARK    2  A    between atoms: C_6  and  O_7
REMARK    3  A    between atoms: O_7  and  C_8
REMARK    4  A    between atoms: C_8  and  C_9
REMARK    5  A    between atoms: C_9  and  C_10
REMARK    6  A    between atoms: C_10  and  C_11
REMARK                            x       y       z     vdW  Elec       q    Type
REMARK                         _______ _______ _______ _____ _____    ______ ____
ROOT
ATOM      1  O   UNL     1       2.337   6.003  19.095  0.00  0.00    +0.000 OA
ENDROOT
BRANCH   1   5
ATOM      2  C   UNL     1       6.144   4.881  17.799  0.00  0.00    +0.000 A 
ATOM      3  C   UNL     1       5.110   4.932  16.868  0.00  0.00    +0.000 A 
ATOM      4  C   UNL     1       3.835   5.324  17.267  0.00  0.00    +0.000 A 
ATOM      5  C   UNL     1       3.572   5.648  18.602  0.00  0.00    +0.000 A 
ATOM      6  C   UNL     1       4.618   5.609  19.529  0.00  0.00    +0.000 A 
ATOM      7  C   UNL     1       5.908   5.228  19.131  0.00  0.00    +0.000 A 
BRANCH   2   9
ATOM      8  O   UNL     1       7.747   4.330  16.159  0.00  0.00    +0.000 OA
ATOM      9  C   UNL     1       7.498   4.502  17.348  0.00  0.00    +0.000 C 
ENDBRANCH   2   9
ENDBRANCH   1   5
BRANCH   1  10
ATOM     10  C   UNL     1       2.065   5.505  20.406  0.00  0.00    +0.000 C 
BRANCH  10  11
ATOM     11  C   UNL     1       1.072   4.354  20.379  0.00  0.00    +0.000 C 
BRANCH  11  12
ATOM     12  C   UNL     1       1.742   3.118  20.979  0.00  0.00    +0.000 C 
BRANCH  12  13
ATOM     13  C   UNL     1       2.743   2.508  20.071  0.00  0.00    +0.000 A 
ATOM     14  C   UNL     1       4.063   2.199  20.319  0.00  0.00    +0.000 A 
ATOM     15  N   UNL     1       4.527   1.655  19.155  0.00  0.00    +0.000 N 
ATOM     16  C   UNL     1       3.490   1.644  18.264  0.00  0.00    +0.000 A 
ATOM     17  N   UNL     1       2.399   2.152  18.789  0.00  0.00    +0.000 NA
ATOM     18  H   UNL     1       5.461   1.316  18.978  0.00  0.00    +0.000 HD
ENDBRANCH  12  13
ENDBRANCH  11  12
ENDBRANCH  10  11
ENDBRANCH   1  10
TORSDOF 6
ENDMDL
MODEL 2
REMARK VINA RESULT:      -6.2      0.795      1.617
REMARK  Name = 
REMARK  6 active torsions:
REMARK  status: ('A' for Active; 'I' for Inactive)
REMARK    1  A    between atoms: C_2  and  C_3
REMARK    2  A    between atoms: C_6  and  O_7
REMARK    3  A    between atoms: O_7  and  C_8
REMARK    4  A    between atoms: C_8  and  C_9
REMARK    5  A    between atoms: C_9  and  C_10
REMARK    6  A    between atoms: C_10  and  C_11
REMARK                            x       y       z     vdW  Elec       q    Type
REMARK                         _______ _______ _______ _____ _____    ______ ____
ROOT
ATOM      1  O   UNL     1       2.378   6.019  19.380  0.00  0.00    +0.000 OA
ENDROOT
BRANCH   1   5
ATOM      2  C   UNL     1       5.887   4.876  17.428  0.00  0.00    +0.000 A 
ATOM      3  C   UNL     1       5.913   5.034  18.812  0.00  0.00    +0.000 A 
ATOM      4  C   UNL     1       4.752   5.393  19.492  0.00  0.00    +0.000 A 
ATOM      5  C   UNL     1       3.559   5.620  18.798  0.00  0.00    +0.000 A 
ATOM      6  C   UNL     1       3.536   5.446  17.411  0.00  0.00    +0.000 A 
ATOM      7  C   UNL     1       4.698   5.071  16.721  0.00  0.00    +0.000 A 
BRANCH   2   9
ATOM      8  O   UNL     1       8.150   4.218  17.349  0.00  0.00    +0.000 OA
ATOM      9  C   UNL     1       7.118   4.456  16.730  0.00  0.00    +0.000 C 
ENDBRANCH   2   9
ENDBRANCH   1   5
BRANCH   1  10
ATOM     10  C   UNL     1       2.150   5.470  20.679  0.00  0.00    +0.000 C 
BRANCH  10  11
ATOM     11  C   UNL     1       1.043   4.429  20.667  0.00  0.00    +0.000 C 
BRANCH  11  12
ATOM     12  C   UNL     1       1.671   3.048  20.862  0.00  0.00    +0.000 C 
BRANCH  12  13
ATOM     13  C   UNL     1       2.219   2.483  19.606  0.00  0.00    +0.000 A 
ATOM     14  C   UNL     1       1.606   2.344  18.379  0.00  0.00    +0.000 A 
ATOM     15  N   UNL     1       2.549   1.775  17.571  0.00  0.00    +0.000 N 
ATOM     16  C   UNL     1       3.681   1.602  18.319  0.00  0.00    +0.000 A 
ATOM     17  N   UNL     1       3.512   2.021  19.552  0.00  0.00    +0.000 NA
ATOM     18  H   UNL     1       2.441   1.528  16.599  0.00  0.00    +0.000 HD
ENDBRANCH  12  13
ENDBRANCH  11  12
ENDBRANCH  10  11
ENDBRANCH   1  10
TORSDOF 6
ENDMDL
MODEL 3
REMARK VINA RESULT:      -6.0      1.399      1.848
REMARK  Name = 
REMARK  6 active torsions:
REMARK  status: ('A' for Active; 'I' for Inactive)
REMARK    1  A    between atoms: C_2  and  C_3
REMARK    2  A    between atoms: C_6  and  O_7
REMARK    3  A    between atoms: O_7  and  C_8
REMARK    4  A    between atoms: C_8  and  C_9
REMARK    5  A    between atoms: C_9  and  C_10
REMARK    6  A    between atoms: C_10  and  C_11
REMARK                            x       y       z     vdW  Elec       q    Type
REMARK                         _______ _______ _______ _____ _____    ______ ____
ROOT
ATOM      1  O   UNL     1       2.533   5.968  18.329  0.00  0.00    +0.000 OA
ENDROOT
BRANCH   1   5
ATOM      2  C   UNL     1       5.895   5.064  16.026  0.00  0.00    +0.000 A 
ATOM      3  C   UNL     1       5.830   6.305  16.655  0.00  0.00    +0.000 A 
ATOM      4  C   UNL     1       4.730   6.625  17.447  0.00  0.00    +0.000 A 
ATOM      5  C   UNL     1       3.675   5.721  17.603  0.00  0.00    +0.000 A 
ATOM      6  C   UNL     1       3.753   4.472  16.981  0.00  0.00    +0.000 A 
ATOM      7  C   UNL     1       4.864   4.137  16.193  0.00  0.00    +0.000 A 
BRANCH   2   9
ATOM      8  O   UNL     1       7.580   5.539  14.446  0.00  0.00    +0.000 OA
ATOM      9  C   UNL     1       7.087   4.727  15.223  0.00  0.00    +0.000 C 
ENDBRANCH   2   9
ENDBRANCH   1   5
BRANCH   1  10
ATOM     10  C   UNL     1       2.728   5.975  19.745  0.00  0.00    +0.000 C 
BRANCH  10  11
ATOM     11  C   UNL     1       1.601   5.262  20.475  0.00  0.00    +0.000 C 
BRANCH  11  12
ATOM     12  C   UNL     1       2.156   3.978  21.093  0.00  0.00    +0.000 C 
BRANCH  12  13
ATOM     13  C   UNL     1       2.459   2.937  20.083  0.00  0.00    +0.000 A 
ATOM     14  C   UNL     1       1.617   2.356  19.159  0.00  0.00    +0.000 A 
ATOM     15  N   UNL     1       2.396   1.468  18.473  0.00  0.00    +0.000 N 
ATOM     16  C   UNL     1       3.661   1.549  18.988  0.00  0.00    +0.000 A 
ATOM     17  N   UNL     1       3.730   2.429  19.960  0.00  0.00    +0.000 NA
ATOM     18  H   UNL     1       2.103   0.863  17.721  0.00  0.00    +0.000 HD
ENDBRANCH  12  13
ENDBRANCH  11  12
ENDBRANCH  10  11
ENDBRANCH   1  10
TORSDOF 6
ENDMDL
MODEL 4
REMARK VINA RESULT:      -6.0      0.958      1.395
REMARK  Name = 
REMARK  6 active torsions:
REMARK  status: ('A' for Active; 'I' for Inactive)
REMARK    1  A    between atoms: C_2  and  C_3
REMARK    2  A    between atoms: C_6  and  O_7
REMARK    3  A    between atoms: O_7  and  C_8
REMARK    4  A    between atoms: C_8  and  C_9
REMARK    5  A    between atoms: C_9  and  C_10
REMARK    6  A    between atoms: C_10  and  C_11
REMARK                            x       y       z     vdW  Elec       q    Type
REMARK                         _______ _______ _______ _____ _____    ______ ____
ROOT
ATOM      1  O   UNL     1       2.131   5.884  19.349  0.00  0.00    +0.000 OA
ENDROOT
BRANCH   1   5
ATOM      2  C   UNL     1       5.933   6.320  17.680  0.00  0.00    +0.000 A 
ATOM      3  C   UNL     1       5.785   5.512  18.805  0.00  0.00    +0.000 A 
ATOM      4  C   UNL     1       4.525   5.331  19.369  0.00  0.00    +0.000 A 
ATOM      5  C   UNL     1       3.403   5.970  18.833  0.00  0.00    +0.000 A 
ATOM      6  C   UNL     1       3.556   6.769  17.696  0.00  0.00    +0.000 A 
ATOM      7  C   UNL     1       4.819   6.945  17.113  0.00  0.00    +0.000 A 
BRANCH   2   9
ATOM      8  O   UNL     1       7.545   5.932  16.003  0.00  0.00    +0.000 OA
ATOM      9  C   UNL     1       7.270   6.468  17.072  0.00  0.00    +0.000 C 
ENDBRANCH   2   9
ENDBRANCH   1   5
BRANCH   1  10
ATOM     10  C   UNL     1       2.053   5.213  20.608  0.00  0.00    +0.000 C 
BRANCH  10  11
ATOM     11  C   UNL     1       0.979   4.136  20.608  0.00  0.00    +0.000 C 
BRANCH  11  12
ATOM     12  C   UNL     1       1.627   2.804  20.987  0.00  0.00    +0.000 C 
BRANCH  12  13
ATOM     13  C   UNL     1       2.647   2.361  20.008  0.00  0.00    +0.000 A 
ATOM     14  C   UNL     1       3.977   2.065  20.216  0.00  0.00    +0.000 A 
ATOM     15  N   UNL     1       4.460   1.704  18.991  0.00  0.00    +0.000 N 
ATOM     16  C   UNL     1       3.423   1.781  18.102  0.00  0.00    +0.000 A 
ATOM     17  N   UNL     1       2.315   2.173  18.688  0.00  0.00    +0.000 NA
ATOM     18  H   UNL     1       5.404   1.426  18.773  0.00  0.00    +0.000 HD
ENDBRANCH  12  13
ENDBRANCH  11  12
ENDBRANCH  10  11
ENDBRANCH   1  10
TORSDOF 6
ENDMDL
MODEL 5
REMARK VINA RESULT:      -5.9      1.249      1.788
REMARK  Name = 
REMARK  6 active torsions:
REMARK  status: ('A' for Active; 'I' for Inactive)
REMARK    1  A    between atoms: C_2  and  C_3
REMARK    2  A    between atoms: C_6  and  O_7
REMARK    3  A    between atoms: O_7  and  C_8
REMARK    4  A    between atoms: C_8  and  C_9
REMARK    5  A    between atoms: C_9  and  C_10
REMARK    6  A    between atoms: C_10  and  C_11
REMARK                            x       y       z     vdW  Elec       q    Type
REMARK                         _______ _______ _______ _____ _____    ______ ____
ROOT
ATOM      1  O   UNL     1       4.302   5.701  19.569  0.00  0.00    +0.000 OA
ENDROOT
BRANCH   1   5
ATOM      2  C   UNL     1       6.254   5.082  15.931  0.00  0.00    +0.000 A 
ATOM      3  C   UNL     1       6.985   5.586  17.004  0.00  0.00    +0.000 A 
ATOM      4  C   UNL     1       6.366   5.782  18.236  0.00  0.00    +0.000 A 
ATOM      5  C   UNL     1       5.006   5.499  18.405  0.00  0.00    +0.000 A 
ATOM      6  C   UNL     1       4.282   4.980  17.328  0.00  0.00    +0.000 A 
ATOM      7  C   UNL     1       4.902   4.767  16.088  0.00  0.00    +0.000 A 
BRANCH   2   9
ATOM      8  O   UNL     1       7.916   5.507  14.312  0.00  0.00    +0.000 OA
ATOM      9  C   UNL     1       6.938   4.844  14.645  0.00  0.00    +0.000 C 
ENDBRANCH   2   9
ENDBRANCH   1   5
BRANCH   1  10
ATOM     10  C   UNL     1       2.885   5.594  19.423  0.00  0.00    +0.000 C 
BRANCH  10  11
ATOM     11  C   UNL     1       2.231   5.016  20.668  0.00  0.00    +0.000 C 
BRANCH  11  12
ATOM     12  C   UNL     1       1.687   3.626  20.331  0.00  0.00    +0.000 C 
BRANCH  12  13
ATOM     13  C   UNL     1       2.716   2.732  19.749  0.00  0.00    +0.000 A 
ATOM     14  C   UNL     1       3.946   2.379  20.260  0.00  0.00    +0.000 A 
ATOM     15  N   UNL     1       4.489   1.532  19.336  0.00  0.00    +0.000 N 
ATOM     16  C   UNL     1       3.580   1.396  18.322  0.00  0.00    +0.000 A 
ATOM     17  N   UNL     1       2.500   2.107  18.545  0.00  0.00    +0.000 NA
ATOM     18  H   UNL     1       5.390   1.082  19.385  0.00  0.00    +0.000 HD
ENDBRANCH  12  13
ENDBRANCH  11  12
ENDBRANCH  10  11
ENDBRANCH   1  10
TORSDOF 6
ENDMDL
MODEL 6
REMARK VINA RESULT:      -5.9      1.681      2.004
REMARK  Name = 
REMARK  6 active torsions:
REMARK  status: ('A' for Active; 'I' for Inactive)
REMARK    1  A    between atoms: C_2  and  C_3
REMARK    2  A    between atoms: C_6  and  O_7
REMARK    3  A    between atoms: O_7  and  C_8
REMARK    4  A    between atoms: C_8  and  C_9
REMARK    5  A    between atoms: C_9  and  C_10
REMARK    6  A    between atoms: C_10  and  C_11
REMARK                            x       y       z     vdW  Elec       q    Type
REMARK                         _______ _______ _______ _____ _____    ______ ____
ROOT
ATOM      1  O   UNL     1       2.461   5.034  20.857  0.00  0.00    +0.000 OA
ENDROOT
BRANCH   1   5
ATOM      2  C   UNL     1       4.820   6.278  17.646  0.00  0.00    +0.000 A 
ATOM      3  C   UNL     1       3.513   6.749  17.736  0.00  0.00    +0.000 A 
ATOM      4  C   UNL     1       2.710   6.368  18.808  0.00  0.00    +0.000 A 
ATOM      5  C   UNL     1       3.194   5.497  19.789  0.00  0.00    +0.000 A 
ATOM      6  C   UNL     1       4.511   5.039  19.700  0.00  0.00    +0.000 A 
ATOM      7  C   UNL     1       5.331   5.429  18.631  0.00  0.00    +0.000 A 
BRANCH   2   9
ATOM      8  O   UNL     1       5.220   6.817  15.384  0.00  0.00    +0.000 OA
ATOM      9  C   UNL     1       5.669   6.725  16.523  0.00  0.00    +0.000 C 
ENDBRANCH   2   9
ENDBRANCH   1   5
BRANCH   1  10
ATOM     10  C   UNL     1       1.147   4.587  20.516  0.00  0.00    +0.000 C 
BRANCH  10  11
ATOM     11  C   UNL     1       1.012   3.078  20.645  0.00  0.00    +0.000 C 
BRANCH  11  12
ATOM     12  C   UNL     1       0.805   2.486  19.250  0.00  0.00    +0.000 C 
BRANCH  12  13
ATOM     13  C   UNL     1       2.048   2.469  18.442  0.00  0.00    +0.000 A 
ATOM     14  C   UNL     1       3.222   1.785  18.673  0.00  0.00    +0.000 A 
ATOM     15  N   UNL     1       4.038   2.112  17.628  0.00  0.00    +0.000 N 
ATOM     16  C   UNL     1       3.339   2.958  16.811  0.00  0.00    +0.000 A 
ATOM     17  N   UNL     1       2.134   3.191  17.276  0.00  0.00    +0.000 NA
ATOM     18  H   UNL     1       4.982   1.790  17.476  0.00  0.00    +0.000 HD
ENDBRANCH  12  13
ENDBRANCH  11  12
ENDBRANCH  10  11
ENDBRANCH   1  10
TORSDOF 6
ENDMDL
MODEL 7
REMARK VINA RESULT:      -5.9      1.191      1.361
REMARK  Name = 
REMARK  6 active torsions:
REMARK  status: ('A' for Active; 'I' for Inactive)
REMARK    1  A    between atoms: C_2  and  C_3
REMARK    2  A    between atoms: C_6  and  O_7
REMARK    3  A    between atoms: O_7  and  C_8
REMARK    4  A    between atoms: C_8  and  C_9
REMARK    5  A    between atoms: C_9  and  C_10
REMARK    6  A    between atoms: C_10  and  C_11
REMARK                            x       y       z     vdW  Elec       q    Type
REMARK                         _______ _______ _______ _____ _____    ______ ____
ROOT
ATOM      1  O   UNL     1       3.451   6.405  19.090  0.00  0.00    +0.000 OA
ENDROOT
BRANCH   1   5
ATOM      2  C   UNL     1       6.030   5.164  16.050  0.00  0.00    +0.000 A 
ATOM      3  C   UNL     1       5.248   6.297  15.841  0.00  0.00    +0.000 A 
ATOM      4  C   UNL     1       4.394   6.746  16.846  0.00  0.00    +0.000 A 
ATOM      5  C   UNL     1       4.296   6.060  18.060  0.00  0.00    +0.000 A 
ATOM      6  C   UNL     1       5.095   4.932  18.269  0.00  0.00    +0.000 A 
ATOM      7  C   UNL     1       5.967   4.481  17.267  0.00  0.00    +0.000 A 
BRANCH   2   9
ATOM      8  O   UNL     1       7.710   5.521  14.433  0.00  0.00    +0.000 OA
ATOM      9  C   UNL     1       6.958   4.726  14.988  0.00  0.00    +0.000 C 
ENDBRANCH   2   9
ENDBRANCH   1   5
BRANCH   1  10
ATOM     10  C   UNL     1       2.271   5.603  19.173  0.00  0.00    +0.000 C 
BRANCH  10  11
ATOM     11  C   UNL     1       2.046   5.075  20.581  0.00  0.00    +0.000 C 
BRANCH  11  12
ATOM     12  C   UNL     1       1.629   3.607  20.490  0.00  0.00    +0.000 C 
BRANCH  12  13
ATOM     13  C   UNL     1       2.670   2.750  19.875  0.00  0.00    +0.000 A 
ATOM     14  C   UNL     1       3.919   2.424  20.356  0.00  0.00    +0.000 A 
ATOM     15  N   UNL     1       4.466   1.606  19.409  0.00  0.00    +0.000 N 
ATOM     16  C   UNL     1       3.542   1.460  18.411  0.00  0.00    +0.000 A 
ATOM     17  N   UNL     1       2.446   2.137  18.665  0.00  0.00    +0.000 NA
ATOM     18  H   UNL     1       5.380   1.181  19.433  0.00  0.00    +0.000 HD
ENDBRANCH  12  13
ENDBRANCH  11  12
ENDBRANCH  10  11
ENDBRANCH   1  10
TORSDOF 6
ENDMDL
MODEL 8
REMARK VINA RESULT:      -5.9      1.010      1.416
REMARK  Name = 
REMARK  6 active torsions:
REMARK  status: ('A' for Active; 'I' for Inactive)
REMARK    1  A    between atoms: C_2  and  C_3
REMARK    2  A    between atoms: C_6  and  O_7
REMARK    3  A    between atoms: O_7  and  C_8
REMARK    4  A    between atoms: C_8  and  C_9
REMARK    5  A    between atoms: C_9  and  C_10
REMARK    6  A    between atoms: C_10  and  C_11
REMARK                            x       y       z     vdW  Elec       q    Type
REMARK                         _______ _______ _______ _____ _____    ______ ____
ROOT
ATOM      1  O   UNL     1       2.139   5.388  18.402  0.00  0.00    +0.000 OA
ENDROOT
BRANCH   1   5
ATOM      2  C   UNL     1       5.862   5.065  16.542  0.00  0.00    +0.000 A 
ATOM      3  C   UNL     1       5.663   6.088  17.466  0.00  0.00    +0.000 A 
ATOM      4  C   UNL     1       4.439   6.206  18.118  0.00  0.00    +0.000 A 
ATOM      5  C   UNL     1       3.392   5.321  17.840  0.00  0.00    +0.000 A 
ATOM      6  C   UNL     1       3.603   4.288  16.922  0.00  0.00    +0.000 A 
ATOM      7  C   UNL     1       4.838   4.154  16.272  0.00  0.00    +0.000 A 
BRANCH   2   9
ATOM      8  O   UNL     1       7.375   5.359  14.757  0.00  0.00    +0.000 OA
ATOM      9  C   UNL     1       7.180   4.932  15.890  0.00  0.00    +0.000 C 
ENDBRANCH   2   9
ENDBRANCH   1   5
BRANCH   1  10
ATOM     10  C   UNL     1       2.139   5.468  19.829  0.00  0.00    +0.000 C 
BRANCH  10  11
ATOM     11  C   UNL     1       1.206   4.442  20.453  0.00  0.00    +0.000 C 
BRANCH  11  12
ATOM     12  C   UNL     1       2.050   3.400  21.188  0.00  0.00    +0.000 C 
BRANCH  12  13
ATOM     13  C   UNL     1       2.914   2.612  20.277  0.00  0.00    +0.000 A 
ATOM     14  C   UNL     1       4.280   2.431  20.320  0.00  0.00    +0.000 A 
ATOM     15  N   UNL     1       4.566   1.618  19.260  0.00  0.00    +0.000 N 
ATOM     16  C   UNL     1       3.385   1.332  18.632  0.00  0.00    +0.000 A 
ATOM     17  N   UNL     1       2.370   1.917  19.224  0.00  0.00    +0.000 NA
ATOM     18  H   UNL     1       5.476   1.282  18.986  0.00  0.00    +0.000 HD
ENDBRANCH  12  13
ENDBRANCH  11  12
ENDBRANCH  10  11
ENDBRANCH   1  10
TORSDOF 6
ENDMDL
MODEL 9
REMARK VINA RESULT:      -5.9      1.227      1.765
REMARK  Name = 
REMARK  6 active torsions:
REMARK  status: ('A' for Active; 'I' for Inactive)
REMARK    1  A    between atoms: C_2  and  C_3
REMARK    2  A    between atoms: C_6  and  O_7
REMARK    3  A    between atoms: O_7  and  C_8
REMARK    4  A    between atoms: C_8  and  C_9
REMARK    5  A    between atoms: C_9  and  C_10
REMARK    6  A    between atoms: C_10  and  C_11
REMARK                            x       y       z     vdW  Elec       q    Type
REMARK                         _______ _______ _______ _____ _____    ______ ____
ROOT
ATOM      1  O   UNL     1       3.867   5.621  19.975  0.00  0.00    +0.000 OA
ENDROOT
BRANCH   1   5
ATOM      2  C   UNL     1       5.859   5.337  16.318  0.00  0.00    +0.000 A 
ATOM      3  C   UNL     1       6.373   4.647  17.414  0.00  0.00    +0.000 A 
ATOM      4  C   UNL     1       5.717   4.706  18.641  0.00  0.00    +0.000 A 
ATOM      5  C   UNL     1       4.556   5.470  18.794  0.00  0.00    +0.000 A 
ATOM      6  C   UNL     1       4.037   6.147  17.687  0.00  0.00    +0.000 A 
ATOM      7  C   UNL     1       4.684   6.082  16.444  0.00  0.00    +0.000 A 
BRANCH   2   9
ATOM      8  O   UNL     1       7.769   5.296  14.935  0.00  0.00    +0.000 OA
ATOM      9  C   UNL     1       6.547   5.230  15.015  0.00  0.00    +0.000 C 
ENDBRANCH   2   9
ENDBRANCH   1   5
BRANCH   1  10
ATOM     10  C   UNL     1       2.468   5.863  19.812  0.00  0.00    +0.000 C 
BRANCH  10  11
ATOM     11  C   UNL     1       1.634   5.010  20.754  0.00  0.00    +0.000 C 
BRANCH  11  12
ATOM     12  C   UNL     1       0.851   3.991  19.925  0.00  0.00    +0.000 C 
BRANCH  12  13
ATOM     13  C   UNL     1       1.731   3.080  19.154  0.00  0.00    +0.000 A 
ATOM     14  C   UNL     1       2.588   2.105  19.617  0.00  0.00    +0.000 A 
ATOM     15  N   UNL     1       3.149   1.560  18.497  0.00  0.00    +0.000 N 
ATOM     16  C   UNL     1       2.614   2.205  17.416  0.00  0.00    +0.000 A 
ATOM     17  N   UNL     1       1.754   3.127  17.781  0.00  0.00    +0.000 NA
ATOM     18  H   UNL     1       3.829   0.817  18.464  0.00  0.00    +0.000 HD
ENDBRANCH  12  13
ENDBRANCH  11  12
ENDBRANCH  10  11
ENDBRANCH   1  10
TORSDOF 6
ENDMDL
