MODEL 1
REMARK VINA RESULT:      -7.8      0.000      0.000
REMARK  Name = 
REMARK  4 active torsions:
REMARK  status: ('A' for Active; 'I' for Inactive)
REMARK    1  A    between atoms: C_1  and  C_2
REMARK    2  A    between atoms: C_4  and  N_5
REMARK    3  A    between atoms: C_16  and  O_17
REMARK    4  A    between atoms: C_18  and  O_19
REMARK                            x       y       z     vdW  Elec       q    Type
REMARK                         _______ _______ _______ _____ _____    ______ ____
ROOT
ATOM      1  N   UNL     1       4.230   4.526  17.976  0.00  0.00    +0.000 N 
ATOM      2  C   UNL     1       4.587   5.414  18.961  0.00  0.00    +0.000 A 
ATOM      3  N   UNL     1       5.630   6.139  18.621  0.00  0.00    +0.000 NA
ATOM      4  C   UNL     1       5.966   5.701  17.359  0.00  0.00    +0.000 A 
ATOM      5  C   UNL     1       6.981   6.089  16.467  0.00  0.00    +0.000 A 
ATOM      6  N   UNL     1       7.911   7.072  16.773  0.00  0.00    +0.000 N 
ATOM      7  N   UNL     1       7.043   5.496  15.258  0.00  0.00    +0.000 NA
ATOM      8  C   UNL     1       6.131   4.541  14.983  0.00  0.00    +0.000 A 
ATOM      9 CL   UNL     1       6.271   3.811  13.443  0.00  0.00    +0.000 Cl
ATOM     10  N   UNL     1       5.118   4.086  15.744  0.00  0.00    +0.000 NA
ATOM     11  C   UNL     1       5.098   4.708  16.934  0.00  0.00    +0.000 A 
ATOM     12  H   UNL     1       7.622   7.678  17.535  0.00  0.00    +0.000 HD
ATOM     13  H   UNL     1       8.307   7.507  15.951  0.00  0.00    +0.000 HD
ENDROOT
BRANCH   1  17
ATOM     14  C   UNL     1       1.201   4.433  20.658  0.00  0.00    +0.000 C 
ATOM     15  C   UNL     1       1.175   3.619  19.375  0.00  0.00    +0.000 C 
ATOM     16  O   UNL     1       1.907   4.322  18.350  0.00  0.00    +0.000 OA
ATOM     17  C   UNL     1       3.123   3.597  18.068  0.00  0.00    +0.000 C 
ATOM     18  C   UNL     1       3.278   2.501  19.122  0.00  0.00    +0.000 C 
ATOM     19  C   UNL     1       1.829   2.245  19.509  0.00  0.00    +0.000 C 
BRANCH  18  20
ATOM     20  O   UNL     1       3.891   1.323  18.589  0.00  0.00    +0.000 OA
ATOM     21  H   UNL     1       4.850   1.527  18.523  0.00  0.00    +0.000 HD
ENDBRANCH  18  20
BRANCH  19  22
ATOM     22  O   UNL     1       1.283   1.304  18.564  0.00  0.00    +0.000 OA
ATOM     23  H   UNL     1       0.758   1.789  17.902  0.00  0.00    +0.000 HD
ENDBRANCH  19  22
ENDBRANCH   1  17
TORSDOF 3
ENDMDL
MODEL 2
REMARK VINA RESULT:      -7.7      2.262      3.116
REMARK  Name = 
REMARK  4 active torsions:
REMARK  status: ('A' for Active; 'I' for Inactive)
REMARK    1  A    between atoms: C_1  and  C_2
REMARK    2  A    between atoms: C_4  and  N_5
REMARK    3  A    between atoms: C_16  and  O_17
REMARK    4  A    between atoms: C_18  and  O_19
REMARK                            x       y       z     vdW  Elec       q    Type
REMARK                         _______ _______ _______ _____ _____    ______ ____
ROOT
ATOM      1  N   UNL     1       4.199   3.837  18.342  0.00  0.00    +0.000 N 
ATOM      2  C   UNL     1       3.736   3.618  17.068  0.00  0.00    +0.000 A 
ATOM      3  N   UNL     1       4.576   4.055  16.154  0.00  0.00    +0.000 NA
ATOM      4  C   UNL     1       5.629   4.583  16.868  0.00  0.00    +0.000 A 
ATOM      5  C   UNL     1       6.829   5.191  16.463  0.00  0.00    +0.000 A 
ATOM      6  N   UNL     1       7.156   5.388  15.128  0.00  0.00    +0.000 N 
ATOM      7  N   UNL     1       7.708   5.585  17.406  0.00  0.00    +0.000 NA
ATOM      8  C   UNL     1       7.368   5.387  18.696  0.00  0.00    +0.000 A 
ATOM      9 CL   UNL     1       8.512   5.923  19.850  0.00  0.00    +0.000 Cl
ATOM     10  N   UNL     1       6.261   4.819  19.209  0.00  0.00    +0.000 NA
ATOM     11  C   UNL     1       5.421   4.443  18.231  0.00  0.00    +0.000 A 
ATOM     12  H   UNL     1       6.624   4.802  14.492  0.00  0.00    +0.000 HD
ATOM     13  H   UNL     1       8.153   5.463  14.975  0.00  0.00    +0.000 HD
ENDROOT
BRANCH   1  17
ATOM     14  C   UNL     1       0.545   2.141  18.729  0.00  0.00    +0.000 C 
ATOM     15  C   UNL     1       1.529   2.222  19.885  0.00  0.00    +0.000 C 
ATOM     16  O   UNL     1       2.876   2.172  19.368  0.00  0.00    +0.000 OA
ATOM     17  C   UNL     1       3.491   3.465  19.549  0.00  0.00    +0.000 C 
ATOM     18  C   UNL     1       2.409   4.447  20.000  0.00  0.00    +0.000 C 
ATOM     19  C   UNL     1       1.422   3.517  20.689  0.00  0.00    +0.000 C 
BRANCH  18  20
ATOM     20  O   UNL     1       2.918   5.431  20.904  0.00  0.00    +0.000 OA
ATOM     21  H   UNL     1       2.177   5.646  21.512  0.00  0.00    +0.000 HD
ENDBRANCH  18  20
BRANCH  19  22
ATOM     22  O   UNL     1       1.868   3.335  22.047  0.00  0.00    +0.000 OA
ATOM     23  H   UNL     1       2.651   3.895  22.200  0.00  0.00    +0.000 HD
ENDBRANCH  19  22
ENDBRANCH   1  17
TORSDOF 3
ENDMDL
MODEL 3
REMARK VINA RESULT:      -7.7      2.120      3.144
REMARK  Name = 
REMARK  4 active torsions:
REMARK  status: ('A' for Active; 'I' for Inactive)
REMARK    1  A    between atoms: C_1  and  C_2
REMARK    2  A    between atoms: C_4  and  N_5
REMARK    3  A    between atoms: C_16  and  O_17
REMARK    4  A    between atoms: C_18  and  O_19
REMARK                            x       y       z     vdW  Elec       q    Type
REMARK                         _______ _______ _______ _____ _____    ______ ____
ROOT
ATOM      1  N   UNL     1       4.606   4.272  17.993  0.00  0.00    +0.000 N 
ATOM      2  C   UNL     1       4.279   3.511  16.897  0.00  0.00    +0.000 A 
ATOM      3  N   UNL     1       5.051   3.773  15.863  0.00  0.00    +0.000 NA
ATOM      4  C   UNL     1       5.916   4.748  16.309  0.00  0.00    +0.000 A 
ATOM      5  C   UNL     1       6.971   5.429  15.679  0.00  0.00    +0.000 A 
ATOM      6  N   UNL     1       7.323   5.204  14.354  0.00  0.00    +0.000 N 
ATOM      7  N   UNL     1       7.684   6.324  16.391  0.00  0.00    +0.000 NA
ATOM      8  C   UNL     1       7.323   6.528  17.675  0.00  0.00    +0.000 A 
ATOM      9 CL   UNL     1       8.250   7.689  18.524  0.00  0.00    +0.000 Cl
ATOM     10  N   UNL     1       6.343   5.943  18.389  0.00  0.00    +0.000 NA
ATOM     11  C   UNL     1       5.666   5.061  17.636  0.00  0.00    +0.000 A 
ATOM     12  H   UNL     1       6.972   4.324  13.988  0.00  0.00    +0.000 HD
ATOM     13  H   UNL     1       8.284   5.446  14.157  0.00  0.00    +0.000 HD
ENDROOT
BRANCH   1  17
ATOM     14  C   UNL     1       1.150   2.397  18.950  0.00  0.00    +0.000 C 
ATOM     15  C   UNL     1       2.110   2.920  20.006  0.00  0.00    +0.000 C 
ATOM     16  O   UNL     1       3.459   2.859  19.496  0.00  0.00    +0.000 OA
ATOM     17  C   UNL     1       3.931   4.204  19.272  0.00  0.00    +0.000 C 
ATOM     18  C   UNL     1       2.748   5.157  19.435  0.00  0.00    +0.000 C 
ATOM     19  C   UNL     1       1.859   4.377  20.392  0.00  0.00    +0.000 C 
BRANCH  18  20
ATOM     20  O   UNL     1       3.141   6.414  19.995  0.00  0.00    +0.000 OA
ATOM     21  H   UNL     1       3.485   6.946  19.245  0.00  0.00    +0.000 HD
ENDBRANCH  18  20
BRANCH  19  22
ATOM     22  O   UNL     1       2.310   4.655  21.732  0.00  0.00    +0.000 OA
ATOM     23  H   UNL     1       1.554   4.575  22.343  0.00  0.00    +0.000 HD
ENDBRANCH  19  22
ENDBRANCH   1  17
TORSDOF 3
ENDMDL
MODEL 4
REMARK VINA RESULT:      -7.6      3.575      6.070
REMARK  Name = 
REMARK  4 active torsions:
REMARK  status: ('A' for Active; 'I' for Inactive)
REMARK    1  A    between atoms: C_1  and  C_2
REMARK    2  A    between atoms: C_4  and  N_5
REMARK    3  A    between atoms: C_16  and  O_17
REMARK    4  A    between atoms: C_18  and  O_19
REMARK                            x       y       z     vdW  Elec       q    Type
REMARK                         _______ _______ _______ _____ _____    ______ ____
ROOT
ATOM      1  N   UNL     1       4.299   4.484  18.261  0.00  0.00    +0.000 N 
ATOM      2  C   UNL     1       4.176   3.118  18.190  0.00  0.00    +0.000 A 
ATOM      3  N   UNL     1       3.187   2.669  18.933  0.00  0.00    +0.000 NA
ATOM      4  C   UNL     1       2.645   3.796  19.513  0.00  0.00    +0.000 A 
ATOM      5  C   UNL     1       1.568   3.972  20.397  0.00  0.00    +0.000 A 
ATOM      6  N   UNL     1       0.818   2.912  20.886  0.00  0.00    +0.000 N 
ATOM      7  N   UNL     1       1.235   5.224  20.773  0.00  0.00    +0.000 NA
ATOM      8  C   UNL     1       1.979   6.239  20.288  0.00  0.00    +0.000 A 
ATOM      9 CL   UNL     1       1.524   7.802  20.815  0.00  0.00    +0.000 Cl
ATOM     10  N   UNL     1       3.024   6.201  19.440  0.00  0.00    +0.000 NA
ATOM     11  C   UNL     1       3.312   4.936  19.095  0.00  0.00    +0.000 A 
ATOM     12  H   UNL     1       0.910   2.064  20.334  0.00  0.00    +0.000 HD
ATOM     13  H   UNL     1      -0.112   3.187  21.172  0.00  0.00    +0.000 HD
ENDROOT
BRANCH   1  17
ATOM     14  C   UNL     1       5.420   4.250  14.380  0.00  0.00    +0.000 C 
ATOM     15  C   UNL     1       5.817   5.416  15.271  0.00  0.00    +0.000 C 
ATOM     16  O   UNL     1       4.786   5.634  16.257  0.00  0.00    +0.000 OA
ATOM     17  C   UNL     1       5.297   5.258  17.554  0.00  0.00    +0.000 C 
ATOM     18  C   UNL     1       6.641   4.558  17.350  0.00  0.00    +0.000 C 
ATOM     19  C   UNL     1       7.113   5.180  16.045  0.00  0.00    +0.000 C 
BRANCH  18  20
ATOM     20  O   UNL     1       7.555   4.825  18.417  0.00  0.00    +0.000 OA
ATOM     21  H   UNL     1       7.032   5.281  19.111  0.00  0.00    +0.000 HD
ENDBRANCH  18  20
BRANCH  19  22
ATOM     22  O   UNL     1       7.772   6.421  16.365  0.00  0.00    +0.000 OA
ATOM     23  H   UNL     1       7.387   6.781  17.185  0.00  0.00    +0.000 HD
ENDBRANCH  19  22
ENDBRANCH   1  17
TORSDOF 3
ENDMDL
MODEL 5
REMARK VINA RESULT:      -7.4      1.775      2.510
REMARK  Name = 
REMARK  4 active torsions:
REMARK  status: ('A' for Active; 'I' for Inactive)
REMARK    1  A    between atoms: C_1  and  C_2
REMARK    2  A    between atoms: C_4  and  N_5
REMARK    3  A    between atoms: C_16  and  O_17
REMARK    4  A    between atoms: C_18  and  O_19
REMARK                            x       y       z     vdW  Elec       q    Type
REMARK                         _______ _______ _______ _____ _____    ______ ____
ROOT
ATOM      1  N   UNL     1       5.682   4.518  16.494  0.00  0.00    +0.000 N 
ATOM      2  C   UNL     1       6.581   5.423  17.001  0.00  0.00    +0.000 A 
ATOM      3  N   UNL     1       7.449   5.822  16.095  0.00  0.00    +0.000 NA
ATOM      4  C   UNL     1       7.097   5.142  14.949  0.00  0.00    +0.000 A 
ATOM      5  C   UNL     1       7.635   5.145  13.652  0.00  0.00    +0.000 A 
ATOM      6  N   UNL     1       8.739   5.909  13.300  0.00  0.00    +0.000 N 
ATOM      7  N   UNL     1       7.045   4.390  12.702  0.00  0.00    +0.000 NA
ATOM      8  C   UNL     1       5.975   3.654  13.067  0.00  0.00    +0.000 A 
ATOM      9 CL   UNL     1       5.280   2.701  11.828  0.00  0.00    +0.000 Cl
ATOM     10  N   UNL     1       5.368   3.567  14.266  0.00  0.00    +0.000 NA
ATOM     11  C   UNL     1       5.991   4.338  15.172  0.00  0.00    +0.000 A 
ATOM     12  H   UNL     1       8.927   6.668  13.948  0.00  0.00    +0.000 HD
ATOM     13  H   UNL     1       8.775   6.116  12.311  0.00  0.00    +0.000 HD
ENDROOT
BRANCH   1  17
ATOM     14  C   UNL     1       2.488   6.265  18.261  0.00  0.00    +0.000 C 
ATOM     15  C   UNL     1       2.584   4.761  18.061  0.00  0.00    +0.000 C 
ATOM     16  O   UNL     1       3.351   4.487  16.869  0.00  0.00    +0.000 OA
ATOM     17  C   UNL     1       4.614   3.904  17.255  0.00  0.00    +0.000 C 
ATOM     18  C   UNL     1       4.747   4.019  18.773  0.00  0.00    +0.000 C 
ATOM     19  C   UNL     1       3.288   4.036  19.206  0.00  0.00    +0.000 C 
BRANCH  18  20
ATOM     20  O   UNL     1       5.447   2.908  19.339  0.00  0.00    +0.000 OA
ATOM     21  H   UNL     1       5.459   2.216  18.643  0.00  0.00    +0.000 HD
ENDBRANCH  18  20
BRANCH  19  22
ATOM     22  O   UNL     1       2.850   2.668  19.316  0.00  0.00    +0.000 OA
ATOM     23  H   UNL     1       3.593   2.078  19.090  0.00  0.00    +0.000 HD
ENDBRANCH  19  22
ENDBRANCH   1  17
TORSDOF 3
ENDMDL
MODEL 6
REMARK VINA RESULT:      -7.2      2.404      3.002
REMARK  Name = 
REMARK  4 active torsions:
REMARK  status: ('A' for Active; 'I' for Inactive)
REMARK    1  A    between atoms: C_1  and  C_2
REMARK    2  A    between atoms: C_4  and  N_5
REMARK    3  A    between atoms: C_16  and  O_17
REMARK    4  A    between atoms: C_18  and  O_19
REMARK                            x       y       z     vdW  Elec       q    Type
REMARK                         _______ _______ _______ _____ _____    ______ ____
ROOT
ATOM      1  N   UNL     1       5.188   4.793  17.208  0.00  0.00    +0.000 N 
ATOM      2  C   UNL     1       4.875   5.664  16.193  0.00  0.00    +0.000 A 
ATOM      3  N   UNL     1       5.643   6.732  16.201  0.00  0.00    +0.000 NA
ATOM      4  C   UNL     1       6.492   6.546  17.270  0.00  0.00    +0.000 A 
ATOM      5  C   UNL     1       7.536   7.329  17.789  0.00  0.00    +0.000 A 
ATOM      6  N   UNL     1       7.893   8.556  17.247  0.00  0.00    +0.000 N 
ATOM      7  N   UNL     1       8.234   6.864  18.845  0.00  0.00    +0.000 NA
ATOM      8  C   UNL     1       7.867   5.671  19.357  0.00  0.00    +0.000 A 
ATOM      9 CL   UNL     1       8.774   5.140  20.708  0.00  0.00    +0.000 Cl
ATOM     10  N   UNL     1       6.896   4.831  18.953  0.00  0.00    +0.000 NA
ATOM     11  C   UNL     1       6.235   5.339  17.900  0.00  0.00    +0.000 A 
ATOM     12  H   UNL     1       7.558   8.691  16.298  0.00  0.00    +0.000 HD
ATOM     13  H   UNL     1       8.851   8.810  17.448  0.00  0.00    +0.000 HD
ENDROOT
BRANCH   1  17
ATOM     14  C   UNL     1       1.262   4.109  17.915  0.00  0.00    +0.000 C 
ATOM     15  C   UNL     1       2.233   2.991  17.574  0.00  0.00    +0.000 C 
ATOM     16  O   UNL     1       3.271   3.506  16.714  0.00  0.00    +0.000 OA
ATOM     17  C   UNL     1       4.512   3.536  17.451  0.00  0.00    +0.000 C 
ATOM     18  C   UNL     1       4.202   3.235  18.916  0.00  0.00    +0.000 C 
ATOM     19  C   UNL     1       2.937   2.399  18.794  0.00  0.00    +0.000 C 
BRANCH  18  20
ATOM     20  O   UNL     1       5.254   2.501  19.550  0.00  0.00    +0.000 OA
ATOM     21  H   UNL     1       6.023   2.555  18.942  0.00  0.00    +0.000 HD
ENDBRANCH  18  20
BRANCH  19  22
ATOM     22  O   UNL     1       3.336   1.033  18.565  0.00  0.00    +0.000 OA
ATOM     23  H   UNL     1       4.285   1.015  18.342  0.00  0.00    +0.000 HD
ENDBRANCH  19  22
ENDBRANCH   1  17
TORSDOF 3
ENDMDL
MODEL 7
REMARK VINA RESULT:      -7.1      3.474      6.011
REMARK  Name = 
REMARK  4 active torsions:
REMARK  status: ('A' for Active; 'I' for Inactive)
REMARK    1  A    between atoms: C_1  and  C_2
REMARK    2  A    between atoms: C_4  and  N_5
REMARK    3  A    between atoms: C_16  and  O_17
REMARK    4  A    between atoms: C_18  and  O_19
REMARK                            x       y       z     vdW  Elec       q    Type
REMARK                         _______ _______ _______ _____ _____    ______ ____
ROOT
ATOM      1  N   UNL     1       4.445   3.937  18.264  0.00  0.00    +0.000 N 
ATOM      2  C   UNL     1       4.192   2.590  18.344  0.00  0.00    +0.000 A 
ATOM      3  N   UNL     1       3.139   2.326  19.088  0.00  0.00    +0.000 NA
ATOM      4  C   UNL     1       2.690   3.558  19.511  0.00  0.00    +0.000 A 
ATOM      5  C   UNL     1       1.606   3.936  20.320  0.00  0.00    +0.000 A 
ATOM      6  N   UNL     1       0.741   3.014  20.893  0.00  0.00    +0.000 N 
ATOM      7  N   UNL     1       1.385   5.249  20.536  0.00  0.00    +0.000 NA
ATOM      8  C   UNL     1       2.240   6.126  19.973  0.00  0.00    +0.000 A 
ATOM      9 CL   UNL     1       1.922   7.776  20.297  0.00  0.00    +0.000 Cl
ATOM     10  N   UNL     1       3.304   5.892  19.183  0.00  0.00    +0.000 NA
ATOM     11  C   UNL     1       3.480   4.574  18.997  0.00  0.00    +0.000 A 
ATOM     12  H   UNL     1       0.768   2.103  20.445  0.00  0.00    +0.000 HD
ATOM     13  H   UNL     1      -0.167   3.407  21.104  0.00  0.00    +0.000 HD
ENDROOT
BRANCH   1  17
ATOM     14  C   UNL     1       7.800   5.724  19.652  0.00  0.00    +0.000 C 
ATOM     15  C   UNL     1       7.642   5.311  18.198  0.00  0.00    +0.000 C 
ATOM     16  O   UNL     1       6.793   4.147  18.123  0.00  0.00    +0.000 OA
ATOM     17  C   UNL     1       5.538   4.526  17.519  0.00  0.00    +0.000 C 
ATOM     18  C   UNL     1       5.505   6.050  17.409  0.00  0.00    +0.000 C 
ATOM     19  C   UNL     1       6.988   6.382  17.326  0.00  0.00    +0.000 C 
BRANCH  18  20
ATOM     20  O   UNL     1       4.806   6.492  16.242  0.00  0.00    +0.000 OA
ATOM     21  H   UNL     1       5.492   6.843  15.635  0.00  0.00    +0.000 HD
ENDBRANCH  18  20
BRANCH  19  22
ATOM     22  O   UNL     1       7.386   6.258  15.947  0.00  0.00    +0.000 OA
ATOM     23  H   UNL     1       7.355   5.318  15.692  0.00  0.00    +0.000 HD
ENDBRANCH  19  22
ENDBRANCH   1  17
TORSDOF 3
ENDMDL
MODEL 8
REMARK VINA RESULT:      -6.9      2.493      3.230
REMARK  Name = 
REMARK  4 active torsions:
REMARK  status: ('A' for Active; 'I' for Inactive)
REMARK    1  A    between atoms: C_1  and  C_2
REMARK    2  A    between atoms: C_4  and  N_5
REMARK    3  A    between atoms: C_16  and  O_17
REMARK    4  A    between atoms: C_18  and  O_19
REMARK                            x       y       z     vdW  Elec       q    Type
REMARK                         _______ _______ _______ _____ _____    ______ ____
ROOT
ATOM      1  N   UNL     1       3.993   4.638  18.930  0.00  0.00    +0.000 N 
ATOM      2  C   UNL     1       3.386   5.092  17.785  0.00  0.00    +0.000 A 
ATOM      3  N   UNL     1       4.199   5.819  17.048  0.00  0.00    +0.000 NA
ATOM      4  C   UNL     1       5.386   5.837  17.747  0.00  0.00    +0.000 A 
ATOM      5  C   UNL     1       6.627   6.436  17.477  0.00  0.00    +0.000 A 
ATOM      6  N   UNL     1       6.859   7.202  16.342  0.00  0.00    +0.000 N 
ATOM      7  N   UNL     1       7.642   6.246  18.344  0.00  0.00    +0.000 NA
ATOM      8  C   UNL     1       7.394   5.502  19.441  0.00  0.00    +0.000 A 
ATOM      9 CL   UNL     1       8.712   5.311  20.515  0.00  0.00    +0.000 Cl
ATOM     10  N   UNL     1       6.259   4.877  19.809  0.00  0.00    +0.000 NA
ATOM     11  C   UNL     1       5.283   5.095  18.913  0.00  0.00    +0.000 A 
ATOM     12  H   UNL     1       6.181   7.043  15.603  0.00  0.00    +0.000 HD
ATOM     13  H   UNL     1       7.836   7.236  16.085  0.00  0.00    +0.000 HD
ENDROOT
BRANCH   1  17
ATOM     14  C   UNL     1       0.719   2.287  18.572  0.00  0.00    +0.000 C 
ATOM     15  C   UNL     1       1.650   2.206  19.770  0.00  0.00    +0.000 C 
ATOM     16  O   UNL     1       2.990   2.543  19.356  0.00  0.00    +0.000 OA
ATOM     17  C   UNL     1       3.347   3.817  19.933  0.00  0.00    +0.000 C 
ATOM     18  C   UNL     1       2.092   4.423  20.561  0.00  0.00    +0.000 C 
ATOM     19  C   UNL     1       1.286   3.176  20.893  0.00  0.00    +0.000 C 
BRANCH  18  20
ATOM     20  O   UNL     1       2.390   5.181  21.737  0.00  0.00    +0.000 OA
ATOM     21  H   UNL     1       3.365   5.142  21.841  0.00  0.00    +0.000 HD
ENDBRANCH  18  20
BRANCH  19  22
ATOM     22  O   UNL     1       1.735   2.695  22.175  0.00  0.00    +0.000 OA
ATOM     23  H   UNL     1       1.638   1.725  22.200  0.00  0.00    +0.000 HD
ENDBRANCH  19  22
ENDBRANCH   1  17
TORSDOF 3
ENDMDL
MODEL 9
REMARK VINA RESULT:      -6.9      3.457      5.949
REMARK  Name = 
REMARK  4 active torsions:
REMARK  status: ('A' for Active; 'I' for Inactive)
REMARK    1  A    between atoms: C_1  and  C_2
REMARK    2  A    between atoms: C_4  and  N_5
REMARK    3  A    between atoms: C_16  and  O_17
REMARK    4  A    between atoms: C_18  and  O_19
REMARK                            x       y       z     vdW  Elec       q    Type
REMARK                         _______ _______ _______ _____ _____    ______ ____
ROOT
ATOM      1  N   UNL     1       4.186   4.583  18.015  0.00  0.00    +0.000 N 
ATOM      2  C   UNL     1       2.995   5.227  17.791  0.00  0.00    +0.000 A 
ATOM      3  N   UNL     1       2.049   4.821  18.612  0.00  0.00    +0.000 NA
ATOM      4  C   UNL     1       2.656   3.869  19.403  0.00  0.00    +0.000 A 
ATOM      5  C   UNL     1       2.175   3.082  20.462  0.00  0.00    +0.000 A 
ATOM      6  N   UNL     1       0.861   3.142  20.904  0.00  0.00    +0.000 N 
ATOM      7  N   UNL     1       3.028   2.245  21.088  0.00  0.00    +0.000 NA
ATOM      8  C   UNL     1       4.299   2.201  20.639  0.00  0.00    +0.000 A 
ATOM      9 CL   UNL     1       5.331   1.108  21.457  0.00  0.00    +0.000 Cl
ATOM     10  N   UNL     1       4.878   2.900  19.645  0.00  0.00    +0.000 NA
ATOM     11  C   UNL     1       3.989   3.718  19.057  0.00  0.00    +0.000 A 
ATOM     12  H   UNL     1       0.378   3.988  20.618  0.00  0.00    +0.000 HD
ATOM     13  H   UNL     1       0.756   2.842  21.864  0.00  0.00    +0.000 HD
ENDROOT
BRANCH   1  17
ATOM     14  C   UNL     1       7.806   5.797  19.358  0.00  0.00    +0.000 C 
ATOM     15  C   UNL     1       7.606   5.230  17.962  0.00  0.00    +0.000 C 
ATOM     16  O   UNL     1       6.527   4.272  17.987  0.00  0.00    +0.000 OA
ATOM     17  C   UNL     1       5.402   4.820  17.266  0.00  0.00    +0.000 C 
ATOM     18  C   UNL     1       5.704   6.287  16.960  0.00  0.00    +0.000 C 
ATOM     19  C   UNL     1       7.225   6.284  16.923  0.00  0.00    +0.000 C 
BRANCH  18  20
ATOM     20  O   UNL     1       5.152   6.700  15.706  0.00  0.00    +0.000 OA
ATOM     21  H   UNL     1       4.190   6.816  15.862  0.00  0.00    +0.000 HD
ENDBRANCH  18  20
BRANCH  19  22
ATOM     22  O   UNL     1       7.629   5.890  15.597  0.00  0.00    +0.000 OA
ATOM     23  H   UNL     1       8.530   6.223  15.429  0.00  0.00    +0.000 HD
ENDBRANCH  19  22
ENDBRANCH   1  17
TORSDOF 3
ENDMDL
