MODEL 1
REMARK VINA RESULT:      -8.4      0.000      0.000
REMARK  Name = 
REMARK  6 active torsions:
REMARK  status: ('A' for Active; 'I' for Inactive)
REMARK    1  A    between atoms: N_1  and  C_2
REMARK    2  A    between atoms: C_5  and  C_6
REMARK    3  A    between atoms: C_12  and  C_13
REMARK    4  A    between atoms: N_15  and  C_16
REMARK    5  A    between atoms: C_19  and  S_20
REMARK    6  A    between atoms: S_20  and  N_21
REMARK                            x       y       z     vdW  Elec       q    Type
REMARK                         _______ _______ _______ _____ _____    ______ ____
ROOT
ATOM      1  C   UNL     1       2.408   4.999  19.626  0.00  0.00    +0.000 C 
ATOM      2  O   UNL     1       1.459   4.790  18.879  0.00  0.00    +0.000 OA
ATOM      3  N   UNL     1       2.775   6.242  20.121  0.00  0.00    +0.000 N 
ATOM      4  H   UNL     1       3.638   6.296  20.646  0.00  0.00    +0.000 HD
ENDROOT
BRANCH   3   5
ATOM      5  C   UNL     1       2.109   7.462  19.829  0.00  0.00    +0.000 A 
ATOM      6  C   UNL     1       2.208   8.099  18.585  0.00  0.00    +0.000 A 
ATOM      7  C   UNL     1       1.555   9.301  18.329  0.00  0.00    +0.000 A 
ATOM      8  C   UNL     1       0.768   9.875  19.320  0.00  0.00    +0.000 A 
ATOM      9  C   UNL     1       0.657   9.271  20.576  0.00  0.00    +0.000 A 
ATOM     10  C   UNL     1       1.322   8.059  20.824  0.00  0.00    +0.000 A 
BRANCH   8  11
ATOM     11  S   UNL     1      -0.086  11.377  18.951  0.00  0.00    +0.000 S 
ATOM     12  O   UNL     1      -1.042  11.647  20.001  0.00  0.00    +0.000 OA
ATOM     13  O   UNL     1       0.854  12.365  18.482  0.00  0.00    +0.000 OA
BRANCH  11  14
ATOM     14  N   UNL     1      -0.988  10.914  17.612  0.00  0.00    +0.000 NA
ATOM     15  H   UNL     1      -0.411  10.950  16.772  0.00  0.00    +0.000 HD
ATOM     16  H   UNL     1      -1.428  10.009  17.781  0.00  0.00    +0.000 HD
ENDBRANCH  11  14
ENDBRANCH   8  11
ENDBRANCH   3   5
BRANCH   1  21
ATOM     17  C   UNL     1       3.078   2.969  20.989  0.00  0.00    +0.000 A 
ATOM     18  O   UNL     1       4.055   2.029  20.906  0.00  0.00    +0.000 OA
ATOM     19  N   UNL     1       4.907   2.326  19.862  0.00  0.00    +0.000 NA
ATOM     20  C   UNL     1       4.459   3.473  19.326  0.00  0.00    +0.000 A 
ATOM     21  C   UNL     1       3.260   3.896  19.992  0.00  0.00    +0.000 A 
BRANCH  20  22
ATOM     22  C   UNL     1       5.186   4.139  18.237  0.00  0.00    +0.000 A 
ATOM     23  C   UNL     1       4.783   3.988  16.903  0.00  0.00    +0.000 A 
ATOM     24  C   UNL     1       5.479   4.629  15.872  0.00  0.00    +0.000 A 
ATOM     25  C   UNL     1       6.584   5.429  16.160  0.00  0.00    +0.000 A 
ATOM     26  C   UNL     1       7.003   5.580  17.478  0.00  0.00    +0.000 A 
ATOM     27  C   UNL     1       6.317   4.928  18.506  0.00  0.00    +0.000 A 
ENDBRANCH  20  22
BRANCH  17  28
ATOM     28  N   UNL     1       2.149   2.792  21.950  0.00  0.00    +0.000 N 
ATOM     29  H   UNL     1       1.316   3.374  21.870  0.00  0.00    +0.000 HD
ATOM     30  H   UNL     1       2.447   2.695  22.916  0.00  0.00    +0.000 HD
ENDBRANCH  17  28
ENDBRANCH   1  21
TORSDOF 6
ENDMDL
MODEL 2
REMARK VINA RESULT:      -8.3      0.496      1.084
REMARK  Name = 
REMARK  6 active torsions:
REMARK  status: ('A' for Active; 'I' for Inactive)
REMARK    1  A    between atoms: N_1  and  C_2
REMARK    2  A    between atoms: C_5  and  C_6
REMARK    3  A    between atoms: C_12  and  C_13
REMARK    4  A    between atoms: N_15  and  C_16
REMARK    5  A    between atoms: C_19  and  S_20
REMARK    6  A    between atoms: S_20  and  N_21
REMARK                            x       y       z     vdW  Elec       q    Type
REMARK                         _______ _______ _______ _____ _____    ______ ____
ROOT
ATOM      1  C   UNL     1       2.221   5.069  20.071  0.00  0.00    +0.000 C 
ATOM      2  O   UNL     1       1.023   4.842  19.944  0.00  0.00    +0.000 OA
ATOM      3  N   UNL     1       2.805   6.326  20.010  0.00  0.00    +0.000 N 
ATOM      4  H   UNL     1       3.817   6.369  20.029  0.00  0.00    +0.000 HD
ENDROOT
BRANCH   3   5
ATOM      5  C   UNL     1       2.102   7.539  19.782  0.00  0.00    +0.000 A 
ATOM      6  C   UNL     1       1.366   8.186  20.783  0.00  0.00    +0.000 A 
ATOM      7  C   UNL     1       0.674   9.367  20.529  0.00  0.00    +0.000 A 
ATOM      8  C   UNL     1       0.731   9.932  19.260  0.00  0.00    +0.000 A 
ATOM      9  C   UNL     1       1.446   9.305  18.236  0.00  0.00    +0.000 A 
ATOM     10  C   UNL     1       2.139   8.112  18.503  0.00  0.00    +0.000 A 
BRANCH   8  11
ATOM     11  S   UNL     1      -0.119  11.455  18.980  0.00  0.00    +0.000 S 
ATOM     12  O   UNL     1      -1.066  11.672  20.051  0.00  0.00    +0.000 OA
ATOM     13  O   UNL     1       0.822  12.463  18.558  0.00  0.00    +0.000 OA
BRANCH  11  14
ATOM     14  N   UNL     1      -1.033  11.070  17.625  0.00  0.00    +0.000 NA
ATOM     15  H   UNL     1      -0.763  11.662  16.841  0.00  0.00    +0.000 HD
ATOM     16  H   UNL     1      -0.973  10.068  17.435  0.00  0.00    +0.000 HD
ENDBRANCH  11  14
ENDBRANCH   8  11
ENDBRANCH   3   5
BRANCH   1  21
ATOM     17  C   UNL     1       2.994   2.872  21.074  0.00  0.00    +0.000 A 
ATOM     18  O   UNL     1       4.009   2.004  20.831  0.00  0.00    +0.000 OA
ATOM     19  N   UNL     1       4.836   2.508  19.848  0.00  0.00    +0.000 NA
ATOM     20  C   UNL     1       4.333   3.708  19.513  0.00  0.00    +0.000 A 
ATOM     21  C   UNL     1       3.125   3.960  20.245  0.00  0.00    +0.000 A 
BRANCH  20  22
ATOM     22  C   UNL     1       5.018   4.577  18.547  0.00  0.00    +0.000 A 
ATOM     23  C   UNL     1       4.550   4.704  17.232  0.00  0.00    +0.000 A 
ATOM     24  C   UNL     1       5.207   5.537  16.320  0.00  0.00    +0.000 A 
ATOM     25  C   UNL     1       6.337   6.255  16.710  0.00  0.00    +0.000 A 
ATOM     26  C   UNL     1       6.821   6.131  18.008  0.00  0.00    +0.000 A 
ATOM     27  C   UNL     1       6.173   5.288  18.914  0.00  0.00    +0.000 A 
ENDBRANCH  20  22
BRANCH  17  28
ATOM     28  N   UNL     1       2.084   2.497  21.995  0.00  0.00    +0.000 N 
ATOM     29  H   UNL     1       1.452   1.749  21.711  0.00  0.00    +0.000 HD
ATOM     30  H   UNL     1       1.603   3.210  22.535  0.00  0.00    +0.000 HD
ENDBRANCH  17  28
ENDBRANCH   1  21
TORSDOF 6
ENDMDL
MODEL 3
REMARK VINA RESULT:      -8.2      0.895      1.030
REMARK  Name = 
REMARK  6 active torsions:
REMARK  status: ('A' for Active; 'I' for Inactive)
REMARK    1  A    between atoms: N_1  and  C_2
REMARK    2  A    between atoms: C_5  and  C_6
REMARK    3  A    between atoms: C_12  and  C_13
REMARK    4  A    between atoms: N_15  and  C_16
REMARK    5  A    between atoms: C_19  and  S_20
REMARK    6  A    between atoms: S_20  and  N_21
REMARK                            x       y       z     vdW  Elec       q    Type
REMARK                         _______ _______ _______ _____ _____    ______ ____
ROOT
ATOM      1  C   UNL     1       2.531   5.395  19.199  0.00  0.00    +0.000 C 
ATOM      2  O   UNL     1       1.751   5.238  18.266  0.00  0.00    +0.000 OA
ATOM      3  N   UNL     1       2.698   6.575  19.909  0.00  0.00    +0.000 N 
ATOM      4  H   UNL     1       3.447   6.604  20.590  0.00  0.00    +0.000 HD
ENDROOT
BRANCH   3   5
ATOM      5  C   UNL     1       1.996   7.782  19.655  0.00  0.00    +0.000 A 
ATOM      6  C   UNL     1       2.043   8.440  18.419  0.00  0.00    +0.000 A 
ATOM      7  C   UNL     1       1.356   9.630  18.200  0.00  0.00    +0.000 A 
ATOM      8  C   UNL     1       0.584  10.170  19.223  0.00  0.00    +0.000 A 
ATOM      9  C   UNL     1       0.525   9.546  20.472  0.00  0.00    +0.000 A 
ATOM     10  C   UNL     1       1.226   8.346  20.682  0.00  0.00    +0.000 A 
BRANCH   8  11
ATOM     11  S   UNL     1      -0.315  11.656  18.902  0.00  0.00    +0.000 S 
ATOM     12  O   UNL     1      -1.304  11.844  19.940  0.00  0.00    +0.000 OA
ATOM     13  O   UNL     1       0.599  12.697  18.502  0.00  0.00    +0.000 OA
BRANCH  11  14
ATOM     14  N   UNL     1      -1.168  11.225  17.522  0.00  0.00    +0.000 NA
ATOM     15  H   UNL     1      -2.148  11.062  17.753  0.00  0.00    +0.000 HD
ATOM     16  H   UNL     1      -1.020  11.918  16.787  0.00  0.00    +0.000 HD
ENDBRANCH  11  14
ENDBRANCH   8  11
ENDBRANCH   3   5
BRANCH   1  21
ATOM     17  C   UNL     1       3.065   3.139  20.227  0.00  0.00    +0.000 A 
ATOM     18  O   UNL     1       4.155   2.329  20.266  0.00  0.00    +0.000 OA
ATOM     19  N   UNL     1       5.225   2.948  19.654  0.00  0.00    +0.000 NA
ATOM     20  C   UNL     1       4.787   4.157  19.265  0.00  0.00    +0.000 A 
ATOM     21  C   UNL     1       3.393   4.302  19.574  0.00  0.00    +0.000 A 
BRANCH  20  22
ATOM     22  C   UNL     1       5.696   5.134  18.650  0.00  0.00    +0.000 A 
ATOM     23  C   UNL     1       5.379   5.746  17.430  0.00  0.00    +0.000 A 
ATOM     24  C   UNL     1       6.248   6.678  16.853  0.00  0.00    +0.000 A 
ATOM     25  C   UNL     1       7.444   7.011  17.488  0.00  0.00    +0.000 A 
ATOM     26  C   UNL     1       7.779   6.404  18.693  0.00  0.00    +0.000 A 
ATOM     27  C   UNL     1       6.917   5.463  19.262  0.00  0.00    +0.000 A 
ENDBRANCH  20  22
BRANCH  17  28
ATOM     28  N   UNL     1       1.929   2.652  20.764  0.00  0.00    +0.000 N 
ATOM     29  H   UNL     1       1.160   3.315  20.847  0.00  0.00    +0.000 HD
ATOM     30  H   UNL     1       1.986   2.041  21.574  0.00  0.00    +0.000 HD
ENDBRANCH  17  28
ENDBRANCH   1  21
TORSDOF 6
ENDMDL
MODEL 4
REMARK VINA RESULT:      -8.2      0.718      1.328
REMARK  Name = 
REMARK  6 active torsions:
REMARK  status: ('A' for Active; 'I' for Inactive)
REMARK    1  A    between atoms: N_1  and  C_2
REMARK    2  A    between atoms: C_5  and  C_6
REMARK    3  A    between atoms: C_12  and  C_13
REMARK    4  A    between atoms: N_15  and  C_16
REMARK    5  A    between atoms: C_19  and  S_20
REMARK    6  A    between atoms: S_20  and  N_21
REMARK                            x       y       z     vdW  Elec       q    Type
REMARK                         _______ _______ _______ _____ _____    ______ ____
ROOT
ATOM      1  C   UNL     1       2.427   5.017  19.580  0.00  0.00    +0.000 C 
ATOM      2  O   UNL     1       1.483   4.805  18.827  0.00  0.00    +0.000 OA
ATOM      3  N   UNL     1       2.788   6.261  20.076  0.00  0.00    +0.000 N 
ATOM      4  H   UNL     1       3.647   6.318  20.607  0.00  0.00    +0.000 HD
ENDROOT
BRANCH   3   5
ATOM      5  C   UNL     1       2.121   7.479  19.778  0.00  0.00    +0.000 A 
ATOM      6  C   UNL     1       2.203   8.099  18.524  0.00  0.00    +0.000 A 
ATOM      7  C   UNL     1       1.550   9.300  18.262  0.00  0.00    +0.000 A 
ATOM      8  C   UNL     1       0.780   9.890  19.258  0.00  0.00    +0.000 A 
ATOM      9  C   UNL     1       0.688   9.304  20.523  0.00  0.00    +0.000 A 
ATOM     10  C   UNL     1       1.352   8.092  20.777  0.00  0.00    +0.000 A 
BRANCH   8  11
ATOM     11  S   UNL     1      -0.074  11.390  18.881  0.00  0.00    +0.000 S 
ATOM     12  O   UNL     1       0.893  12.425  18.593  0.00  0.00    +0.000 OA
ATOM     13  O   UNL     1      -1.190  11.106  18.014  0.00  0.00    +0.000 OA
BRANCH  11  14
ATOM     14  N   UNL     1      -0.729  11.772  20.379  0.00  0.00    +0.000 NA
ATOM     15  H   UNL     1      -0.393  12.685  20.685  0.00  0.00    +0.000 HD
ATOM     16  H   UNL     1      -1.746  11.687  20.350  0.00  0.00    +0.000 HD
ENDBRANCH  11  14
ENDBRANCH   8  11
ENDBRANCH   3   5
BRANCH   1  21
ATOM     17  C   UNL     1       3.102   3.003  20.964  0.00  0.00    +0.000 A 
ATOM     18  O   UNL     1       4.075   2.059  20.884  0.00  0.00    +0.000 OA
ATOM     19  N   UNL     1       4.919   2.339  19.829  0.00  0.00    +0.000 NA
ATOM     20  C   UNL     1       4.470   3.480  19.282  0.00  0.00    +0.000 A 
ATOM     21  C   UNL     1       3.279   3.916  19.953  0.00  0.00    +0.000 A 
BRANCH  20  22
ATOM     22  C   UNL     1       5.190   4.130  18.178  0.00  0.00    +0.000 A 
ATOM     23  C   UNL     1       6.361   4.862  18.413  0.00  0.00    +0.000 A 
ATOM     24  C   UNL     1       7.043   5.475  17.356  0.00  0.00    +0.000 A 
ATOM     25  C   UNL     1       6.565   5.361  16.051  0.00  0.00    +0.000 A 
ATOM     26  C   UNL     1       5.397   4.647  15.803  0.00  0.00    +0.000 A 
ATOM     27  C   UNL     1       4.709   4.048  16.861  0.00  0.00    +0.000 A 
ENDBRANCH  20  22
BRANCH  17  28
ATOM     28  N   UNL     1       2.181   2.842  21.935  0.00  0.00    +0.000 N 
ATOM     29  H   UNL     1       2.437   3.210  22.850  0.00  0.00    +0.000 HD
ATOM     30  H   UNL     1       1.691   1.955  22.011  0.00  0.00    +0.000 HD
ENDBRANCH  17  28
ENDBRANCH   1  21
TORSDOF 6
ENDMDL
MODEL 5
REMARK VINA RESULT:      -8.1      0.723      1.339
REMARK  Name = 
REMARK  6 active torsions:
REMARK  status: ('A' for Active; 'I' for Inactive)
REMARK    1  A    between atoms: N_1  and  C_2
REMARK    2  A    between atoms: C_5  and  C_6
REMARK    3  A    between atoms: C_12  and  C_13
REMARK    4  A    between atoms: N_15  and  C_16
REMARK    5  A    between atoms: C_19  and  S_20
REMARK    6  A    between atoms: S_20  and  N_21
REMARK                            x       y       z     vdW  Elec       q    Type
REMARK                         _______ _______ _______ _____ _____    ______ ____
ROOT
ATOM      1  C   UNL     1       2.431   5.035  19.590  0.00  0.00    +0.000 C 
ATOM      2  O   UNL     1       1.498   4.839  18.819  0.00  0.00    +0.000 OA
ATOM      3  N   UNL     1       2.782   6.269  20.120  0.00  0.00    +0.000 N 
ATOM      4  H   UNL     1       3.634   6.314  20.664  0.00  0.00    +0.000 HD
ENDROOT
BRANCH   3   5
ATOM      5  C   UNL     1       2.116   7.491  19.842  0.00  0.00    +0.000 A 
ATOM      6  C   UNL     1       1.329   8.157  20.791  0.00  0.00    +0.000 A 
ATOM      7  C   UNL     1       0.675   9.348  20.488  0.00  0.00    +0.000 A 
ATOM      8  C   UNL     1       0.822   9.904  19.223  0.00  0.00    +0.000 A 
ATOM      9  C   UNL     1       1.589   9.259  18.249  0.00  0.00    +0.000 A 
ATOM     10  C   UNL     1       2.243   8.056  18.566  0.00  0.00    +0.000 A 
BRANCH   8  11
ATOM     11  S   UNL     1       0.018  11.440  18.882  0.00  0.00    +0.000 S 
ATOM     12  O   UNL     1       1.016  12.431  18.546  0.00  0.00    +0.000 OA
ATOM     13  O   UNL     1      -1.149  11.205  18.069  0.00  0.00    +0.000 OA
BRANCH  11  14
ATOM     14  N   UNL     1      -0.548  11.853  20.408  0.00  0.00    +0.000 NA
ATOM     15  H   UNL     1      -0.952  11.035  20.864  0.00  0.00    +0.000 HD
ATOM     16  H   UNL     1       0.189  12.311  20.944  0.00  0.00    +0.000 HD
ENDBRANCH  11  14
ENDBRANCH   8  11
ENDBRANCH   3   5
BRANCH   1  21
ATOM     17  C   UNL     1       3.110   3.010  20.955  0.00  0.00    +0.000 A 
ATOM     18  O   UNL     1       4.078   2.061  20.861  0.00  0.00    +0.000 OA
ATOM     19  N   UNL     1       4.913   2.343  19.799  0.00  0.00    +0.000 NA
ATOM     20  C   UNL     1       4.464   3.491  19.263  0.00  0.00    +0.000 A 
ATOM     21  C   UNL     1       3.281   3.928  19.948  0.00  0.00    +0.000 A 
BRANCH  20  22
ATOM     22  C   UNL     1       5.176   4.143  18.156  0.00  0.00    +0.000 A 
ATOM     23  C   UNL     1       4.708   4.042  16.839  0.00  0.00    +0.000 A 
ATOM     24  C   UNL     1       5.390   4.669  15.790  0.00  0.00    +0.000 A 
ATOM     25  C   UNL     1       6.546   5.406  16.044  0.00  0.00    +0.000 A 
ATOM     26  C   UNL     1       7.030   5.506  17.344  0.00  0.00    +0.000 A 
ATOM     27  C   UNL     1       6.357   4.867  18.389  0.00  0.00    +0.000 A 
ENDBRANCH  20  22
BRANCH  17  28
ATOM     28  N   UNL     1       2.198   2.847  21.934  0.00  0.00    +0.000 N 
ATOM     29  H   UNL     1       2.212   3.551  22.671  0.00  0.00    +0.000 HD
ATOM     30  H   UNL     1       2.032   1.917  22.307  0.00  0.00    +0.000 HD
ENDBRANCH  17  28
ENDBRANCH   1  21
TORSDOF 6
ENDMDL
MODEL 6
REMARK VINA RESULT:      -8.1      1.180      1.867
REMARK  Name = 
REMARK  6 active torsions:
REMARK  status: ('A' for Active; 'I' for Inactive)
REMARK    1  A    between atoms: N_1  and  C_2
REMARK    2  A    between atoms: C_5  and  C_6
REMARK    3  A    between atoms: C_12  and  C_13
REMARK    4  A    between atoms: N_15  and  C_16
REMARK    5  A    between atoms: C_19  and  S_20
REMARK    6  A    between atoms: S_20  and  N_21
REMARK                            x       y       z     vdW  Elec       q    Type
REMARK                         _______ _______ _______ _____ _____    ______ ____
ROOT
ATOM      1  C   UNL     1       2.542   5.451  19.220  0.00  0.00    +0.000 C 
ATOM      2  O   UNL     1       1.798   5.324  18.253  0.00  0.00    +0.000 OA
ATOM      3  N   UNL     1       2.670   6.603  19.982  0.00  0.00    +0.000 N 
ATOM      4  H   UNL     1       3.393   6.613  20.691  0.00  0.00    +0.000 HD
ENDROOT
BRANCH   3   5
ATOM      5  C   UNL     1       1.964   7.813  19.749  0.00  0.00    +0.000 A 
ATOM      6  C   UNL     1       1.164   8.421  20.725  0.00  0.00    +0.000 A 
ATOM      7  C   UNL     1       0.471   9.601  20.467  0.00  0.00    +0.000 A 
ATOM      8  C   UNL     1       0.591  10.204  19.221  0.00  0.00    +0.000 A 
ATOM      9  C   UNL     1       1.372   9.617  18.222  0.00  0.00    +0.000 A 
ATOM     10  C   UNL     1       2.065   8.425  18.492  0.00  0.00    +0.000 A 
BRANCH   8  11
ATOM     11  S   UNL     1      -0.262  11.725  18.938  0.00  0.00    +0.000 S 
ATOM     12  O   UNL     1      -1.338  11.495  18.000  0.00  0.00    +0.000 OA
ATOM     13  O   UNL     1      -0.457  12.411  20.191  0.00  0.00    +0.000 OA
BRANCH  11  14
ATOM     14  N   UNL     1       0.902  12.597  18.101  0.00  0.00    +0.000 NA
ATOM     15  H   UNL     1       0.957  12.272  17.137  0.00  0.00    +0.000 HD
ATOM     16  H   UNL     1       0.728  13.598  18.197  0.00  0.00    +0.000 HD
ENDBRANCH  11  14
ENDBRANCH   8  11
ENDBRANCH   3   5
BRANCH   1  21
ATOM     17  C   UNL     1       3.068   3.179  20.215  0.00  0.00    +0.000 A 
ATOM     18  O   UNL     1       4.158   2.369  20.249  0.00  0.00    +0.000 OA
ATOM     19  N   UNL     1       5.233   2.998  19.655  0.00  0.00    +0.000 NA
ATOM     20  C   UNL     1       4.798   4.213  19.283  0.00  0.00    +0.000 A 
ATOM     21  C   UNL     1       3.401   4.353  19.584  0.00  0.00    +0.000 A 
BRANCH  20  22
ATOM     22  C   UNL     1       5.712   5.200  18.692  0.00  0.00    +0.000 A 
ATOM     23  C   UNL     1       6.955   5.472  19.278  0.00  0.00    +0.000 A 
ATOM     24  C   UNL     1       7.821   6.411  18.708  0.00  0.00    +0.000 A 
ATOM     25  C   UNL     1       7.457   7.088  17.544  0.00  0.00    +0.000 A 
ATOM     26  C   UNL     1       6.222   6.837  16.957  0.00  0.00    +0.000 A 
ATOM     27  C   UNL     1       5.351   5.910  17.535  0.00  0.00    +0.000 A 
ENDBRANCH  20  22
BRANCH  17  28
ATOM     28  N   UNL     1       1.929   2.682  20.735  0.00  0.00    +0.000 N 
ATOM     29  H   UNL     1       1.670   1.748  20.419  0.00  0.00    +0.000 HD
ATOM     30  H   UNL     1       1.117   3.287  20.818  0.00  0.00    +0.000 HD
ENDBRANCH  17  28
ENDBRANCH   1  21
TORSDOF 6
ENDMDL
MODEL 7
REMARK VINA RESULT:      -8.1      0.970      1.471
REMARK  Name = 
REMARK  6 active torsions:
REMARK  status: ('A' for Active; 'I' for Inactive)
REMARK    1  A    between atoms: N_1  and  C_2
REMARK    2  A    between atoms: C_5  and  C_6
REMARK    3  A    between atoms: C_12  and  C_13
REMARK    4  A    between atoms: N_15  and  C_16
REMARK    5  A    between atoms: C_19  and  S_20
REMARK    6  A    between atoms: S_20  and  N_21
REMARK                            x       y       z     vdW  Elec       q    Type
REMARK                         _______ _______ _______ _____ _____    ______ ____
ROOT
ATOM      1  C   UNL     1       2.466   5.244  19.400  0.00  0.00    +0.000 C 
ATOM      2  O   UNL     1       1.598   5.067  18.552  0.00  0.00    +0.000 OA
ATOM      3  N   UNL     1       2.728   6.449  20.035  0.00  0.00    +0.000 N 
ATOM      4  H   UNL     1       3.537   6.488  20.641  0.00  0.00    +0.000 HD
ENDROOT
BRANCH   3   5
ATOM      5  C   UNL     1       2.033   7.663  19.790  0.00  0.00    +0.000 A 
ATOM      6  C   UNL     1       1.246   8.294  20.762  0.00  0.00    +0.000 A 
ATOM      7  C   UNL     1       0.565   9.477  20.492  0.00  0.00    +0.000 A 
ATOM      8  C   UNL     1       0.683  10.062  19.237  0.00  0.00    +0.000 A 
ATOM      9  C   UNL     1       1.451   9.452  18.241  0.00  0.00    +0.000 A 
ATOM     10  C   UNL     1       2.133   8.257  18.524  0.00  0.00    +0.000 A 
BRANCH   8  11
ATOM     11  S   UNL     1      -0.156  11.588  18.938  0.00  0.00    +0.000 S 
ATOM     12  O   UNL     1      -1.255  11.352  18.029  0.00  0.00    +0.000 OA
ATOM     13  O   UNL     1      -0.313  12.304  20.179  0.00  0.00    +0.000 OA
BRANCH  11  14
ATOM     14  N   UNL     1       1.002  12.424  18.056  0.00  0.00    +0.000 NA
ATOM     15  H   UNL     1       1.934  12.214  18.414  0.00  0.00    +0.000 HD
ATOM     16  H   UNL     1       0.884  12.242  17.059  0.00  0.00    +0.000 HD
ENDBRANCH  11  14
ENDBRANCH   8  11
ENDBRANCH   3   5
BRANCH   1  21
ATOM     17  C   UNL     1       3.031   3.007  20.452  0.00  0.00    +0.000 A 
ATOM     18  O   UNL     1       4.106   2.177  20.438  0.00  0.00    +0.000 OA
ATOM     19  N   UNL     1       5.141   2.758  19.735  0.00  0.00    +0.000 NA
ATOM     20  C   UNL     1       4.699   3.965  19.344  0.00  0.00    +0.000 A 
ATOM     21  C   UNL     1       3.333   4.145  19.745  0.00  0.00    +0.000 A 
BRANCH  20  22
ATOM     22  C   UNL     1       5.580   4.907  18.640  0.00  0.00    +0.000 A 
ATOM     23  C   UNL     1       5.276   5.347  17.345  0.00  0.00    +0.000 A 
ATOM     24  C   UNL     1       6.119   6.247  16.682  0.00  0.00    +0.000 A 
ATOM     25  C   UNL     1       7.273   6.719  17.306  0.00  0.00    +0.000 A 
ATOM     26  C   UNL     1       7.594   6.283  18.587  0.00  0.00    +0.000 A 
ATOM     27  C   UNL     1       6.760   5.373  19.243  0.00  0.00    +0.000 A 
ENDBRANCH  20  22
BRANCH  17  28
ATOM     28  N   UNL     1       1.927   2.556  21.080  0.00  0.00    +0.000 N 
ATOM     29  H   UNL     1       1.431   3.243  21.648  0.00  0.00    +0.000 HD
ATOM     30  H   UNL     1       1.949   1.645  21.529  0.00  0.00    +0.000 HD
ENDBRANCH  17  28
ENDBRANCH   1  21
TORSDOF 6
ENDMDL
MODEL 8
REMARK VINA RESULT:      -8.0      2.545      4.024
REMARK  Name = 
REMARK  6 active torsions:
REMARK  status: ('A' for Active; 'I' for Inactive)
REMARK    1  A    between atoms: N_1  and  C_2
REMARK    2  A    between atoms: C_5  and  C_6
REMARK    3  A    between atoms: C_12  and  C_13
REMARK    4  A    between atoms: N_15  and  C_16
REMARK    5  A    between atoms: C_19  and  S_20
REMARK    6  A    between atoms: S_20  and  N_21
REMARK                            x       y       z     vdW  Elec       q    Type
REMARK                         _______ _______ _______ _____ _____    ______ ____
ROOT
ATOM      1  C   UNL     1       3.870   6.633  17.715  0.00  0.00    +0.000 C 
ATOM      2  O   UNL     1       4.698   7.532  17.817  0.00  0.00    +0.000 OA
ATOM      3  N   UNL     1       2.571   6.686  18.198  0.00  0.00    +0.000 N 
ATOM      4  H   UNL     1       2.019   5.839  18.139  0.00  0.00    +0.000 HD
ENDROOT
BRANCH   3   5
ATOM      5  C   UNL     1       2.007   7.788  18.893  0.00  0.00    +0.000 A 
ATOM      6  C   UNL     1       1.657   8.986  18.256  0.00  0.00    +0.000 A 
ATOM      7  C   UNL     1       1.118  10.056  18.964  0.00  0.00    +0.000 A 
ATOM      8  C   UNL     1       0.900   9.930  20.330  0.00  0.00    +0.000 A 
ATOM      9  C   UNL     1       1.250   8.754  20.999  0.00  0.00    +0.000 A 
ATOM     10  C   UNL     1       1.795   7.680  20.275  0.00  0.00    +0.000 A 
BRANCH   8  11
ATOM     11  S   UNL     1       0.172  11.289  21.194  0.00  0.00    +0.000 S 
ATOM     12  O   UNL     1       1.150  12.347  21.321  0.00  0.00    +0.000 OA
ATOM     13  O   UNL     1      -1.162  11.519  20.697  0.00  0.00    +0.000 OA
BRANCH  11  14
ATOM     14  N   UNL     1      -0.006  10.636  22.730  0.00  0.00    +0.000 NA
ATOM     15  H   UNL     1       0.859  10.181  23.019  0.00  0.00    +0.000 HD
ATOM     16  H   UNL     1      -0.340  11.350  23.379  0.00  0.00    +0.000 HD
ENDBRANCH  11  14
ENDBRANCH   8  11
ENDBRANCH   3   5
BRANCH   1  21
ATOM     17  C   UNL     1       5.105   5.200  16.026  0.00  0.00    +0.000 A 
ATOM     18  O   UNL     1       5.304   3.868  15.852  0.00  0.00    +0.000 OA
ATOM     19  N   UNL     1       4.590   3.157  16.795  0.00  0.00    +0.000 NA
ATOM     20  C   UNL     1       3.927   4.067  17.529  0.00  0.00    +0.000 A 
ATOM     21  C   UNL     1       4.265   5.393  17.096  0.00  0.00    +0.000 A 
BRANCH  20  22
ATOM     22  C   UNL     1       2.986   3.657  18.579  0.00  0.00    +0.000 A 
ATOM     23  C   UNL     1       1.682   3.254  18.261  0.00  0.00    +0.000 A 
ATOM     24  C   UNL     1       0.792   2.861  19.267  0.00  0.00    +0.000 A 
ATOM     25  C   UNL     1       1.194   2.865  20.602  0.00  0.00    +0.000 A 
ATOM     26  C   UNL     1       2.481   3.274  20.936  0.00  0.00    +0.000 A 
ATOM     27  C   UNL     1       3.364   3.680  19.932  0.00  0.00    +0.000 A 
ENDBRANCH  20  22
BRANCH  17  28
ATOM     28  N   UNL     1       5.768   6.025  15.192  0.00  0.00    +0.000 N 
ATOM     29  H   UNL     1       6.663   6.373  15.534  0.00  0.00    +0.000 HD
ATOM     30  H   UNL     1       5.253   6.744  14.692  0.00  0.00    +0.000 HD
ENDBRANCH  17  28
ENDBRANCH   1  21
TORSDOF 6
ENDMDL
MODEL 9
REMARK VINA RESULT:      -8.0      1.213      1.715
REMARK  Name = 
REMARK  6 active torsions:
REMARK  status: ('A' for Active; 'I' for Inactive)
REMARK    1  A    between atoms: N_1  and  C_2
REMARK    2  A    between atoms: C_5  and  C_6
REMARK    3  A    between atoms: C_12  and  C_13
REMARK    4  A    between atoms: N_15  and  C_16
REMARK    5  A    between atoms: C_19  and  S_20
REMARK    6  A    between atoms: S_20  and  N_21
REMARK                            x       y       z     vdW  Elec       q    Type
REMARK                         _______ _______ _______ _____ _____    ______ ____
ROOT
ATOM      1  C   UNL     1       2.541   5.413  19.230  0.00  0.00    +0.000 C 
ATOM      2  O   UNL     1       1.798   5.301  18.262  0.00  0.00    +0.000 OA
ATOM      3  N   UNL     1       2.662   6.550  20.016  0.00  0.00    +0.000 N 
ATOM      4  H   UNL     1       3.385   6.550  20.724  0.00  0.00    +0.000 HD
ENDROOT
BRANCH   3   5
ATOM      5  C   UNL     1       1.946   7.759  19.810  0.00  0.00    +0.000 A 
ATOM      6  C   UNL     1       2.003   8.477  18.608  0.00  0.00    +0.000 A 
ATOM      7  C   UNL     1       1.303   9.667  18.437  0.00  0.00    +0.000 A 
ATOM      8  C   UNL     1       0.509  10.146  19.472  0.00  0.00    +0.000 A 
ATOM      9  C   UNL     1       0.439   9.461  20.688  0.00  0.00    +0.000 A 
ATOM     10  C   UNL     1       1.153   8.262  20.851  0.00  0.00    +0.000 A 
BRANCH   8  11
ATOM     11  S   UNL     1      -0.406  11.635  19.210  0.00  0.00    +0.000 S 
ATOM     12  O   UNL     1       0.419  12.574  18.483  0.00  0.00    +0.000 OA
ATOM     13  O   UNL     1      -1.753  11.311  18.809  0.00  0.00    +0.000 OA
BRANCH  11  14
ATOM     14  N   UNL     1      -0.512  12.228  20.777  0.00  0.00    +0.000 NA
ATOM     15  H   UNL     1      -0.578  11.456  21.439  0.00  0.00    +0.000 HD
ATOM     16  H   UNL     1       0.256  12.875  20.961  0.00  0.00    +0.000 HD
ENDBRANCH  11  14
ENDBRANCH   8  11
ENDBRANCH   3   5
BRANCH   1  21
ATOM     17  C   UNL     1       3.088   3.129  20.185  0.00  0.00    +0.000 A 
ATOM     18  O   UNL     1       4.182   2.324  20.198  0.00  0.00    +0.000 OA
ATOM     19  N   UNL     1       5.249   2.968  19.606  0.00  0.00    +0.000 NA
ATOM     20  C   UNL     1       4.804   4.187  19.256  0.00  0.00    +0.000 A 
ATOM     21  C   UNL     1       3.410   4.314  19.570  0.00  0.00    +0.000 A 
BRANCH  20  22
ATOM     22  C   UNL     1       5.708   5.188  18.673  0.00  0.00    +0.000 A 
ATOM     23  C   UNL     1       6.951   5.465  19.259  0.00  0.00    +0.000 A 
ATOM     24  C   UNL     1       7.807   6.417  18.696  0.00  0.00    +0.000 A 
ATOM     25  C   UNL     1       7.434   7.103  17.541  0.00  0.00    +0.000 A 
ATOM     26  C   UNL     1       6.199   6.849  16.954  0.00  0.00    +0.000 A 
ATOM     27  C   UNL     1       5.338   5.908  17.525  0.00  0.00    +0.000 A 
ENDBRANCH  20  22
BRANCH  17  28
ATOM     28  N   UNL     1       1.955   2.617  20.706  0.00  0.00    +0.000 N 
ATOM     29  H   UNL     1       1.910   2.592  21.724  0.00  0.00    +0.000 HD
ATOM     30  H   UNL     1       1.552   1.782  20.292  0.00  0.00    +0.000 HD
ENDBRANCH  17  28
ENDBRANCH   1  21
TORSDOF 6
ENDMDL
