MODEL 1
REMARK VINA RESULT:      -8.9      0.000      0.000
REMARK  Name = 
REMARK  6 active torsions:
REMARK  status: ('A' for Active; 'I' for Inactive)
REMARK    1  A    between atoms: N_1  and  C_2
REMARK    2  A    between atoms: C_2  and  N_4
REMARK    3  A    between atoms: C_15  and  C_16
REMARK    4  A    between atoms: C_16  and  C_17
REMARK    5  A    between atoms: C_20  and  O_21
REMARK    6  A    between atoms: O_21  and  C_22
REMARK                            x       y       z     vdW  Elec       q    Type
REMARK                         _______ _______ _______ _____ _____    ______ ____
ROOT
ATOM      1  N   UNL     1      -0.580  12.221  21.272  0.00  0.00    +0.000 N 
ATOM      2  C   UNL     1      -1.260  12.000  20.087  0.00  0.00    +0.000 A 
ATOM      3  N   UNL     1      -2.596  11.970  20.018  0.00  0.00    +0.000 NA
ATOM      4  N   UNL     1      -2.866  11.592  18.754  0.00  0.00    +0.000 N 
ATOM      5  C   UNL     1      -4.166  11.351  18.286  0.00  0.00    +0.000 A 
ATOM      6  O   UNL     1      -5.156  11.491  18.989  0.00  0.00    +0.000 OA
ATOM      7  N   UNL     1      -4.156  10.920  16.970  0.00  0.00    +0.000 N 
ATOM      8  C   UNL     1      -3.058  10.717  16.171  0.00  0.00    +0.000 A 
ATOM      9  S   UNL     1      -3.214  10.172  14.609  0.00  0.00    +0.000 S 
ATOM     10  N   UNL     1      -1.826  10.974  16.709  0.00  0.00    +0.000 N 
ATOM     11  C   UNL     1      -1.729  11.418  18.010  0.00  0.00    +0.000 A 
ATOM     12  C   UNL     1      -0.651  11.709  18.820  0.00  0.00    +0.000 A 
ATOM     13  H   UNL     1       0.429  12.224  21.240  0.00  0.00    +0.000 HD
ATOM     14  H   UNL     1      -5.063  10.713  16.574  0.00  0.00    +0.000 HD
ATOM     15  H   UNL     1      -1.002  10.810  16.142  0.00  0.00    +0.000 HD
ENDROOT
BRANCH   1  16
ATOM     16  C   UNL     1      -1.110  12.281  22.525  0.00  0.00    +0.000 C 
ATOM     17  S   UNL     1      -1.256  13.741  23.309  0.00  0.00    +0.000 S 
BRANCH  16  18
ATOM     18  N   UNL     1      -1.487  11.141  23.131  0.00  0.00    +0.000 N 
ATOM     19  H   UNL     1      -1.677  11.098  24.122  0.00  0.00    +0.000 HD
ATOM     20  H   UNL     1      -1.532  10.281  22.583  0.00  0.00    +0.000 HD
ENDBRANCH  16  18
ENDBRANCH   1  16
BRANCH  12  21
ATOM     21  C   UNL     1       0.798  11.578  18.492  0.00  0.00    +0.000 C 
BRANCH  21  22
ATOM     22  C   UNL     1       1.230  10.170  18.824  0.00  0.00    +0.000 A 
ATOM     23  C   UNL     1       1.955   9.405  17.898  0.00  0.00    +0.000 A 
ATOM     24  C   UNL     1       2.461   8.150  18.253  0.00  0.00    +0.000 A 
ATOM     25  C   UNL     1       2.246   7.637  19.534  0.00  0.00    +0.000 A 
ATOM     26  C   UNL     1       1.448   8.348  20.429  0.00  0.00    +0.000 A 
ATOM     27  C   UNL     1       0.974   9.618  20.089  0.00  0.00    +0.000 A 
BRANCH  25  28
ATOM     28  O   UNL     1       2.810   6.411  19.805  0.00  0.00    +0.000 OA
BRANCH  28  29
ATOM     29  C   UNL     1       2.144   5.255  19.454  0.00  0.00    +0.000 A 
ATOM     30  C   UNL     1       1.463   4.607  20.487  0.00  0.00    +0.000 A 
ATOM     31  C   UNL     1       0.766   3.423  20.237  0.00  0.00    +0.000 A 
ATOM     32  C   UNL     1       0.747   2.883  18.951  0.00  0.00    +0.000 A 
ATOM     33  C   UNL     1       1.393   3.547  17.909  0.00  0.00    +0.000 A 
ATOM     34  C   UNL     1       2.066   4.746  18.154  0.00  0.00    +0.000 A 
ENDBRANCH  28  29
ENDBRANCH  25  28
ENDBRANCH  21  22
ENDBRANCH  12  21
TORSDOF 6
ENDMDL
MODEL 2
REMARK VINA RESULT:      -8.5      6.138      9.123
REMARK  Name = 
REMARK  6 active torsions:
REMARK  status: ('A' for Active; 'I' for Inactive)
REMARK    1  A    between atoms: N_1  and  C_2
REMARK    2  A    between atoms: C_2  and  N_4
REMARK    3  A    between atoms: C_15  and  C_16
REMARK    4  A    between atoms: C_16  and  C_17
REMARK    5  A    between atoms: C_20  and  O_21
REMARK    6  A    between atoms: O_21  and  C_22
REMARK                            x       y       z     vdW  Elec       q    Type
REMARK                         _______ _______ _______ _____ _____    ______ ____
ROOT
ATOM      1  N   UNL     1       3.816   3.509  19.110  0.00  0.00    +0.000 N 
ATOM      2  C   UNL     1       4.825   4.413  18.825  0.00  0.00    +0.000 A 
ATOM      3  N   UNL     1       6.045   4.324  19.367  0.00  0.00    +0.000 NA
ATOM      4  N   UNL     1       6.680   5.443  18.967  0.00  0.00    +0.000 N 
ATOM      5  C   UNL     1       7.972   5.786  19.393  0.00  0.00    +0.000 A 
ATOM      6  O   UNL     1       8.628   5.079  20.145  0.00  0.00    +0.000 OA
ATOM      7  N   UNL     1       8.363   7.011  18.880  0.00  0.00    +0.000 N 
ATOM      8  C   UNL     1       7.632   7.842  18.067  0.00  0.00    +0.000 A 
ATOM      9  S   UNL     1       8.240   9.300  17.552  0.00  0.00    +0.000 S 
ATOM     10  N   UNL     1       6.380   7.431  17.701  0.00  0.00    +0.000 N 
ATOM     11  C   UNL     1       5.900   6.220  18.152  0.00  0.00    +0.000 A 
ATOM     12  C   UNL     1       4.691   5.575  17.994  0.00  0.00    +0.000 A 
ATOM     13  H   UNL     1       2.923   3.648  18.662  0.00  0.00    +0.000 HD
ATOM     14  H   UNL     1       9.281   7.327  19.161  0.00  0.00    +0.000 HD
ATOM     15  H   UNL     1       5.816   8.040  17.119  0.00  0.00    +0.000 HD
ENDROOT
BRANCH   1  16
ATOM     16  C   UNL     1       3.833   2.528  20.054  0.00  0.00    +0.000 C 
ATOM     17  S   UNL     1       2.668   2.480  21.240  0.00  0.00    +0.000 S 
BRANCH  16  18
ATOM     18  N   UNL     1       4.821   1.615  20.030  0.00  0.00    +0.000 N 
ATOM     19  H   UNL     1       5.667   1.726  20.571  0.00  0.00    +0.000 HD
ATOM     20  H   UNL     1       4.737   0.812  19.406  0.00  0.00    +0.000 HD
ENDBRANCH  16  18
ENDBRANCH   1  16
BRANCH  12  21
ATOM     21  C   UNL     1       3.483   6.069  17.271  0.00  0.00    +0.000 C 
BRANCH  21  22
ATOM     22  C   UNL     1       2.838   7.143  18.113  0.00  0.00    +0.000 A 
ATOM     23  C   UNL     1       2.583   8.416  17.580  0.00  0.00    +0.000 A 
ATOM     24  C   UNL     1       1.873   9.368  18.319  0.00  0.00    +0.000 A 
ATOM     25  C   UNL     1       1.413   9.067  19.603  0.00  0.00    +0.000 A 
ATOM     26  C   UNL     1       1.742   7.840  20.177  0.00  0.00    +0.000 A 
ATOM     27  C   UNL     1       2.417   6.875  19.425  0.00  0.00    +0.000 A 
BRANCH  25  28
ATOM     28  O   UNL     1       0.695  10.052  20.242  0.00  0.00    +0.000 OA
BRANCH  28  29
ATOM     29  C   UNL     1      -0.458  10.546  19.668  0.00  0.00    +0.000 A 
ATOM     30  C   UNL     1      -0.932  11.752  20.192  0.00  0.00    +0.000 A 
ATOM     31  C   UNL     1      -2.098  12.330  19.686  0.00  0.00    +0.000 A 
ATOM     32  C   UNL     1      -2.794  11.704  18.652  0.00  0.00    +0.000 A 
ATOM     33  C   UNL     1      -2.304  10.522  18.100  0.00  0.00    +0.000 A 
ATOM     34  C   UNL     1      -1.123   9.959  18.587  0.00  0.00    +0.000 A 
ENDBRANCH  28  29
ENDBRANCH  25  28
ENDBRANCH  21  22
ENDBRANCH  12  21
TORSDOF 6
ENDMDL
MODEL 3
REMARK VINA RESULT:      -8.5      6.141      9.276
REMARK  Name = 
REMARK  6 active torsions:
REMARK  status: ('A' for Active; 'I' for Inactive)
REMARK    1  A    between atoms: N_1  and  C_2
REMARK    2  A    between atoms: C_2  and  N_4
REMARK    3  A    between atoms: C_15  and  C_16
REMARK    4  A    between atoms: C_16  and  C_17
REMARK    5  A    between atoms: C_20  and  O_21
REMARK    6  A    between atoms: O_21  and  C_22
REMARK                            x       y       z     vdW  Elec       q    Type
REMARK                         _______ _______ _______ _____ _____    ______ ____
ROOT
ATOM      1  N   UNL     1       3.803   3.550  19.100  0.00  0.00    +0.000 N 
ATOM      2  C   UNL     1       4.822   4.445  18.820  0.00  0.00    +0.000 A 
ATOM      3  N   UNL     1       6.036   4.349  19.373  0.00  0.00    +0.000 NA
ATOM      4  N   UNL     1       6.683   5.461  18.974  0.00  0.00    +0.000 N 
ATOM      5  C   UNL     1       7.974   5.795  19.410  0.00  0.00    +0.000 A 
ATOM      6  O   UNL     1       8.618   5.085  20.169  0.00  0.00    +0.000 OA
ATOM      7  N   UNL     1       8.379   7.015  18.895  0.00  0.00    +0.000 N 
ATOM      8  C   UNL     1       7.661   7.849  18.074  0.00  0.00    +0.000 A 
ATOM      9  S   UNL     1       8.285   9.300  17.558  0.00  0.00    +0.000 S 
ATOM     10  N   UNL     1       6.409   7.446  17.699  0.00  0.00    +0.000 N 
ATOM     11  C   UNL     1       5.916   6.241  18.150  0.00  0.00    +0.000 A 
ATOM     12  C   UNL     1       4.703   5.605  17.984  0.00  0.00    +0.000 A 
ATOM     13  H   UNL     1       2.914   3.695  18.644  0.00  0.00    +0.000 HD
ATOM     14  H   UNL     1       9.297   7.325  19.183  0.00  0.00    +0.000 HD
ATOM     15  H   UNL     1       5.855   8.058  17.110  0.00  0.00    +0.000 HD
ENDROOT
BRANCH   1  16
ATOM     16  C   UNL     1       3.804   2.572  20.048  0.00  0.00    +0.000 C 
ATOM     17  S   UNL     1       2.594   2.502  21.187  0.00  0.00    +0.000 S 
BRANCH  16  18
ATOM     18  N   UNL     1       4.812   1.682  20.066  0.00  0.00    +0.000 N 
ATOM     19  H   UNL     1       5.165   1.254  19.222  0.00  0.00    +0.000 HD
ATOM     20  H   UNL     1       5.197   1.389  20.965  0.00  0.00    +0.000 HD
ENDBRANCH  16  18
ENDBRANCH   1  16
BRANCH  12  21
ATOM     21  C   UNL     1       3.505   6.105  17.249  0.00  0.00    +0.000 C 
BRANCH  21  22
ATOM     22  C   UNL     1       2.825   7.143  18.110  0.00  0.00    +0.000 A 
ATOM     23  C   UNL     1       2.428   8.375  17.569  0.00  0.00    +0.000 A 
ATOM     24  C   UNL     1       1.688   9.283  18.335  0.00  0.00    +0.000 A 
ATOM     25  C   UNL     1       1.339   8.978  19.652  0.00  0.00    +0.000 A 
ATOM     26  C   UNL     1       1.809   7.798  20.227  0.00  0.00    +0.000 A 
ATOM     27  C   UNL     1       2.516   6.874  19.453  0.00  0.00    +0.000 A 
BRANCH  25  28
ATOM     28  O   UNL     1       0.582   9.915  20.317  0.00  0.00    +0.000 OA
BRANCH  28  29
ATOM     29  C   UNL     1       0.364  11.153  19.750  0.00  0.00    +0.000 A 
ATOM     30  C   UNL     1      -0.867  11.323  19.111  0.00  0.00    +0.000 A 
ATOM     31  C   UNL     1      -1.180  12.537  18.496  0.00  0.00    +0.000 A 
ATOM     32  C   UNL     1      -0.262  13.587  18.521  0.00  0.00    +0.000 A 
ATOM     33  C   UNL     1       0.950  13.436  19.191  0.00  0.00    +0.000 A 
ATOM     34  C   UNL     1       1.251  12.231  19.829  0.00  0.00    +0.000 A 
ENDBRANCH  28  29
ENDBRANCH  25  28
ENDBRANCH  21  22
ENDBRANCH  12  21
TORSDOF 6
ENDMDL
MODEL 4
REMARK VINA RESULT:      -8.5      0.896      4.033
REMARK  Name = 
REMARK  6 active torsions:
REMARK  status: ('A' for Active; 'I' for Inactive)
REMARK    1  A    between atoms: N_1  and  C_2
REMARK    2  A    between atoms: C_2  and  N_4
REMARK    3  A    between atoms: C_15  and  C_16
REMARK    4  A    between atoms: C_16  and  C_17
REMARK    5  A    between atoms: C_20  and  O_21
REMARK    6  A    between atoms: O_21  and  C_22
REMARK                            x       y       z     vdW  Elec       q    Type
REMARK                         _______ _______ _______ _____ _____    ______ ____
ROOT
ATOM      1  N   UNL     1      -2.146  10.918  16.762  0.00  0.00    +0.000 N 
ATOM      2  C   UNL     1      -2.180  11.378  18.067  0.00  0.00    +0.000 A 
ATOM      3  N   UNL     1      -3.325  11.594  18.724  0.00  0.00    +0.000 NA
ATOM      4  N   UNL     1      -2.951  12.164  19.886  0.00  0.00    +0.000 N 
ATOM      5  C   UNL     1      -3.866  12.635  20.840  0.00  0.00    +0.000 A 
ATOM      6  O   UNL     1      -5.076  12.539  20.695  0.00  0.00    +0.000 OA
ATOM      7  N   UNL     1      -3.218  13.226  21.911  0.00  0.00    +0.000 N 
ATOM      8  C   UNL     1      -1.864  13.381  22.079  0.00  0.00    +0.000 A 
ATOM      9  S   UNL     1      -1.241  14.138  23.421  0.00  0.00    +0.000 S 
ATOM     10  N   UNL     1      -1.043  12.895  21.099  0.00  0.00    +0.000 N 
ATOM     11  C   UNL     1      -1.590  12.279  19.994  0.00  0.00    +0.000 A 
ATOM     12  C   UNL     1      -1.034  11.745  18.850  0.00  0.00    +0.000 A 
ATOM     13  H   UNL     1      -1.241  10.783  16.336  0.00  0.00    +0.000 HD
ATOM     14  H   UNL     1      -3.821  13.602  22.630  0.00  0.00    +0.000 HD
ATOM     15  H   UNL     1      -0.041  13.018  21.194  0.00  0.00    +0.000 HD
ENDROOT
BRANCH   1  16
ATOM     16  C   UNL     1      -3.201  10.768  15.914  0.00  0.00    +0.000 C 
ATOM     17  S   UNL     1      -3.006  10.001  14.451  0.00  0.00    +0.000 S 
BRANCH  16  18
ATOM     18  N   UNL     1      -4.397  11.274  16.265  0.00  0.00    +0.000 N 
ATOM     19  H   UNL     1      -4.632  12.246  16.120  0.00  0.00    +0.000 HD
ATOM     20  H   UNL     1      -5.069  10.671  16.742  0.00  0.00    +0.000 HD
ENDBRANCH  16  18
ENDBRANCH   1  16
BRANCH  12  21
ATOM     21  C   UNL     1       0.405  11.721  18.461  0.00  0.00    +0.000 C 
BRANCH  21  22
ATOM     22  C   UNL     1       0.948  10.343  18.752  0.00  0.00    +0.000 A 
ATOM     23  C   UNL     1       1.757   9.678  17.818  0.00  0.00    +0.000 A 
ATOM     24  C   UNL     1       2.360   8.458  18.140  0.00  0.00    +0.000 A 
ATOM     25  C   UNL     1       2.160   7.878  19.394  0.00  0.00    +0.000 A 
ATOM     26  C   UNL     1       1.283   8.483  20.294  0.00  0.00    +0.000 A 
ATOM     27  C   UNL     1       0.711   9.721  19.989  0.00  0.00    +0.000 A 
BRANCH  25  28
ATOM     28  O   UNL     1       2.820   6.695  19.634  0.00  0.00    +0.000 OA
BRANCH  28  29
ATOM     29  C   UNL     1       2.148   5.496  19.517  0.00  0.00    +0.000 A 
ATOM     30  C   UNL     1       2.128   4.931  18.239  0.00  0.00    +0.000 A 
ATOM     31  C   UNL     1       1.465   3.723  18.013  0.00  0.00    +0.000 A 
ATOM     32  C   UNL     1       0.821   3.074  19.066  0.00  0.00    +0.000 A 
ATOM     33  C   UNL     1       0.871   3.613  20.350  0.00  0.00    +0.000 A 
ATOM     34  C   UNL     1       1.558   4.807  20.581  0.00  0.00    +0.000 A 
ENDBRANCH  28  29
ENDBRANCH  25  28
ENDBRANCH  21  22
ENDBRANCH  12  21
TORSDOF 6
ENDMDL
MODEL 5
REMARK VINA RESULT:      -8.3      0.536      1.044
REMARK  Name = 
REMARK  6 active torsions:
REMARK  status: ('A' for Active; 'I' for Inactive)
REMARK    1  A    between atoms: N_1  and  C_2
REMARK    2  A    between atoms: C_2  and  N_4
REMARK    3  A    between atoms: C_15  and  C_16
REMARK    4  A    between atoms: C_16  and  C_17
REMARK    5  A    between atoms: C_20  and  O_21
REMARK    6  A    between atoms: O_21  and  C_22
REMARK                            x       y       z     vdW  Elec       q    Type
REMARK                         _______ _______ _______ _____ _____    ______ ____
ROOT
ATOM      1  N   UNL     1      -0.935  12.612  21.516  0.00  0.00    +0.000 N 
ATOM      2  C   UNL     1      -1.523  12.282  20.307  0.00  0.00    +0.000 A 
ATOM      3  N   UNL     1      -2.841  12.098  20.174  0.00  0.00    +0.000 NA
ATOM      4  N   UNL     1      -3.000  11.657  18.911  0.00  0.00    +0.000 N 
ATOM      5  C   UNL     1      -4.238  11.256  18.388  0.00  0.00    +0.000 A 
ATOM      6  O   UNL     1      -5.274  11.301  19.037  0.00  0.00    +0.000 OA
ATOM      7  N   UNL     1      -4.111  10.793  17.089  0.00  0.00    +0.000 N 
ATOM      8  C   UNL     1      -2.956  10.695  16.353  0.00  0.00    +0.000 A 
ATOM      9  S   UNL     1      -2.968  10.093  14.804  0.00  0.00    +0.000 S 
ATOM     10  N   UNL     1      -1.792  11.107  16.941  0.00  0.00    +0.000 N 
ATOM     11  C   UNL     1      -1.813  11.594  18.230  0.00  0.00    +0.000 A 
ATOM     12  C   UNL     1      -0.819  12.029  19.082  0.00  0.00    +0.000 A 
ATOM     13  H   UNL     1       0.067  12.730  21.533  0.00  0.00    +0.000 HD
ATOM     14  H   UNL     1      -4.966  10.472  16.657  0.00  0.00    +0.000 HD
ATOM     15  H   UNL     1      -0.925  11.023  16.421  0.00  0.00    +0.000 HD
ENDROOT
BRANCH   1  16
ATOM     16  C   UNL     1      -1.533  12.646  22.739  0.00  0.00    +0.000 C 
ATOM     17  S   UNL     1      -1.471  14.023  23.670  0.00  0.00    +0.000 S 
BRANCH  16  18
ATOM     18  N   UNL     1      -2.151  11.541  23.195  0.00  0.00    +0.000 N 
ATOM     19  H   UNL     1      -1.754  10.619  23.081  0.00  0.00    +0.000 HD
ATOM     20  H   UNL     1      -3.073  11.630  23.623  0.00  0.00    +0.000 HD
ENDBRANCH  16  18
ENDBRANCH   1  16
BRANCH  12  21
ATOM     21  C   UNL     1       0.651  12.056  18.829  0.00  0.00    +0.000 C 
BRANCH  21  22
ATOM     22  C   UNL     1       1.146  10.631  18.786  0.00  0.00    +0.000 A 
ATOM     23  C   UNL     1       1.851  10.149  17.673  0.00  0.00    +0.000 A 
ATOM     24  C   UNL     1       2.417   8.870  17.687  0.00  0.00    +0.000 A 
ATOM     25  C   UNL     1       2.282   8.049  18.809  0.00  0.00    +0.000 A 
ATOM     26  C   UNL     1       1.505   8.482  19.882  0.00  0.00    +0.000 A 
ATOM     27  C   UNL     1       0.972   9.774  19.885  0.00  0.00    +0.000 A 
BRANCH  25  28
ATOM     28  O   UNL     1       2.901   6.821  18.747  0.00  0.00    +0.000 OA
BRANCH  28  29
ATOM     29  C   UNL     1       2.213   5.685  19.118  0.00  0.00    +0.000 A 
ATOM     30  C   UNL     1       1.899   4.798  18.086  0.00  0.00    +0.000 A 
ATOM     31  C   UNL     1       1.195   3.622  18.356  0.00  0.00    +0.000 A 
ATOM     32  C   UNL     1       0.804   3.329  19.663  0.00  0.00    +0.000 A 
ATOM     33  C   UNL     1       1.150   4.192  20.702  0.00  0.00    +0.000 A 
ATOM     34  C   UNL     1       1.877   5.353  20.435  0.00  0.00    +0.000 A 
ENDBRANCH  28  29
ENDBRANCH  25  28
ENDBRANCH  21  22
ENDBRANCH  12  21
TORSDOF 6
ENDMDL
MODEL 6
REMARK VINA RESULT:      -8.3      0.989      1.461
REMARK  Name = 
REMARK  6 active torsions:
REMARK  status: ('A' for Active; 'I' for Inactive)
REMARK    1  A    between atoms: N_1  and  C_2
REMARK    2  A    between atoms: C_2  and  N_4
REMARK    3  A    between atoms: C_15  and  C_16
REMARK    4  A    between atoms: C_16  and  C_17
REMARK    5  A    between atoms: C_20  and  O_21
REMARK    6  A    between atoms: O_21  and  C_22
REMARK                            x       y       z     vdW  Elec       q    Type
REMARK                         _______ _______ _______ _____ _____    ______ ____
ROOT
ATOM      1  N   UNL     1      -0.541  12.366  21.374  0.00  0.00    +0.000 N 
ATOM      2  C   UNL     1      -1.187  12.129  20.172  0.00  0.00    +0.000 A 
ATOM      3  N   UNL     1      -2.519  12.172  20.050  0.00  0.00    +0.000 NA
ATOM      4  N   UNL     1      -2.762  11.752  18.794  0.00  0.00    +0.000 N 
ATOM      5  C   UNL     1      -4.055  11.564  18.284  0.00  0.00    +0.000 A 
ATOM      6  O   UNL     1      -5.062  11.792  18.940  0.00  0.00    +0.000 OA
ATOM      7  N   UNL     1      -4.020  11.072  16.990  0.00  0.00    +0.000 N 
ATOM      8  C   UNL     1      -2.905  10.771  16.246  0.00  0.00    +0.000 A 
ATOM      9  S   UNL     1      -3.033  10.164  14.705  0.00  0.00    +0.000 S 
ATOM     10  N   UNL     1      -1.682  10.983  16.822  0.00  0.00    +0.000 N 
ATOM     11  C   UNL     1      -1.609  11.480  18.105  0.00  0.00    +0.000 A 
ATOM     12  C   UNL     1      -0.548  11.747  18.946  0.00  0.00    +0.000 A 
ATOM     13  H   UNL     1       0.466  12.311  21.383  0.00  0.00    +0.000 HD
ATOM     14  H   UNL     1      -4.921  10.899  16.567  0.00  0.00    +0.000 HD
ATOM     15  H   UNL     1      -0.848  10.747  16.297  0.00  0.00    +0.000 HD
ENDROOT
BRANCH   1  16
ATOM     16  C   UNL     1      -1.114  12.514  22.600  0.00  0.00    +0.000 C 
ATOM     17  S   UNL     1      -1.192  14.013  23.319  0.00  0.00    +0.000 S 
BRANCH  16  18
ATOM     18  N   UNL     1      -1.592  11.428  23.234  0.00  0.00    +0.000 N 
ATOM     19  H   UNL     1      -1.013  10.623  23.429  0.00  0.00    +0.000 HD
ATOM     20  H   UNL     1      -2.582  11.393  23.478  0.00  0.00    +0.000 HD
ENDBRANCH  16  18
ENDBRANCH   1  16
BRANCH  12  21
ATOM     21  C   UNL     1       0.902  11.520  18.683  0.00  0.00    +0.000 C 
BRANCH  21  22
ATOM     22  C   UNL     1       1.215  10.075  18.991  0.00  0.00    +0.000 A 
ATOM     23  C   UNL     1       1.676   9.211  17.986  0.00  0.00    +0.000 A 
ATOM     24  C   UNL     1       2.083   7.909  18.299  0.00  0.00    +0.000 A 
ATOM     25  C   UNL     1       2.030   7.449  19.616  0.00  0.00    +0.000 A 
ATOM     26  C   UNL     1       1.486   8.267  20.605  0.00  0.00    +0.000 A 
ATOM     27  C   UNL     1       1.115   9.580  20.301  0.00  0.00    +0.000 A 
BRANCH  25  28
ATOM     28  O   UNL     1       2.483   6.168  19.835  0.00  0.00    +0.000 OA
BRANCH  28  29
ATOM     29  C   UNL     1       3.105   5.474  18.818  0.00  0.00    +0.000 A 
ATOM     30  C   UNL     1       2.355   4.452  18.230  0.00  0.00    +0.000 A 
ATOM     31  C   UNL     1       2.898   3.684  17.198  0.00  0.00    +0.000 A 
ATOM     32  C   UNL     1       4.194   3.937  16.749  0.00  0.00    +0.000 A 
ATOM     33  C   UNL     1       4.932   4.981  17.305  0.00  0.00    +0.000 A 
ATOM     34  C   UNL     1       4.378   5.767  18.318  0.00  0.00    +0.000 A 
ENDBRANCH  28  29
ENDBRANCH  25  28
ENDBRANCH  21  22
ENDBRANCH  12  21
TORSDOF 6
ENDMDL
MODEL 7
REMARK VINA RESULT:      -8.3      0.907      1.631
REMARK  Name = 
REMARK  6 active torsions:
REMARK  status: ('A' for Active; 'I' for Inactive)
REMARK    1  A    between atoms: N_1  and  C_2
REMARK    2  A    between atoms: C_2  and  N_4
REMARK    3  A    between atoms: C_15  and  C_16
REMARK    4  A    between atoms: C_16  and  C_17
REMARK    5  A    between atoms: C_20  and  O_21
REMARK    6  A    between atoms: O_21  and  C_22
REMARK                            x       y       z     vdW  Elec       q    Type
REMARK                         _______ _______ _______ _____ _____    ______ ____
ROOT
ATOM      1  N   UNL     1      -0.694  12.628  21.480  0.00  0.00    +0.000 N 
ATOM      2  C   UNL     1      -1.317  12.333  20.279  0.00  0.00    +0.000 A 
ATOM      3  N   UNL     1      -2.648  12.272  20.154  0.00  0.00    +0.000 NA
ATOM      4  N   UNL     1      -2.854  11.825  18.901  0.00  0.00    +0.000 N 
ATOM      5  C   UNL     1      -4.128  11.533  18.390  0.00  0.00    +0.000 A 
ATOM      6  O   UNL     1      -5.151  11.688  19.042  0.00  0.00    +0.000 OA
ATOM      7  N   UNL     1      -4.051  11.036  17.099  0.00  0.00    +0.000 N 
ATOM      8  C   UNL     1      -2.915  10.816  16.361  0.00  0.00    +0.000 A 
ATOM      9  S   UNL     1      -2.992  10.189  14.824  0.00  0.00    +0.000 S 
ATOM     10  N   UNL     1      -1.714  11.126  16.937  0.00  0.00    +0.000 N 
ATOM     11  C   UNL     1      -1.682  11.637  18.216  0.00  0.00    +0.000 A 
ATOM     12  C   UNL     1      -0.647  11.991  19.057  0.00  0.00    +0.000 A 
ATOM     13  H   UNL     1       0.314  12.651  21.491  0.00  0.00    +0.000 HD
ATOM     14  H   UNL     1      -4.936  10.790  16.676  0.00  0.00    +0.000 HD
ATOM     15  H   UNL     1      -0.862  10.951  16.416  0.00  0.00    +0.000 HD
ENDROOT
BRANCH   1  16
ATOM     16  C   UNL     1      -1.280  12.741  22.704  0.00  0.00    +0.000 C 
ATOM     17  S   UNL     1      -1.262  14.193  23.516  0.00  0.00    +0.000 S 
BRANCH  16  18
ATOM     18  N   UNL     1      -1.849  11.656  23.259  0.00  0.00    +0.000 N 
ATOM     19  H   UNL     1      -2.826  11.635  23.516  0.00  0.00    +0.000 HD
ATOM     20  H   UNL     1      -1.266  10.847  23.476  0.00  0.00    +0.000 HD
ENDBRANCH  16  18
ENDBRANCH   1  16
BRANCH  12  21
ATOM     21  C   UNL     1       0.817  11.875  18.798  0.00  0.00    +0.000 C 
BRANCH  21  22
ATOM     22  C   UNL     1       1.235  10.455  19.097  0.00  0.00    +0.000 A 
ATOM     23  C   UNL     1       1.048   9.906  20.375  0.00  0.00    +0.000 A 
ATOM     24  C   UNL     1       1.320   8.554  20.615  0.00  0.00    +0.000 A 
ATOM     25  C   UNL     1       1.787   7.733  19.588  0.00  0.00    +0.000 A 
ATOM     26  C   UNL     1       2.065   8.290  18.340  0.00  0.00    +0.000 A 
ATOM     27  C   UNL     1       1.758   9.630  18.088  0.00  0.00    +0.000 A 
BRANCH  25  28
ATOM     28  O   UNL     1       1.994   6.410  19.907  0.00  0.00    +0.000 OA
BRANCH  28  29
ATOM     29  C   UNL     1       2.639   5.579  19.015  0.00  0.00    +0.000 A 
ATOM     30  C   UNL     1       4.036   5.595  19.069  0.00  0.00    +0.000 A 
ATOM     31  C   UNL     1       4.783   4.797  18.200  0.00  0.00    +0.000 A 
ATOM     32  C   UNL     1       4.135   3.977  17.276  0.00  0.00    +0.000 A 
ATOM     33  C   UNL     1       2.742   3.929  17.245  0.00  0.00    +0.000 A 
ATOM     34  C   UNL     1       1.995   4.706  18.133  0.00  0.00    +0.000 A 
ENDBRANCH  28  29
ENDBRANCH  25  28
ENDBRANCH  21  22
ENDBRANCH  12  21
TORSDOF 6
ENDMDL
MODEL 8
REMARK VINA RESULT:      -8.3      6.155      9.275
REMARK  Name = 
REMARK  6 active torsions:
REMARK  status: ('A' for Active; 'I' for Inactive)
REMARK    1  A    between atoms: N_1  and  C_2
REMARK    2  A    between atoms: C_2  and  N_4
REMARK    3  A    between atoms: C_15  and  C_16
REMARK    4  A    between atoms: C_16  and  C_17
REMARK    5  A    between atoms: C_20  and  O_21
REMARK    6  A    between atoms: O_21  and  C_22
REMARK                            x       y       z     vdW  Elec       q    Type
REMARK                         _______ _______ _______ _____ _____    ______ ____
ROOT
ATOM      1  N   UNL     1       3.860   3.533  18.988  0.00  0.00    +0.000 N 
ATOM      2  C   UNL     1       4.872   4.444  18.736  0.00  0.00    +0.000 A 
ATOM      3  N   UNL     1       6.075   4.362  19.317  0.00  0.00    +0.000 NA
ATOM      4  N   UNL     1       6.716   5.485  18.938  0.00  0.00    +0.000 N 
ATOM      5  C   UNL     1       7.991   5.835  19.405  0.00  0.00    +0.000 A 
ATOM      6  O   UNL     1       8.627   5.131  20.177  0.00  0.00    +0.000 OA
ATOM      7  N   UNL     1       8.391   7.063  18.905  0.00  0.00    +0.000 N 
ATOM      8  C   UNL     1       7.680   7.890  18.070  0.00  0.00    +0.000 A 
ATOM      9  S   UNL     1       8.296   9.352  17.575  0.00  0.00    +0.000 S 
ATOM     10  N   UNL     1       6.443   7.471  17.664  0.00  0.00    +0.000 N 
ATOM     11  C   UNL     1       5.957   6.257  18.099  0.00  0.00    +0.000 A 
ATOM     12  C   UNL     1       4.757   5.605  17.902  0.00  0.00    +0.000 A 
ATOM     13  H   UNL     1       2.981   3.667  18.513  0.00  0.00    +0.000 HD
ATOM     14  H   UNL     1       9.297   7.384  19.216  0.00  0.00    +0.000 HD
ATOM     15  H   UNL     1       5.894   8.078  17.065  0.00  0.00    +0.000 HD
ENDROOT
BRANCH   1  16
ATOM     16  C   UNL     1       3.853   2.551  19.932  0.00  0.00    +0.000 C 
ATOM     17  S   UNL     1       2.702   2.545  21.133  0.00  0.00    +0.000 S 
BRANCH  16  18
ATOM     18  N   UNL     1       4.807   1.603  19.896  0.00  0.00    +0.000 N 
ATOM     19  H   UNL     1       5.245   1.317  19.033  0.00  0.00    +0.000 HD
ATOM     20  H   UNL     1       5.057   1.120  20.760  0.00  0.00    +0.000 HD
ENDBRANCH  16  18
ENDBRANCH   1  16
BRANCH  12  21
ATOM     21  C   UNL     1       3.570   6.092  17.141  0.00  0.00    +0.000 C 
BRANCH  21  22
ATOM     22  C   UNL     1       2.796   7.034  18.031  0.00  0.00    +0.000 A 
ATOM     23  C   UNL     1       2.504   6.690  19.359  0.00  0.00    +0.000 A 
ATOM     24  C   UNL     1       1.898   7.614  20.217  0.00  0.00    +0.000 A 
ATOM     25  C   UNL     1       1.567   8.891  19.761  0.00  0.00    +0.000 A 
ATOM     26  C   UNL     1       1.766   9.210  18.419  0.00  0.00    +0.000 A 
ATOM     27  C   UNL     1       2.406   8.302  17.571  0.00  0.00    +0.000 A 
BRANCH  25  28
ATOM     28  O   UNL     1       1.005   9.744  20.684  0.00  0.00    +0.000 OA
BRANCH  28  29
ATOM     29  C   UNL     1       0.334  10.872  20.260  0.00  0.00    +0.000 A 
ATOM     30  C   UNL     1       1.076  12.056  20.256  0.00  0.00    +0.000 A 
ATOM     31  C   UNL     1       0.486  13.256  19.853  0.00  0.00    +0.000 A 
ATOM     32  C   UNL     1      -0.849  13.275  19.449  0.00  0.00    +0.000 A 
ATOM     33  C   UNL     1      -1.582  12.089  19.414  0.00  0.00    +0.000 A 
ATOM     34  C   UNL     1      -0.983  10.885  19.790  0.00  0.00    +0.000 A 
ENDBRANCH  28  29
ENDBRANCH  25  28
ENDBRANCH  21  22
ENDBRANCH  12  21
TORSDOF 6
ENDMDL
MODEL 9
REMARK VINA RESULT:      -8.1      2.960      4.224
REMARK  Name = 
REMARK  6 active torsions:
REMARK  status: ('A' for Active; 'I' for Inactive)
REMARK    1  A    between atoms: N_1  and  C_2
REMARK    2  A    between atoms: C_2  and  N_4
REMARK    3  A    between atoms: C_15  and  C_16
REMARK    4  A    between atoms: C_16  and  C_17
REMARK    5  A    between atoms: C_20  and  O_21
REMARK    6  A    between atoms: O_21  and  C_22
REMARK                            x       y       z     vdW  Elec       q    Type
REMARK                         _______ _______ _______ _____ _____    ______ ____
ROOT
ATOM      1  N   UNL     1      -1.546  11.737  21.253  0.00  0.00    +0.000 N 
ATOM      2  C   UNL     1      -0.321  12.324  20.989  0.00  0.00    +0.000 A 
ATOM      3  N   UNL     1       0.196  13.289  21.757  0.00  0.00    +0.000 NA
ATOM      4  N   UNL     1       1.303  13.692  21.103  0.00  0.00    +0.000 N 
ATOM      5  C   UNL     1       2.100  14.764  21.532  0.00  0.00    +0.000 A 
ATOM      6  O   UNL     1       1.860  15.398  22.549  0.00  0.00    +0.000 OA
ATOM      7  N   UNL     1       3.140  15.003  20.649  0.00  0.00    +0.000 N 
ATOM      8  C   UNL     1       3.408  14.332  19.482  0.00  0.00    +0.000 A 
ATOM      9  S   UNL     1       4.690  14.760  18.516  0.00  0.00    +0.000 S 
ATOM     10  N   UNL     1       2.578  13.301  19.138  0.00  0.00    +0.000 N 
ATOM     11  C   UNL     1       1.518  12.976  19.956  0.00  0.00    +0.000 A 
ATOM     12  C   UNL     1       0.508  12.041  19.852  0.00  0.00    +0.000 A 
ATOM     13  H   UNL     1      -1.867  11.017  20.623  0.00  0.00    +0.000 HD
ATOM     14  H   UNL     1       3.745  15.776  20.891  0.00  0.00    +0.000 HD
ATOM     15  H   UNL     1       2.747  12.807  18.268  0.00  0.00    +0.000 HD
ENDROOT
BRANCH   1  16
ATOM     16  C   UNL     1      -2.459  12.124  22.187  0.00  0.00    +0.000 C 
ATOM     17  S   UNL     1      -3.816  12.974  21.736  0.00  0.00    +0.000 S 
BRANCH  16  18
ATOM     18  N   UNL     1      -2.234  11.834  23.481  0.00  0.00    +0.000 N 
ATOM     19  H   UNL     1      -2.926  11.375  24.056  0.00  0.00    +0.000 HD
ATOM     20  H   UNL     1      -1.358  12.135  23.911  0.00  0.00    +0.000 HD
ENDBRANCH  16  18
ENDBRANCH   1  16
BRANCH  12  21
ATOM     21  C   UNL     1       0.258  11.091  18.730  0.00  0.00    +0.000 C 
BRANCH  21  22
ATOM     22  C   UNL     1       1.071   9.844  18.981  0.00  0.00    +0.000 A 
ATOM     23  C   UNL     1       1.056   9.219  20.237  0.00  0.00    +0.000 A 
ATOM     24  C   UNL     1       1.708   7.996  20.432  0.00  0.00    +0.000 A 
ATOM     25  C   UNL     1       2.391   7.383  19.379  0.00  0.00    +0.000 A 
ATOM     26  C   UNL     1       2.490   8.041  18.154  0.00  0.00    +0.000 A 
ATOM     27  C   UNL     1       1.808   9.243  17.948  0.00  0.00    +0.000 A 
BRANCH  25  28
ATOM     28  O   UNL     1       2.974   6.167  19.654  0.00  0.00    +0.000 OA
BRANCH  28  29
ATOM     29  C   UNL     1       2.312   4.999  19.335  0.00  0.00    +0.000 A 
ATOM     30  C   UNL     1       1.461   4.493  20.321  0.00  0.00    +0.000 A 
ATOM     31  C   UNL     1       0.752   3.310  20.100  0.00  0.00    +0.000 A 
ATOM     32  C   UNL     1       0.891   2.630  18.890  0.00  0.00    +0.000 A 
ATOM     33  C   UNL     1       1.709   3.152  17.889  0.00  0.00    +0.000 A 
ATOM     34  C   UNL     1       2.395   4.349  18.100  0.00  0.00    +0.000 A 
ENDBRANCH  28  29
ENDBRANCH  25  28
ENDBRANCH  21  22
ENDBRANCH  12  21
TORSDOF 6
ENDMDL
