MODEL 1
REMARK VINA RESULT:      -7.0      0.000      0.000
REMARK  Name = 
REMARK  7 active torsions:
REMARK  status: ('A' for Active; 'I' for Inactive)
REMARK    1  A    between atoms: C_1  and  C_2
REMARK    2  A    between atoms: C_5  and  C_6
REMARK    3  A    between atoms: N_7  and  N_8
REMARK    4  A    between atoms: C_9  and  C_11
REMARK    5  A    between atoms: C_11  and  N_12
REMARK    6  A    between atoms: N_15  and  S_16
REMARK    7  A    between atoms: S_16  and  C_19
REMARK                            x       y       z     vdW  Elec       q    Type
REMARK                         _______ _______ _______ _____ _____    ______ ____
ROOT
ATOM      1  N   UNL     1       0.754  10.914  20.165  0.00  0.00    +0.000 NA
ATOM      2  C   UNL     1       1.179  12.225  20.716  0.00  0.00    +0.000 C 
ATOM      3  C   UNL     1       0.165  13.392  20.766  0.00  0.00    +0.000 C 
ATOM      4  N   UNL     1      -1.199  12.950  21.165  0.00  0.00    +0.000 NA
ATOM      5  C   UNL     1      -1.634  11.865  20.235  0.00  0.00    +0.000 C 
ATOM      6  C   UNL     1      -0.692  10.649  20.318  0.00  0.00    +0.000 C 
ENDROOT
BRANCH   4   7
ATOM      7  S   UNL     1      -1.461  12.607  22.821  0.00  0.00    +0.000 S 
ATOM      8  O   UNL     1      -1.230  11.190  23.022  0.00  0.00    +0.000 OA
ATOM      9  O   UNL     1      -0.751  13.591  23.611  0.00  0.00    +0.000 OA
BRANCH   7  10
ATOM     10  C   UNL     1      -3.201  12.875  23.066  0.00  0.00    +0.000 A 
ATOM     11  C   UNL     1      -3.828  12.329  24.193  0.00  0.00    +0.000 A 
ATOM     12  C   UNL     1      -5.170  12.626  24.444  0.00  0.00    +0.000 A 
ATOM     13  C   UNL     1      -5.872  13.465  23.577  0.00  0.00    +0.000 A 
ATOM     14 BR   UNL     1      -7.680  13.885  23.938  0.00  0.00    +0.000 Br
ATOM     15  C   UNL     1      -5.246  14.014  22.456  0.00  0.00    +0.000 A 
ATOM     16  C   UNL     1      -3.907  13.718  22.196  0.00  0.00    +0.000 A 
ENDBRANCH   7  10
ENDBRANCH   4   7
BRANCH   1  17
ATOM     17  C   UNL     1       1.223  10.670  18.788  0.00  0.00    +0.000 C 
BRANCH  17  19
ATOM     18  N   UNL     1       1.807   8.476  19.745  0.00  0.00    +0.000 N 
ATOM     19  C   UNL     1       1.702   9.226  18.576  0.00  0.00    +0.000 C 
ATOM     20  O   UNL     1       1.918   8.797  17.441  0.00  0.00    +0.000 OA
ATOM     21  H   UNL     1       1.652   8.938  20.637  0.00  0.00    +0.000 HD
BRANCH  18  23
ATOM     22  C   UNL     1       1.640   6.274  20.323  0.00  0.00    +0.000 C 
ATOM     23  N   UNL     1       2.262   7.196  19.661  0.00  0.00    +0.000 NA
BRANCH  22  28
ATOM     24  C   UNL     1       3.425   1.568  18.645  0.00  0.00    +0.000 C 
ATOM     25  C   UNL     1       2.958   2.716  19.473  0.00  0.00    +0.000 A 
ATOM     26  C   UNL     1       2.836   2.775  20.845  0.00  0.00    +0.000 A 
ATOM     27  C   UNL     1       2.361   4.039  21.289  0.00  0.00    +0.000 A 
ATOM     28  C   UNL     1       2.127   4.913  20.245  0.00  0.00    +0.000 A 
ATOM     29  S   UNL     1       2.488   4.194  18.737  0.00  0.00    +0.000 S 
ENDBRANCH  22  28
ENDBRANCH  18  23
ENDBRANCH  17  19
ENDBRANCH   1  17
TORSDOF 6
ENDMDL
MODEL 2
REMARK VINA RESULT:      -6.9      6.090     11.925
REMARK  Name = 
REMARK  7 active torsions:
REMARK  status: ('A' for Active; 'I' for Inactive)
REMARK    1  A    between atoms: C_1  and  C_2
REMARK    2  A    between atoms: C_5  and  C_6
REMARK    3  A    between atoms: N_7  and  N_8
REMARK    4  A    between atoms: C_9  and  C_11
REMARK    5  A    between atoms: C_11  and  N_12
REMARK    6  A    between atoms: N_15  and  S_16
REMARK    7  A    between atoms: S_16  and  C_19
REMARK                            x       y       z     vdW  Elec       q    Type
REMARK                         _______ _______ _______ _____ _____    ______ ____
ROOT
ATOM      1  N   UNL     1       3.837   5.657  19.026  0.00  0.00    +0.000 NA
ATOM      2  C   UNL     1       5.310   5.651  19.210  0.00  0.00    +0.000 C 
ATOM      3  C   UNL     1       6.168   4.625  18.431  0.00  0.00    +0.000 C 
ATOM      4  N   UNL     1       5.703   4.435  17.030  0.00  0.00    +0.000 NA
ATOM      5  C   UNL     1       4.259   4.055  17.059  0.00  0.00    +0.000 C 
ATOM      6  C   UNL     1       3.404   5.164  17.701  0.00  0.00    +0.000 C 
ENDROOT
BRANCH   4   7
ATOM      7  S   UNL     1       6.088   5.663  15.902  0.00  0.00    +0.000 S 
ATOM      8  O   UNL     1       4.916   6.501  15.743  0.00  0.00    +0.000 OA
ATOM      9  O   UNL     1       7.364   6.240  16.268  0.00  0.00    +0.000 OA
BRANCH   7  10
ATOM     10  C   UNL     1       6.308   4.805  14.361  0.00  0.00    +0.000 A 
ATOM     11  C   UNL     1       7.451   5.057  13.592  0.00  0.00    +0.000 A 
ATOM     12  C   UNL     1       7.680   4.309  12.434  0.00  0.00    +0.000 A 
ATOM     13  C   UNL     1       6.774   3.316  12.056  0.00  0.00    +0.000 A 
ATOM     14 BR   UNL     1       7.104   2.287  10.504  0.00  0.00    +0.000 Br
ATOM     15  C   UNL     1       5.636   3.061  12.825  0.00  0.00    +0.000 A 
ATOM     16  C   UNL     1       5.399   3.808  13.980  0.00  0.00    +0.000 A 
ENDBRANCH   7  10
ENDBRANCH   4   7
BRANCH   1  17
ATOM     17  C   UNL     1       3.101   5.012  20.130  0.00  0.00    +0.000 C 
BRANCH  17  19
ATOM     18  N   UNL     1       2.112   7.169  20.794  0.00  0.00    +0.000 N 
ATOM     19  C   UNL     1       1.867   5.817  20.564  0.00  0.00    +0.000 C 
ATOM     20  O   UNL     1       0.763   5.278  20.643  0.00  0.00    +0.000 OA
ATOM     21  H   UNL     1       3.070   7.506  20.747  0.00  0.00    +0.000 HD
BRANCH  18  23
ATOM     22  C   UNL     1       1.299   9.224  21.362  0.00  0.00    +0.000 C 
ATOM     23  N   UNL     1       1.087   7.955  21.221  0.00  0.00    +0.000 NA
BRANCH  22  28
ATOM     24  C   UNL     1      -2.480  12.922  21.806  0.00  0.00    +0.000 C 
ATOM     25  C   UNL     1      -1.549  11.783  22.045  0.00  0.00    +0.000 A 
ATOM     26  C   UNL     1      -1.473  10.970  23.156  0.00  0.00    +0.000 A 
ATOM     27  C   UNL     1      -0.461   9.980  23.030  0.00  0.00    +0.000 A 
ATOM     28  C   UNL     1       0.214  10.062  21.827  0.00  0.00    +0.000 A 
ATOM     29  S   UNL     1      -0.387  11.338  20.862  0.00  0.00    +0.000 S 
ENDBRANCH  22  28
ENDBRANCH  18  23
ENDBRANCH  17  19
ENDBRANCH   1  17
TORSDOF 6
ENDMDL
MODEL 3
REMARK VINA RESULT:      -6.8      7.029     10.024
REMARK  Name = 
REMARK  7 active torsions:
REMARK  status: ('A' for Active; 'I' for Inactive)
REMARK    1  A    between atoms: C_1  and  C_2
REMARK    2  A    between atoms: C_5  and  C_6
REMARK    3  A    between atoms: N_7  and  N_8
REMARK    4  A    between atoms: C_9  and  C_11
REMARK    5  A    between atoms: C_11  and  N_12
REMARK    6  A    between atoms: N_15  and  S_16
REMARK    7  A    between atoms: S_16  and  C_19
REMARK                            x       y       z     vdW  Elec       q    Type
REMARK                         _______ _______ _______ _____ _____    ______ ____
ROOT
ATOM      1  N   UNL     1       5.592   4.675  17.658  0.00  0.00    +0.000 NA
ATOM      2  C   UNL     1       5.069   3.603  16.774  0.00  0.00    +0.000 C 
ATOM      3  C   UNL     1       4.373   2.373  17.404  0.00  0.00    +0.000 C 
ATOM      4  N   UNL     1       3.495   2.735  18.549  0.00  0.00    +0.000 NA
ATOM      5  C   UNL     1       4.308   3.494  19.546  0.00  0.00    +0.000 C 
ATOM      6  C   UNL     1       4.862   4.796  18.937  0.00  0.00    +0.000 C 
ENDROOT
BRANCH   4   7
ATOM      7  S   UNL     1       1.981   3.447  18.184  0.00  0.00    +0.000 S 
ATOM      8  O   UNL     1       1.978   3.781  16.774  0.00  0.00    +0.000 OA
ATOM      9  O   UNL     1       0.937   2.619  18.749  0.00  0.00    +0.000 OA
BRANCH   7  10
ATOM     10  C   UNL     1       1.983   4.988  19.070  0.00  0.00    +0.000 A 
ATOM     11  C   UNL     1       2.315   6.168  18.394  0.00  0.00    +0.000 A 
ATOM     12  C   UNL     1       2.216   7.393  19.059  0.00  0.00    +0.000 A 
ATOM     13  C   UNL     1       1.783   7.432  20.385  0.00  0.00    +0.000 A 
ATOM     14 BR   UNL     1       1.622   9.095  21.271  0.00  0.00    +0.000 Br
ATOM     15  C   UNL     1       1.446   6.255  21.059  0.00  0.00    +0.000 A 
ATOM     16  C   UNL     1       1.548   5.028  20.402  0.00  0.00    +0.000 A 
ENDBRANCH   7  10
ENDBRANCH   4   7
BRANCH   1  17
ATOM     17  C   UNL     1       7.054   4.622  17.851  0.00  0.00    +0.000 C 
BRANCH  17  19
ATOM     18  N   UNL     1       7.736   6.986  17.983  0.00  0.00    +0.000 N 
ATOM     19  C   UNL     1       7.580   5.796  18.690  0.00  0.00    +0.000 C 
ATOM     20  O   UNL     1       7.788   5.660  19.897  0.00  0.00    +0.000 OA
ATOM     21  H   UNL     1       7.583   6.979  16.978  0.00  0.00    +0.000 HD
BRANCH  18  23
ATOM     22  C   UNL     1       8.439   9.157  17.959  0.00  0.00    +0.000 C 
ATOM     23  N   UNL     1       8.235   8.071  18.633  0.00  0.00    +0.000 NA
BRANCH  22  28
ATOM     24  C   UNL     1       9.922  14.063  19.330  0.00  0.00    +0.000 C 
ATOM     25  C   UNL     1       9.678  12.593  19.293  0.00  0.00    +0.000 A 
ATOM     26  C   UNL     1      10.034  11.652  20.235  0.00  0.00    +0.000 A 
ATOM     27  C   UNL     1       9.631  10.340  19.864  0.00  0.00    +0.000 A 
ATOM     28  C   UNL     1       8.981  10.311  18.645  0.00  0.00    +0.000 A 
ATOM     29  S   UNL     1       8.863  11.874  17.964  0.00  0.00    +0.000 S 
ENDBRANCH  22  28
ENDBRANCH  18  23
ENDBRANCH  17  19
ENDBRANCH   1  17
TORSDOF 6
ENDMDL
MODEL 4
REMARK VINA RESULT:      -6.8      6.352      9.758
REMARK  Name = 
REMARK  7 active torsions:
REMARK  status: ('A' for Active; 'I' for Inactive)
REMARK    1  A    between atoms: C_1  and  C_2
REMARK    2  A    between atoms: C_5  and  C_6
REMARK    3  A    between atoms: N_7  and  N_8
REMARK    4  A    between atoms: C_9  and  C_11
REMARK    5  A    between atoms: C_11  and  N_12
REMARK    6  A    between atoms: N_15  and  S_16
REMARK    7  A    between atoms: S_16  and  C_19
REMARK                            x       y       z     vdW  Elec       q    Type
REMARK                         _______ _______ _______ _____ _____    ______ ____
ROOT
ATOM      1  N   UNL     1       6.155   5.668  18.854  0.00  0.00    +0.000 NA
ATOM      2  C   UNL     1       5.312   6.695  18.192  0.00  0.00    +0.000 C 
ATOM      3  C   UNL     1       4.433   6.290  16.985  0.00  0.00    +0.000 C 
ATOM      4  N   UNL     1       3.789   4.960  17.164  0.00  0.00    +0.000 NA
ATOM      5  C   UNL     1       4.855   3.954  17.446  0.00  0.00    +0.000 C 
ATOM      6  C   UNL     1       5.616   4.296  18.741  0.00  0.00    +0.000 C 
ENDROOT
BRANCH   4   7
ATOM      7  S   UNL     1       2.442   4.875  18.216  0.00  0.00    +0.000 S 
ATOM      8  O   UNL     1       1.300   4.432  17.440  0.00  0.00    +0.000 OA
ATOM      9  O   UNL     1       2.840   4.166  19.415  0.00  0.00    +0.000 OA
BRANCH   7  10
ATOM     10  C   UNL     1       2.119   6.562  18.673  0.00  0.00    +0.000 A 
ATOM     11  C   UNL     1       1.837   7.502  17.674  0.00  0.00    +0.000 A 
ATOM     12  C   UNL     1       1.481   8.804  18.035  0.00  0.00    +0.000 A 
ATOM     13  C   UNL     1       1.403   9.156  19.384  0.00  0.00    +0.000 A 
ATOM     14 BR   UNL     1       0.891  10.911  19.867  0.00  0.00    +0.000 Br
ATOM     15  C   UNL     1       1.679   8.218  20.381  0.00  0.00    +0.000 A 
ATOM     16  C   UNL     1       2.041   6.917  20.027  0.00  0.00    +0.000 A 
ENDBRANCH   7  10
ENDBRANCH   4   7
BRANCH   1  17
ATOM     17  C   UNL     1       7.580   5.741  18.479  0.00  0.00    +0.000 C 
BRANCH  17  19
ATOM     18  N   UNL     1       8.538   7.968  18.923  0.00  0.00    +0.000 N 
ATOM     19  C   UNL     1       7.982   7.129  17.959  0.00  0.00    +0.000 C 
ATOM     20  O   UNL     1       7.847   7.416  16.768  0.00  0.00    +0.000 OA
ATOM     21  H   UNL     1       8.561   7.652  19.888  0.00  0.00    +0.000 HD
BRANCH  18  23
ATOM     22  C   UNL     1       9.163  10.086  19.497  0.00  0.00    +0.000 C 
ATOM     23  N   UNL     1       8.888   9.232  18.564  0.00  0.00    +0.000 NA
BRANCH  22  28
ATOM     24  C   UNL     1      11.162  14.356  17.064  0.00  0.00    +0.000 C 
ATOM     25  C   UNL     1      10.454  13.432  17.995  0.00  0.00    +0.000 A 
ATOM     26  C   UNL     1       9.715  13.759  19.112  0.00  0.00    +0.000 A 
ATOM     27  C   UNL     1       9.179  12.612  19.758  0.00  0.00    +0.000 A 
ATOM     28  C   UNL     1       9.525  11.436  19.120  0.00  0.00    +0.000 A 
ATOM     29  S   UNL     1      10.494  11.734  17.745  0.00  0.00    +0.000 S 
ENDBRANCH  22  28
ENDBRANCH  18  23
ENDBRANCH  17  19
ENDBRANCH   1  17
TORSDOF 6
ENDMDL
MODEL 5
REMARK VINA RESULT:      -6.8      5.452     11.253
REMARK  Name = 
REMARK  7 active torsions:
REMARK  status: ('A' for Active; 'I' for Inactive)
REMARK    1  A    between atoms: C_1  and  C_2
REMARK    2  A    between atoms: C_5  and  C_6
REMARK    3  A    between atoms: N_7  and  N_8
REMARK    4  A    between atoms: C_9  and  C_11
REMARK    5  A    between atoms: C_11  and  N_12
REMARK    6  A    between atoms: N_15  and  S_16
REMARK    7  A    between atoms: S_16  and  C_19
REMARK                            x       y       z     vdW  Elec       q    Type
REMARK                         _______ _______ _______ _____ _____    ______ ____
ROOT
ATOM      1  N   UNL     1       2.157   6.446  20.689  0.00  0.00    +0.000 NA
ATOM      2  C   UNL     1       2.084   4.974  20.862  0.00  0.00    +0.000 C 
ATOM      3  C   UNL     1       2.137   4.060  19.615  0.00  0.00    +0.000 C 
ATOM      4  N   UNL     1       3.118   4.530  18.600  0.00  0.00    +0.000 NA
ATOM      5  C   UNL     1       2.791   5.945  18.248  0.00  0.00    +0.000 C 
ATOM      6  C   UNL     1       2.898   6.864  19.480  0.00  0.00    +0.000 C 
ENDROOT
BRANCH   4   7
ATOM      7  S   UNL     1       4.775   4.247  18.918  0.00  0.00    +0.000 S 
ATOM      8  O   UNL     1       5.280   5.374  19.677  0.00  0.00    +0.000 OA
ATOM      9  O   UNL     1       4.922   2.896  19.418  0.00  0.00    +0.000 OA
BRANCH   7  10
ATOM     10  C   UNL     1       5.559   4.319  17.324  0.00  0.00    +0.000 A 
ATOM     11  C   UNL     1       4.808   4.037  16.177  0.00  0.00    +0.000 A 
ATOM     12  C   UNL     1       5.391   4.195  14.917  0.00  0.00    +0.000 A 
ATOM     13  C   UNL     1       6.711   4.635  14.812  0.00  0.00    +0.000 A 
ATOM     14 BR   UNL     1       7.487   4.875  13.103  0.00  0.00    +0.000 Br
ATOM     15  C   UNL     1       7.460   4.921  15.956  0.00  0.00    +0.000 A 
ATOM     16  C   UNL     1       6.885   4.761  17.217  0.00  0.00    +0.000 A 
ENDBRANCH   7  10
ENDBRANCH   4   7
BRANCH   1  17
ATOM     17  C   UNL     1       0.851   7.121  20.805  0.00  0.00    +0.000 C 
BRANCH  17  19
ATOM     18  N   UNL     1       0.469   9.409  19.972  0.00  0.00    +0.000 N 
ATOM     19  C   UNL     1       0.987   8.637  21.010  0.00  0.00    +0.000 C 
ATOM     20  O   UNL     1       1.479   9.088  22.046  0.00  0.00    +0.000 OA
ATOM     21  H   UNL     1       0.127   8.938  19.139  0.00  0.00    +0.000 HD
BRANCH  18  23
ATOM     22  C   UNL     1       0.519  11.449  18.952  0.00  0.00    +0.000 C 
ATOM     23  N   UNL     1       0.579  10.763  20.047  0.00  0.00    +0.000 NA
BRANCH  22  28
ATOM     24  C   UNL     1       2.246  16.395  19.793  0.00  0.00    +0.000 C 
ATOM     25  C   UNL     1       1.442  15.198  19.415  0.00  0.00    +0.000 A 
ATOM     26  C   UNL     1       0.188  15.167  18.843  0.00  0.00    +0.000 A 
ATOM     27  C   UNL     1      -0.269  13.840  18.618  0.00  0.00    +0.000 A 
ATOM     28  C   UNL     1       0.647  12.889  19.026  0.00  0.00    +0.000 A 
ATOM     29  S   UNL     1       2.051  13.614  19.677  0.00  0.00    +0.000 S 
ENDBRANCH  22  28
ENDBRANCH  18  23
ENDBRANCH  17  19
ENDBRANCH   1  17
TORSDOF 6
ENDMDL
MODEL 6
REMARK VINA RESULT:      -6.7      6.387      9.774
REMARK  Name = 
REMARK  7 active torsions:
REMARK  status: ('A' for Active; 'I' for Inactive)
REMARK    1  A    between atoms: C_1  and  C_2
REMARK    2  A    between atoms: C_5  and  C_6
REMARK    3  A    between atoms: N_7  and  N_8
REMARK    4  A    between atoms: C_9  and  C_11
REMARK    5  A    between atoms: C_11  and  N_12
REMARK    6  A    between atoms: N_15  and  S_16
REMARK    7  A    between atoms: S_16  and  C_19
REMARK                            x       y       z     vdW  Elec       q    Type
REMARK                         _______ _______ _______ _____ _____    ______ ____
ROOT
ATOM      1  N   UNL     1       6.172   5.586  18.934  0.00  0.00    +0.000 NA
ATOM      2  C   UNL     1       5.321   6.666  18.374  0.00  0.00    +0.000 C 
ATOM      3  C   UNL     1       4.442   6.373  17.135  0.00  0.00    +0.000 C 
ATOM      4  N   UNL     1       3.807   5.028  17.187  0.00  0.00    +0.000 NA
ATOM      5  C   UNL     1       4.881   4.006  17.369  0.00  0.00    +0.000 C 
ATOM      6  C   UNL     1       5.642   4.228  18.690  0.00  0.00    +0.000 C 
ENDROOT
BRANCH   4   7
ATOM      7  S   UNL     1       2.463   4.834  18.228  0.00  0.00    +0.000 S 
ATOM      8  O   UNL     1       1.374   4.280  17.447  0.00  0.00    +0.000 OA
ATOM      9  O   UNL     1       2.911   4.178  19.439  0.00  0.00    +0.000 OA
BRANCH   7  10
ATOM     10  C   UNL     1       1.984   6.490  18.659  0.00  0.00    +0.000 A 
ATOM     11  C   UNL     1       1.953   6.867  20.007  0.00  0.00    +0.000 A 
ATOM     12  C   UNL     1       1.680   8.195  20.344  0.00  0.00    +0.000 A 
ATOM     13  C   UNL     1       1.447   9.135  19.338  0.00  0.00    +0.000 A 
ATOM     14 BR   UNL     1       1.107  10.937  19.799  0.00  0.00    +0.000 Br
ATOM     15  C   UNL     1       1.483   8.761  17.993  0.00  0.00    +0.000 A 
ATOM     16  C   UNL     1       1.750   7.435  17.650  0.00  0.00    +0.000 A 
ENDBRANCH   7  10
ENDBRANCH   4   7
BRANCH   1  17
ATOM     17  C   UNL     1       7.596   5.704  18.566  0.00  0.00    +0.000 C 
BRANCH  17  19
ATOM     18  N   UNL     1       8.411   8.016  18.814  0.00  0.00    +0.000 N 
ATOM     19  C   UNL     1       7.928   7.059  17.924  0.00  0.00    +0.000 C 
ATOM     20  O   UNL     1       7.806   7.225  16.709  0.00  0.00    +0.000 OA
ATOM     21  H   UNL     1       8.429   7.794  19.806  0.00  0.00    +0.000 HD
BRANCH  18  23
ATOM     22  C   UNL     1       9.393  10.058  19.087  0.00  0.00    +0.000 C 
ATOM     23  N   UNL     1       8.695   9.261  18.344  0.00  0.00    +0.000 NA
BRANCH  22  28
ATOM     24  C   UNL     1       9.553  15.302  18.298  0.00  0.00    +0.000 C 
ATOM     25  C   UNL     1       9.769  13.829  18.218  0.00  0.00    +0.000 A 
ATOM     26  C   UNL     1      10.593  13.140  17.353  0.00  0.00    +0.000 A 
ATOM     27  C   UNL     1      10.548  11.736  17.571  0.00  0.00    +0.000 A 
ATOM     28  C   UNL     1       9.689  11.387  18.596  0.00  0.00    +0.000 A 
ATOM     29  S   UNL     1       8.946  12.764  19.283  0.00  0.00    +0.000 S 
ENDBRANCH  22  28
ENDBRANCH  18  23
ENDBRANCH  17  19
ENDBRANCH   1  17
TORSDOF 6
ENDMDL
MODEL 7
REMARK VINA RESULT:      -6.6      1.982      2.312
REMARK  Name = 
REMARK  7 active torsions:
REMARK  status: ('A' for Active; 'I' for Inactive)
REMARK    1  A    between atoms: C_1  and  C_2
REMARK    2  A    between atoms: C_5  and  C_6
REMARK    3  A    between atoms: N_7  and  N_8
REMARK    4  A    between atoms: C_9  and  C_11
REMARK    5  A    between atoms: C_11  and  N_12
REMARK    6  A    between atoms: N_15  and  S_16
REMARK    7  A    between atoms: S_16  and  C_19
REMARK                            x       y       z     vdW  Elec       q    Type
REMARK                         _______ _______ _______ _____ _____    ______ ____
ROOT
ATOM      1  N   UNL     1      -0.153  11.974  20.068  0.00  0.00    +0.000 NA
ATOM      2  C   UNL     1       0.731  12.976  20.714  0.00  0.00    +0.000 C 
ATOM      3  C   UNL     1       0.157  14.362  21.093  0.00  0.00    +0.000 C 
ATOM      4  N   UNL     1      -1.220  14.281  21.649  0.00  0.00    +0.000 NA
ATOM      5  C   UNL     1      -2.085  13.563  20.665  0.00  0.00    +0.000 C 
ATOM      6  C   UNL     1      -1.580  12.128  20.423  0.00  0.00    +0.000 C 
ENDROOT
BRANCH   4   7
ATOM      7  S   UNL     1      -1.385  13.735  23.263  0.00  0.00    +0.000 S 
ATOM      8  O   UNL     1      -1.032  12.330  23.294  0.00  0.00    +0.000 OA
ATOM      9  O   UNL     1      -0.724  14.682  24.137  0.00  0.00    +0.000 OA
BRANCH   7  10
ATOM     10  C   UNL     1      -3.129  13.827  23.594  0.00  0.00    +0.000 A 
ATOM     11  C   UNL     1      -3.786  15.057  23.479  0.00  0.00    +0.000 A 
ATOM     12  C   UNL     1      -5.173  15.113  23.635  0.00  0.00    +0.000 A 
ATOM     13  C   UNL     1      -5.892  13.946  23.897  0.00  0.00    +0.000 A 
ATOM     14 BR   UNL     1      -7.773  14.024  24.078  0.00  0.00    +0.000 Br
ATOM     15  C   UNL     1      -5.238  12.717  24.007  0.00  0.00    +0.000 A 
ATOM     16  C   UNL     1      -3.852  12.654  23.857  0.00  0.00    +0.000 A 
ENDBRANCH   7  10
ENDBRANCH   4   7
BRANCH   1  17
ATOM     17  C   UNL     1       0.050  11.858  18.612  0.00  0.00    +0.000 C 
BRANCH  17  19
ATOM     18  N   UNL     1       1.672  10.090  18.050  0.00  0.00    +0.000 N 
ATOM     19  C   UNL     1       0.322  10.412  18.169  0.00  0.00    +0.000 C 
ATOM     20  O   UNL     1      -0.609   9.626  17.991  0.00  0.00    +0.000 OA
ATOM     21  H   UNL     1       2.362  10.826  18.173  0.00  0.00    +0.000 HD
BRANCH  18  23
ATOM     22  C   UNL     1       2.705   8.087  18.414  0.00  0.00    +0.000 C 
ATOM     23  N   UNL     1       2.010   8.842  17.625  0.00  0.00    +0.000 NA
BRANCH  22  28
ATOM     24  C   UNL     1       5.258   3.907  16.375  0.00  0.00    +0.000 C 
ATOM     25  C   UNL     1       4.257   4.809  17.011  0.00  0.00    +0.000 A 
ATOM     26  C   UNL     1       3.006   4.481  17.489  0.00  0.00    +0.000 A 
ATOM     27  C   UNL     1       2.327   5.604  18.037  0.00  0.00    +0.000 A 
ATOM     28  C   UNL     1       3.076   6.763  17.961  0.00  0.00    +0.000 A 
ATOM     29  S   UNL     1       4.593   6.479  17.228  0.00  0.00    +0.000 S 
ENDBRANCH  22  28
ENDBRANCH  18  23
ENDBRANCH  17  19
ENDBRANCH   1  17
TORSDOF 6
ENDMDL
MODEL 8
REMARK VINA RESULT:      -6.6      5.477     10.590
REMARK  Name = 
REMARK  7 active torsions:
REMARK  status: ('A' for Active; 'I' for Inactive)
REMARK    1  A    between atoms: C_1  and  C_2
REMARK    2  A    between atoms: C_5  and  C_6
REMARK    3  A    between atoms: N_7  and  N_8
REMARK    4  A    between atoms: C_9  and  C_11
REMARK    5  A    between atoms: C_11  and  N_12
REMARK    6  A    between atoms: N_15  and  S_16
REMARK    7  A    between atoms: S_16  and  C_19
REMARK                            x       y       z     vdW  Elec       q    Type
REMARK                         _______ _______ _______ _____ _____    ______ ____
ROOT
ATOM      1  N   UNL     1       4.210   3.623  19.508  0.00  0.00    +0.000 NA
ATOM      2  C   UNL     1       4.220   3.036  18.144  0.00  0.00    +0.000 C 
ATOM      3  C   UNL     1       4.131   3.972  16.915  0.00  0.00    +0.000 C 
ATOM      4  N   UNL     1       4.940   5.210  17.078  0.00  0.00    +0.000 NA
ATOM      5  C   UNL     1       4.511   5.892  18.336  0.00  0.00    +0.000 C 
ATOM      6  C   UNL     1       4.755   4.996  19.565  0.00  0.00    +0.000 C 
ENDROOT
BRANCH   4   7
ATOM      7  S   UNL     1       6.636   5.072  16.892  0.00  0.00    +0.000 S 
ATOM      8  O   UNL     1       7.088   3.992  17.747  0.00  0.00    +0.000 OA
ATOM      9  O   UNL     1       6.944   5.074  15.478  0.00  0.00    +0.000 OA
BRANCH   7  10
ATOM     10  C   UNL     1       7.288   6.573  17.586  0.00  0.00    +0.000 A 
ATOM     11  C   UNL     1       8.074   6.510  18.742  0.00  0.00    +0.000 A 
ATOM     12  C   UNL     1       8.675   7.674  19.230  0.00  0.00    +0.000 A 
ATOM     13  C   UNL     1       8.493   8.885  18.560  0.00  0.00    +0.000 A 
ATOM     14 BR   UNL     1       9.332  10.451  19.207  0.00  0.00    +0.000 Br
ATOM     15  C   UNL     1       7.713   8.947  17.403  0.00  0.00    +0.000 A 
ATOM     16  C   UNL     1       7.106   7.790  16.913  0.00  0.00    +0.000 A 
ENDBRANCH   7  10
ENDBRANCH   4   7
BRANCH   1  17
ATOM     17  C   UNL     1       2.907   3.510  20.191  0.00  0.00    +0.000 C 
BRANCH  17  19
ATOM     18  N   UNL     1       2.111   5.719  20.939  0.00  0.00    +0.000 N 
ATOM     19  C   UNL     1       2.011   4.736  19.957  0.00  0.00    +0.000 C 
ATOM     20  O   UNL     1       1.314   4.818  18.945  0.00  0.00    +0.000 OA
ATOM     21  H   UNL     1       2.681   5.532  21.759  0.00  0.00    +0.000 HD
BRANCH  18  23
ATOM     22  C   UNL     1       1.811   7.877  20.261  0.00  0.00    +0.000 C 
ATOM     23  N   UNL     1       1.326   6.825  20.837  0.00  0.00    +0.000 NA
BRANCH  22  28
ATOM     24  C   UNL     1      -0.533  12.362  18.665  0.00  0.00    +0.000 C 
ATOM     25  C   UNL     1      -0.115  11.151  19.427  0.00  0.00    +0.000 A 
ATOM     26  C   UNL     1      -0.586  10.715  20.648  0.00  0.00    +0.000 A 
ATOM     27  C   UNL     1       0.044   9.512  21.069  0.00  0.00    +0.000 A 
ATOM     28  C   UNL     1       0.982   9.060  20.161  0.00  0.00    +0.000 A 
ATOM     29  S   UNL     1       1.089  10.097  18.807  0.00  0.00    +0.000 S 
ENDBRANCH  22  28
ENDBRANCH  18  23
ENDBRANCH  17  19
ENDBRANCH   1  17
TORSDOF 6
ENDMDL
MODEL 9
REMARK VINA RESULT:      -6.6      1.119      1.307
REMARK  Name = 
REMARK  7 active torsions:
REMARK  status: ('A' for Active; 'I' for Inactive)
REMARK    1  A    between atoms: C_1  and  C_2
REMARK    2  A    between atoms: C_5  and  C_6
REMARK    3  A    between atoms: N_7  and  N_8
REMARK    4  A    between atoms: C_9  and  C_11
REMARK    5  A    between atoms: C_11  and  N_12
REMARK    6  A    between atoms: N_15  and  S_16
REMARK    7  A    between atoms: S_16  and  C_19
REMARK                            x       y       z     vdW  Elec       q    Type
REMARK                         _______ _______ _______ _____ _____    ______ ____
ROOT
ATOM      1  N   UNL     1       0.339  11.192  20.024  0.00  0.00    +0.000 NA
ATOM      2  C   UNL     1       1.125  12.357  20.502  0.00  0.00    +0.000 C 
ATOM      3  C   UNL     1       0.437  13.738  20.622  0.00  0.00    +0.000 C 
ATOM      4  N   UNL     1      -0.948  13.645  21.158  0.00  0.00    +0.000 NA
ATOM      5  C   UNL     1      -1.724  12.703  20.297  0.00  0.00    +0.000 C 
ATOM      6  C   UNL     1      -1.106  11.292  20.319  0.00  0.00    +0.000 C 
ENDROOT
BRANCH   4   7
ATOM      7  S   UNL     1      -1.124  13.375  22.838  0.00  0.00    +0.000 S 
ATOM      8  O   UNL     1      -0.688  12.021  23.117  0.00  0.00    +0.000 OA
ATOM      9  O   UNL     1      -0.546  14.498  23.547  0.00  0.00    +0.000 OA
BRANCH   7  10
ATOM     10  C   UNL     1      -2.879  13.409  23.118  0.00  0.00    +0.000 A 
ATOM     11  C   UNL     1      -3.471  12.403  23.891  0.00  0.00    +0.000 A 
ATOM     12  C   UNL     1      -4.831  12.484  24.201  0.00  0.00    +0.000 A 
ATOM     13  C   UNL     1      -5.586  13.566  23.745  0.00  0.00    +0.000 A 
ATOM     14 BR   UNL     1      -7.420  13.685  24.191  0.00  0.00    +0.000 Br
ATOM     15  C   UNL     1      -4.995  14.573  22.978  0.00  0.00    +0.000 A 
ATOM     16  C   UNL     1      -3.638  14.496  22.660  0.00  0.00    +0.000 A 
ENDBRANCH   7  10
ENDBRANCH   4   7
BRANCH   1  17
ATOM     17  C   UNL     1       0.598  10.843  18.614  0.00  0.00    +0.000 C 
BRANCH  17  19
ATOM     18  N   UNL     1       1.485   8.742  19.547  0.00  0.00    +0.000 N 
ATOM     19  C   UNL     1       1.523   9.625  18.470  0.00  0.00    +0.000 C 
ATOM     20  O   UNL     1       2.189   9.461  17.447  0.00  0.00    +0.000 OA
ATOM     21  H   UNL     1       0.938   8.993  20.365  0.00  0.00    +0.000 HD
BRANCH  18  23
ATOM     22  C   UNL     1       1.964   6.642  18.792  0.00  0.00    +0.000 C 
ATOM     23  N   UNL     1       2.301   7.653  19.527  0.00  0.00    +0.000 NA
BRANCH  22  28
ATOM     24  C   UNL     1       4.488   2.130  19.985  0.00  0.00    +0.000 C 
ATOM     25  C   UNL     1       4.006   3.376  19.323  0.00  0.00    +0.000 A 
ATOM     26  C   UNL     1       4.404   3.898  18.111  0.00  0.00    +0.000 A 
ATOM     27  C   UNL     1       3.723   5.105  17.795  0.00  0.00    +0.000 A 
ATOM     28  C   UNL     1       2.823   5.477  18.776  0.00  0.00    +0.000 A 
ATOM     29  S   UNL     1       2.813   4.359  20.068  0.00  0.00    +0.000 S 
ENDBRANCH  22  28
ENDBRANCH  18  23
ENDBRANCH  17  19
ENDBRANCH   1  17
TORSDOF 6
ENDMDL
