MODEL 1
REMARK VINA RESULT:      -7.3      0.000      0.000
REMARK  Name = 
REMARK  8 active torsions:
REMARK  status: ('A' for Active; 'I' for Inactive)
REMARK    1  A    between atoms: C_1  and  O_2
REMARK    2  A    between atoms: O_2  and  C_3
REMARK    3  A    between atoms: C_5  and  C_6
REMARK    4  A    between atoms: C_7  and  O_8
REMARK    5  A    between atoms: O_8  and  C_9
REMARK    6  A    between atoms: C_11  and  C_12
REMARK    7  A    between atoms: C_14  and  O_15
REMARK    8  A    between atoms: C_17  and  O_18
REMARK                            x       y       z     vdW  Elec       q    Type
REMARK                         _______ _______ _______ _____ _____    ______ ____
ROOT
ATOM      1  C   UNL     1       7.804   7.635  17.610  0.00  0.00    +0.000 A 
ATOM      2  C   UNL     1       6.764   7.095  16.856  0.00  0.00    +0.000 A 
ATOM      3  C   UNL     1       6.042   5.964  17.267  0.00  0.00    +0.000 A 
ATOM      4  C   UNL     1       4.930   5.552  16.340  0.00  0.00    +0.000 C 
ATOM      5  C   UNL     1       6.434   5.306  18.454  0.00  0.00    +0.000 A 
ATOM      6  C   UNL     1       7.473   5.876  19.215  0.00  0.00    +0.000 A 
ATOM      7  C   UNL     1       8.149   7.022  18.811  0.00  0.00    +0.000 A 
ENDROOT
BRANCH   1   9
ATOM      8  C   UNL     1       8.572   9.787  18.225  0.00  0.00    +0.000 C 
ATOM      9  O   UNL     1       8.534   8.736  17.261  0.00  0.00    +0.000 OA
ENDBRANCH   1   9
BRANCH   6  10
ATOM     10  O   UNL     1       7.862   5.313  20.406  0.00  0.00    +0.000 OA
ATOM     11  H   UNL     1       7.044   5.081  20.881  0.00  0.00    +0.000 HD
ENDBRANCH   6  10
BRANCH   5  12
ATOM     12  O   UNL     1       5.885   4.181  19.040  0.00  0.00    +0.000 OA
BRANCH  12  13
ATOM     13  C   UNL     1       4.524   4.025  19.166  0.00  0.00    +0.000 A 
ATOM     14  C   UNL     1       3.678   5.010  19.652  0.00  0.00    +0.000 A 
ATOM     15  C   UNL     1       2.363   4.713  20.007  0.00  0.00    +0.000 A 
ATOM     16  C   UNL     1       1.536   5.672  20.817  0.00  0.00    +0.000 C 
ATOM     17  C   UNL     1       1.832   3.456  19.667  0.00  0.00    +0.000 A 
ATOM     18  C   UNL     1       2.654   2.523  19.032  0.00  0.00    +0.000 A 
ATOM     19  C   UNL     1       3.996   2.785  18.789  0.00  0.00    +0.000 A 
BRANCH  18  20
ATOM     20  O   UNL     1       2.167   1.296  18.681  0.00  0.00    +0.000 OA
ATOM     21  H   UNL     1       2.207   1.209  17.714  0.00  0.00    +0.000 HD
ENDBRANCH  18  20
ENDBRANCH  12  13
ENDBRANCH   5  12
TORSDOF 5
ENDMDL
MODEL 2
REMARK VINA RESULT:      -7.2      2.095      3.217
REMARK  Name = 
REMARK  8 active torsions:
REMARK  status: ('A' for Active; 'I' for Inactive)
REMARK    1  A    between atoms: C_1  and  O_2
REMARK    2  A    between atoms: O_2  and  C_3
REMARK    3  A    between atoms: C_5  and  C_6
REMARK    4  A    between atoms: C_7  and  O_8
REMARK    5  A    between atoms: O_8  and  C_9
REMARK    6  A    between atoms: C_11  and  C_12
REMARK    7  A    between atoms: C_14  and  O_15
REMARK    8  A    between atoms: C_17  and  O_18
REMARK                            x       y       z     vdW  Elec       q    Type
REMARK                         _______ _______ _______ _____ _____    ______ ____
ROOT
ATOM      1  C   UNL     1       7.013   5.135  15.861  0.00  0.00    +0.000 A 
ATOM      2  C   UNL     1       7.460   5.626  17.086  0.00  0.00    +0.000 A 
ATOM      3  C   UNL     1       6.913   5.213  18.311  0.00  0.00    +0.000 A 
ATOM      4  C   UNL     1       7.552   5.826  19.528  0.00  0.00    +0.000 C 
ATOM      5  C   UNL     1       5.817   4.321  18.295  0.00  0.00    +0.000 A 
ATOM      6  C   UNL     1       5.391   3.818  17.051  0.00  0.00    +0.000 A 
ATOM      7  C   UNL     1       5.975   4.208  15.851  0.00  0.00    +0.000 A 
ENDROOT
BRANCH   1   9
ATOM      8  C   UNL     1       7.078   4.711  13.535  0.00  0.00    +0.000 C 
ATOM      9  O   UNL     1       7.514   5.496  14.643  0.00  0.00    +0.000 OA
ENDBRANCH   1   9
BRANCH   6  10
ATOM     10  O   UNL     1       4.367   2.905  16.976  0.00  0.00    +0.000 OA
ATOM     11  H   UNL     1       3.563   3.370  17.268  0.00  0.00    +0.000 HD
ENDBRANCH   6  10
BRANCH   5  12
ATOM     12  O   UNL     1       5.118   3.793  19.364  0.00  0.00    +0.000 OA
BRANCH  12  13
ATOM     13  C   UNL     1       3.858   4.236  19.691  0.00  0.00    +0.000 A 
ATOM     14  C   UNL     1       3.433   5.545  19.519  0.00  0.00    +0.000 A 
ATOM     15  C   UNL     1       2.253   5.998  20.108  0.00  0.00    +0.000 A 
ATOM     16  C   UNL     1       1.938   7.465  20.199  0.00  0.00    +0.000 C 
ATOM     17  C   UNL     1       1.383   5.064  20.697  0.00  0.00    +0.000 A 
ATOM     18  C   UNL     1       1.751   3.718  20.724  0.00  0.00    +0.000 A 
ATOM     19  C   UNL     1       2.983   3.293  20.241  0.00  0.00    +0.000 A 
BRANCH  18  20
ATOM     20  O   UNL     1       0.925   2.784  21.282  0.00  0.00    +0.000 OA
ATOM     21  H   UNL     1       1.399   2.337  22.002  0.00  0.00    +0.000 HD
ENDBRANCH  18  20
ENDBRANCH  12  13
ENDBRANCH   5  12
TORSDOF 5
ENDMDL
MODEL 3
REMARK VINA RESULT:      -7.2      1.353      2.033
REMARK  Name = 
REMARK  8 active torsions:
REMARK  status: ('A' for Active; 'I' for Inactive)
REMARK    1  A    between atoms: C_1  and  O_2
REMARK    2  A    between atoms: O_2  and  C_3
REMARK    3  A    between atoms: C_5  and  C_6
REMARK    4  A    between atoms: C_7  and  O_8
REMARK    5  A    between atoms: O_8  and  C_9
REMARK    6  A    between atoms: C_11  and  C_12
REMARK    7  A    between atoms: C_14  and  O_15
REMARK    8  A    between atoms: C_17  and  O_18
REMARK                            x       y       z     vdW  Elec       q    Type
REMARK                         _______ _______ _______ _____ _____    ______ ____
ROOT
ATOM      1  C   UNL     1       7.458   7.126  17.411  0.00  0.00    +0.000 A 
ATOM      2  C   UNL     1       6.480   6.503  16.639  0.00  0.00    +0.000 A 
ATOM      3  C   UNL     1       5.721   5.421  17.110  0.00  0.00    +0.000 A 
ATOM      4  C   UNL     1       4.687   4.906  16.146  0.00  0.00    +0.000 C 
ATOM      5  C   UNL     1       6.012   4.898  18.391  0.00  0.00    +0.000 A 
ATOM      6  C   UNL     1       6.988   5.552  19.167  0.00  0.00    +0.000 A 
ATOM      7  C   UNL     1       7.700   6.649  18.696  0.00  0.00    +0.000 A 
ENDROOT
BRANCH   1   9
ATOM      8  C   UNL     1       8.332   9.262  17.935  0.00  0.00    +0.000 C 
ATOM      9  O   UNL     1       8.220   8.186  17.006  0.00  0.00    +0.000 OA
ENDBRANCH   1   9
BRANCH   6  10
ATOM     10  O   UNL     1       7.276   5.124  20.440  0.00  0.00    +0.000 OA
ATOM     11  H   UNL     1       6.447   5.192  20.947  0.00  0.00    +0.000 HD
ENDBRANCH   6  10
BRANCH   5  12
ATOM     12  O   UNL     1       5.411   3.842  19.049  0.00  0.00    +0.000 OA
BRANCH  12  13
ATOM     13  C   UNL     1       4.089   3.885  19.424  0.00  0.00    +0.000 A 
ATOM     14  C   UNL     1       3.189   2.854  19.194  0.00  0.00    +0.000 A 
ATOM     15  C   UNL     1       1.818   3.052  19.349  0.00  0.00    +0.000 A 
ATOM     16  C   UNL     1       0.820   2.065  18.812  0.00  0.00    +0.000 C 
ATOM     17  C   UNL     1       1.365   4.240  19.951  0.00  0.00    +0.000 A 
ATOM     18  C   UNL     1       2.297   5.209  20.324  0.00  0.00    +0.000 A 
ATOM     19  C   UNL     1       3.651   5.054  20.057  0.00  0.00    +0.000 A 
BRANCH  18  20
ATOM     20  O   UNL     1       1.890   6.370  20.918  0.00  0.00    +0.000 OA
ATOM     21  H   UNL     1       1.109   6.705  20.448  0.00  0.00    +0.000 HD
ENDBRANCH  18  20
ENDBRANCH  12  13
ENDBRANCH   5  12
TORSDOF 5
ENDMDL
MODEL 4
REMARK VINA RESULT:      -7.1      2.228      2.847
REMARK  Name = 
REMARK  8 active torsions:
REMARK  status: ('A' for Active; 'I' for Inactive)
REMARK    1  A    between atoms: C_1  and  O_2
REMARK    2  A    between atoms: O_2  and  C_3
REMARK    3  A    between atoms: C_5  and  C_6
REMARK    4  A    between atoms: C_7  and  O_8
REMARK    5  A    between atoms: O_8  and  C_9
REMARK    6  A    between atoms: C_11  and  C_12
REMARK    7  A    between atoms: C_14  and  O_15
REMARK    8  A    between atoms: C_17  and  O_18
REMARK                            x       y       z     vdW  Elec       q    Type
REMARK                         _______ _______ _______ _____ _____    ______ ____
ROOT
ATOM      1  C   UNL     1       6.850   4.876  15.766  0.00  0.00    +0.000 A 
ATOM      2  C   UNL     1       5.589   4.285  15.725  0.00  0.00    +0.000 A 
ATOM      3  C   UNL     1       4.861   3.978  16.884  0.00  0.00    +0.000 A 
ATOM      4  C   UNL     1       3.502   3.380  16.637  0.00  0.00    +0.000 C 
ATOM      5  C   UNL     1       5.463   4.208  18.142  0.00  0.00    +0.000 A 
ATOM      6  C   UNL     1       6.728   4.824  18.166  0.00  0.00    +0.000 A 
ATOM      7  C   UNL     1       7.416   5.159  17.006  0.00  0.00    +0.000 A 
ENDROOT
BRANCH   1   9
ATOM      8  C   UNL     1       7.107   4.729  13.418  0.00  0.00    +0.000 C 
ATOM      9  O   UNL     1       7.599   5.203  14.670  0.00  0.00    +0.000 OA
ENDBRANCH   1   9
BRANCH   6  10
ATOM     10  O   UNL     1       7.341   5.123  19.360  0.00  0.00    +0.000 OA
ATOM     11  H   UNL     1       6.989   4.494  20.014  0.00  0.00    +0.000 HD
ENDBRANCH   6  10
BRANCH   5  12
ATOM     12  O   UNL     1       4.947   3.974  19.402  0.00  0.00    +0.000 OA
BRANCH  12  13
ATOM     13  C   UNL     1       3.685   4.394  19.754  0.00  0.00    +0.000 A 
ATOM     14  C   UNL     1       3.250   5.706  19.637  0.00  0.00    +0.000 A 
ATOM     15  C   UNL     1       2.071   6.126  20.250  0.00  0.00    +0.000 A 
ATOM     16  C   UNL     1       1.746   7.586  20.401  0.00  0.00    +0.000 C 
ATOM     17  C   UNL     1       1.212   5.163  20.808  0.00  0.00    +0.000 A 
ATOM     18  C   UNL     1       1.590   3.820  20.780  0.00  0.00    +0.000 A 
ATOM     19  C   UNL     1       2.821   3.423  20.273  0.00  0.00    +0.000 A 
BRANCH  18  20
ATOM     20  O   UNL     1       0.774   2.858  21.306  0.00  0.00    +0.000 OA
ATOM     21  H   UNL     1       0.952   2.783  22.258  0.00  0.00    +0.000 HD
ENDBRANCH  18  20
ENDBRANCH  12  13
ENDBRANCH   5  12
TORSDOF 5
ENDMDL
MODEL 5
REMARK VINA RESULT:      -7.1      2.426      3.483
REMARK  Name = 
REMARK  8 active torsions:
REMARK  status: ('A' for Active; 'I' for Inactive)
REMARK    1  A    between atoms: C_1  and  O_2
REMARK    2  A    between atoms: O_2  and  C_3
REMARK    3  A    between atoms: C_5  and  C_6
REMARK    4  A    between atoms: C_7  and  O_8
REMARK    5  A    between atoms: O_8  and  C_9
REMARK    6  A    between atoms: C_11  and  C_12
REMARK    7  A    between atoms: C_14  and  O_15
REMARK    8  A    between atoms: C_17  and  O_18
REMARK                            x       y       z     vdW  Elec       q    Type
REMARK                         _______ _______ _______ _____ _____    ______ ____
ROOT
ATOM      1  C   UNL     1       6.560   4.746  15.169  0.00  0.00    +0.000 A 
ATOM      2  C   UNL     1       5.277   4.253  15.398  0.00  0.00    +0.000 A 
ATOM      3  C   UNL     1       4.793   3.975  16.686  0.00  0.00    +0.000 A 
ATOM      4  C   UNL     1       3.371   3.487  16.735  0.00  0.00    +0.000 C 
ATOM      5  C   UNL     1       5.668   4.130  17.785  0.00  0.00    +0.000 A 
ATOM      6  C   UNL     1       6.954   4.649  17.539  0.00  0.00    +0.000 A 
ATOM      7  C   UNL     1       7.400   4.958  16.259  0.00  0.00    +0.000 A 
ENDROOT
BRANCH   1   9
ATOM      8  C   UNL     1       6.768   4.118  12.898  0.00  0.00    +0.000 C 
ATOM      9  O   UNL     1       7.078   5.041  13.940  0.00  0.00    +0.000 OA
ENDBRANCH   1   9
BRANCH   6  10
ATOM     10  O   UNL     1       7.830   4.874  18.574  0.00  0.00    +0.000 OA
ATOM     11  H   UNL     1       8.283   5.712  18.372  0.00  0.00    +0.000 HD
ENDBRANCH   6  10
BRANCH   5  12
ATOM     12  O   UNL     1       5.418   3.907  19.126  0.00  0.00    +0.000 OA
BRANCH  12  13
ATOM     13  C   UNL     1       4.234   4.287  19.712  0.00  0.00    +0.000 A 
ATOM     14  C   UNL     1       3.423   3.427  20.437  0.00  0.00    +0.000 A 
ATOM     15  C   UNL     1       2.120   3.788  20.777  0.00  0.00    +0.000 A 
ATOM     16  C   UNL     1       1.133   2.771  21.278  0.00  0.00    +0.000 C 
ATOM     17  C   UNL     1       1.704   5.115  20.570  0.00  0.00    +0.000 A 
ATOM     18  C   UNL     1       2.589   6.018  19.980  0.00  0.00    +0.000 A 
ATOM     19  C   UNL     1       3.844   5.619  19.535  0.00  0.00    +0.000 A 
BRANCH  18  20
ATOM     20  O   UNL     1       2.219   7.317  19.772  0.00  0.00    +0.000 OA
ATOM     21  H   UNL     1       3.011   7.878  19.811  0.00  0.00    +0.000 HD
ENDBRANCH  18  20
ENDBRANCH  12  13
ENDBRANCH   5  12
TORSDOF 5
ENDMDL
MODEL 6
REMARK VINA RESULT:      -7.0      1.218      1.491
REMARK  Name = 
REMARK  8 active torsions:
REMARK  status: ('A' for Active; 'I' for Inactive)
REMARK    1  A    between atoms: C_1  and  O_2
REMARK    2  A    between atoms: O_2  and  C_3
REMARK    3  A    between atoms: C_5  and  C_6
REMARK    4  A    between atoms: C_7  and  O_8
REMARK    5  A    between atoms: O_8  and  C_9
REMARK    6  A    between atoms: C_11  and  C_12
REMARK    7  A    between atoms: C_14  and  O_15
REMARK    8  A    between atoms: C_17  and  O_18
REMARK                            x       y       z     vdW  Elec       q    Type
REMARK                         _______ _______ _______ _____ _____    ______ ____
ROOT
ATOM      1  C   UNL     1       7.460   6.905  18.121  0.00  0.00    +0.000 A 
ATOM      2  C   UNL     1       6.652   7.207  17.027  0.00  0.00    +0.000 A 
ATOM      3  C   UNL     1       5.604   6.374  16.608  0.00  0.00    +0.000 A 
ATOM      4  C   UNL     1       4.819   6.887  15.432  0.00  0.00    +0.000 C 
ATOM      5  C   UNL     1       5.408   5.145  17.278  0.00  0.00    +0.000 A 
ATOM      6  C   UNL     1       6.219   4.864  18.395  0.00  0.00    +0.000 A 
ATOM      7  C   UNL     1       7.226   5.723  18.819  0.00  0.00    +0.000 A 
ENDROOT
BRANCH   1   9
ATOM      8  C   UNL     1       8.437   9.058  18.203  0.00  0.00    +0.000 C 
ATOM      9  O   UNL     1       8.488   7.682  18.575  0.00  0.00    +0.000 OA
ENDBRANCH   1   9
BRANCH   6  10
ATOM     10  O   UNL     1       6.040   3.711  19.120  0.00  0.00    +0.000 OA
ATOM     11  H   UNL     1       6.532   3.831  19.952  0.00  0.00    +0.000 HD
ENDBRANCH   6  10
BRANCH   5  12
ATOM     12  O   UNL     1       4.458   4.171  17.036  0.00  0.00    +0.000 OA
BRANCH  12  13
ATOM     13  C   UNL     1       3.313   4.077  17.792  0.00  0.00    +0.000 A 
ATOM     14  C   UNL     1       2.854   5.088  18.624  0.00  0.00    +0.000 A 
ATOM     15  C   UNL     1       1.850   4.844  19.559  0.00  0.00    +0.000 A 
ATOM     16  C   UNL     1       1.561   5.819  20.667  0.00  0.00    +0.000 C 
ATOM     17  C   UNL     1       1.152   3.625  19.509  0.00  0.00    +0.000 A 
ATOM     18  C   UNL     1       1.521   2.671  18.558  0.00  0.00    +0.000 A 
ATOM     19  C   UNL     1       2.601   2.875  17.708  0.00  0.00    +0.000 A 
BRANCH  18  20
ATOM     20  O   UNL     1       0.858   1.480  18.477  0.00  0.00    +0.000 OA
ATOM     21  H   UNL     1       0.341   1.465  17.655  0.00  0.00    +0.000 HD
ENDBRANCH  18  20
ENDBRANCH  12  13
ENDBRANCH   5  12
TORSDOF 5
ENDMDL
MODEL 7
REMARK VINA RESULT:      -7.0      2.286      3.722
REMARK  Name = 
REMARK  8 active torsions:
REMARK  status: ('A' for Active; 'I' for Inactive)
REMARK    1  A    between atoms: C_1  and  O_2
REMARK    2  A    between atoms: O_2  and  C_3
REMARK    3  A    between atoms: C_5  and  C_6
REMARK    4  A    between atoms: C_7  and  O_8
REMARK    5  A    between atoms: O_8  and  C_9
REMARK    6  A    between atoms: C_11  and  C_12
REMARK    7  A    between atoms: C_14  and  O_15
REMARK    8  A    between atoms: C_17  and  O_18
REMARK                            x       y       z     vdW  Elec       q    Type
REMARK                         _______ _______ _______ _____ _____    ______ ____
ROOT
ATOM      1  C   UNL     1       6.728   4.981  15.343  0.00  0.00    +0.000 A 
ATOM      2  C   UNL     1       7.296   5.669  16.414  0.00  0.00    +0.000 A 
ATOM      3  C   UNL     1       6.975   5.385  17.750  0.00  0.00    +0.000 A 
ATOM      4  C   UNL     1       7.720   6.207  18.767  0.00  0.00    +0.000 C 
ATOM      5  C   UNL     1       5.983   4.414  18.016  0.00  0.00    +0.000 A 
ATOM      6  C   UNL     1       5.435   3.713  16.925  0.00  0.00    +0.000 A 
ATOM      7  C   UNL     1       5.796   3.981  15.610  0.00  0.00    +0.000 A 
ENDROOT
BRANCH   1   9
ATOM      8  C   UNL     1       6.646   4.168  13.123  0.00  0.00    +0.000 C 
ATOM      9  O   UNL     1       7.008   5.210  14.026  0.00  0.00    +0.000 OA
ENDBRANCH   1   9
BRANCH   6  10
ATOM     10  O   UNL     1       4.506   2.719  17.124  0.00  0.00    +0.000 OA
ATOM     11  H   UNL     1       4.955   1.880  16.919  0.00  0.00    +0.000 HD
ENDBRANCH   6  10
BRANCH   5  12
ATOM     12  O   UNL     1       5.502   3.983  19.237  0.00  0.00    +0.000 OA
BRANCH  12  13
ATOM     13  C   UNL     1       4.271   4.376  19.707  0.00  0.00    +0.000 A 
ATOM     14  C   UNL     1       3.406   3.536  20.394  0.00  0.00    +0.000 A 
ATOM     15  C   UNL     1       2.077   3.899  20.609  0.00  0.00    +0.000 A 
ATOM     16  C   UNL     1       1.057   2.893  21.064  0.00  0.00    +0.000 C 
ATOM     17  C   UNL     1       1.673   5.213  20.317  0.00  0.00    +0.000 A 
ATOM     18  C   UNL     1       2.600   6.101  19.768  0.00  0.00    +0.000 A 
ATOM     19  C   UNL     1       3.889   5.697  19.447  0.00  0.00    +0.000 A 
BRANCH  18  20
ATOM     20  O   UNL     1       2.242   7.388  19.480  0.00  0.00    +0.000 OA
ATOM     21  H   UNL     1       1.937   7.429  18.558  0.00  0.00    +0.000 HD
ENDBRANCH  18  20
ENDBRANCH  12  13
ENDBRANCH   5  12
TORSDOF 5
ENDMDL
MODEL 8
REMARK VINA RESULT:      -7.0      1.784      6.230
REMARK  Name = 
REMARK  8 active torsions:
REMARK  status: ('A' for Active; 'I' for Inactive)
REMARK    1  A    between atoms: C_1  and  O_2
REMARK    2  A    between atoms: O_2  and  C_3
REMARK    3  A    between atoms: C_5  and  C_6
REMARK    4  A    between atoms: C_7  and  O_8
REMARK    5  A    between atoms: O_8  and  C_9
REMARK    6  A    between atoms: C_11  and  C_12
REMARK    7  A    between atoms: C_14  and  O_15
REMARK    8  A    between atoms: C_17  and  O_18
REMARK                            x       y       z     vdW  Elec       q    Type
REMARK                         _______ _______ _______ _____ _____    ______ ____
ROOT
ATOM      1  C   UNL     1       2.479   3.052  18.006  0.00  0.00    +0.000 A 
ATOM      2  C   UNL     1       2.296   4.416  18.228  0.00  0.00    +0.000 A 
ATOM      3  C   UNL     1       3.207   5.383  17.778  0.00  0.00    +0.000 A 
ATOM      4  C   UNL     1       2.820   6.806  18.079  0.00  0.00    +0.000 C 
ATOM      5  C   UNL     1       4.392   4.951  17.140  0.00  0.00    +0.000 A 
ATOM      6  C   UNL     1       4.552   3.572  16.904  0.00  0.00    +0.000 A 
ATOM      7  C   UNL     1       3.616   2.632  17.322  0.00  0.00    +0.000 A 
ENDROOT
BRANCH   1   9
ATOM      8  C   UNL     1       0.505   2.503  19.190  0.00  0.00    +0.000 C 
ATOM      9  O   UNL     1       1.621   2.070  18.414  0.00  0.00    +0.000 OA
ENDBRANCH   1   9
BRANCH   6  10
ATOM     10  O   UNL     1       5.656   3.096  16.240  0.00  0.00    +0.000 OA
ATOM     11  H   UNL     1       5.500   3.263  15.293  0.00  0.00    +0.000 HD
ENDBRANCH   6  10
BRANCH   5  12
ATOM     12  O   UNL     1       5.426   5.713  16.630  0.00  0.00    +0.000 OA
BRANCH  12  13
ATOM     13  C   UNL     1       6.344   6.326  17.451  0.00  0.00    +0.000 A 
ATOM     14  C   UNL     1       6.702   7.662  17.344  0.00  0.00    +0.000 A 
ATOM     15  C   UNL     1       7.817   8.160  18.015  0.00  0.00    +0.000 A 
ATOM     16  C   UNL     1       8.400   9.503  17.673  0.00  0.00    +0.000 C 
ATOM     17  C   UNL     1       8.453   7.352  18.974  0.00  0.00    +0.000 A 
ATOM     18  C   UNL     1       7.983   6.055  19.187  0.00  0.00    +0.000 A 
ATOM     19  C   UNL     1       6.945   5.526  18.430  0.00  0.00    +0.000 A 
BRANCH  18  20
ATOM     20  O   UNL     1       8.573   5.247  20.118  0.00  0.00    +0.000 OA
ATOM     21  H   UNL     1       9.502   5.513  20.218  0.00  0.00    +0.000 HD
ENDBRANCH  18  20
ENDBRANCH  12  13
ENDBRANCH   5  12
TORSDOF 5
ENDMDL
MODEL 9
REMARK VINA RESULT:      -7.0      2.486      3.030
REMARK  Name = 
REMARK  8 active torsions:
REMARK  status: ('A' for Active; 'I' for Inactive)
REMARK    1  A    between atoms: C_1  and  O_2
REMARK    2  A    between atoms: O_2  and  C_3
REMARK    3  A    between atoms: C_5  and  C_6
REMARK    4  A    between atoms: C_7  and  O_8
REMARK    5  A    between atoms: O_8  and  C_9
REMARK    6  A    between atoms: C_11  and  C_12
REMARK    7  A    between atoms: C_14  and  O_15
REMARK    8  A    between atoms: C_17  and  O_18
REMARK                            x       y       z     vdW  Elec       q    Type
REMARK                         _______ _______ _______ _____ _____    ______ ____
ROOT
ATOM      1  C   UNL     1       6.158   5.602  15.841  0.00  0.00    +0.000 A 
ATOM      2  C   UNL     1       5.203   6.583  16.103  0.00  0.00    +0.000 A 
ATOM      3  C   UNL     1       4.512   6.657  17.322  0.00  0.00    +0.000 A 
ATOM      4  C   UNL     1       3.549   7.808  17.434  0.00  0.00    +0.000 C 
ATOM      5  C   UNL     1       4.741   5.655  18.292  0.00  0.00    +0.000 A 
ATOM      6  C   UNL     1       5.724   4.684  18.020  0.00  0.00    +0.000 A 
ATOM      7  C   UNL     1       6.428   4.652  16.821  0.00  0.00    +0.000 A 
ENDROOT
BRANCH   1   9
ATOM      8  C   UNL     1       6.585   4.329  13.893  0.00  0.00    +0.000 C 
ATOM      9  O   UNL     1       6.864   5.488  14.677  0.00  0.00    +0.000 OA
ENDBRANCH   1   9
BRANCH   6  10
ATOM     10  O   UNL     1       6.030   3.716  18.946  0.00  0.00    +0.000 OA
ATOM     11  H   UNL     1       6.008   4.152  19.817  0.00  0.00    +0.000 HD
ENDBRANCH   6  10
BRANCH   5  12
ATOM     12  O   UNL     1       4.174   5.519  19.545  0.00  0.00    +0.000 OA
BRANCH  12  13
ATOM     13  C   UNL     1       3.031   4.780  19.743  0.00  0.00    +0.000 A 
ATOM     14  C   UNL     1       2.669   4.236  20.967  0.00  0.00    +0.000 A 
ATOM     15  C   UNL     1       1.656   3.283  21.055  0.00  0.00    +0.000 A 
ATOM     16  C   UNL     1       1.461   2.462  22.299  0.00  0.00    +0.000 C 
ATOM     17  C   UNL     1       0.855   3.033  19.926  0.00  0.00    +0.000 A 
ATOM     18  C   UNL     1       1.132   3.707  18.736  0.00  0.00    +0.000 A 
ATOM     19  C   UNL     1       2.218   4.567  18.625  0.00  0.00    +0.000 A 
BRANCH  18  20
ATOM     20  O   UNL     1       0.368   3.493  17.623  0.00  0.00    +0.000 OA
ATOM     21  H   UNL     1       0.755   3.984  16.879  0.00  0.00    +0.000 HD
ENDBRANCH  18  20
ENDBRANCH  12  13
ENDBRANCH   5  12
TORSDOF 5
ENDMDL
