MODEL 1
REMARK VINA RESULT:      -5.5      0.000      0.000
REMARK  Name = 
REMARK  5 active torsions:
REMARK  status: ('A' for Active; 'I' for Inactive)
REMARK    1  A    between atoms: N_7  and  C_8
REMARK    2  A    between atoms: C_8  and  C_9
REMARK    3  A    between atoms: C_9  and  C_10
REMARK    4  A    between atoms: C_10  and  C_11
REMARK    5  A    between atoms: C_11  and  N_12
REMARK                            x       y       z     vdW  Elec       q    Type
REMARK                         _______ _______ _______ _____ _____    ______ ____
ROOT
ATOM      1  N   UNL     1       7.921   4.179  17.243  0.00  0.00    +0.000 NA
ATOM      2  C   UNL     1       7.109   4.837  16.492  0.00  0.00    +0.000 C 
ATOM      3  N   UNL     1       7.515   5.225  15.187  0.00  0.00    +0.000 N 
ATOM      4  N   UNL     1       5.792   5.173  16.944  0.00  0.00    +0.000 N 
ATOM      5  C   UNL     1       5.278   4.840  18.166  0.00  0.00    +0.000 C 
ATOM      6  O   UNL     1       5.947   4.202  18.970  0.00  0.00    +0.000 OA
ATOM      7  N   UNL     1       4.010   5.215  18.491  0.00  0.00    +0.000 N 
ATOM      8  H   UNL     1       8.867   3.925  16.925  0.00  0.00    +0.000 HD
ATOM      9  H   UNL     1       8.453   4.985  14.835  0.00  0.00    +0.000 HD
ATOM     10  H   UNL     1       6.871   5.740  14.571  0.00  0.00    +0.000 HD
ATOM     11  H   UNL     1       5.192   5.700  16.292  0.00  0.00    +0.000 HD
ATOM     12  H   UNL     1       3.465   5.756  17.806  0.00  0.00    +0.000 HD
ENDROOT
BRANCH   7  13
ATOM     13  C   UNL     1       3.419   4.874  19.776  0.00  0.00    +0.000 C 
BRANCH  13  14
ATOM     14  C   UNL     1       1.897   4.695  19.682  0.00  0.00    +0.000 C 
BRANCH  14  15
ATOM     15  C   UNL     1       1.477   3.973  18.391  0.00  0.00    +0.000 C 
BRANCH  15  16
ATOM     16  C   UNL     1       1.090   2.520  18.671  0.00  0.00    +0.000 C 
BRANCH  16  17
ATOM     17  N   UNL     1       2.190   1.630  18.313  0.00  0.00    +0.000 NA
ATOM     18  H   UNL     1       3.046   2.204  18.129  0.00  0.00    +0.000 HD
ATOM     19  H   UNL     1       1.944   1.138  17.425  0.00  0.00    +0.000 HD
ENDBRANCH  16  17
ENDBRANCH  15  16
ENDBRANCH  14  15
ENDBRANCH  13  14
ENDBRANCH   7  13
TORSDOF 5
ENDMDL
MODEL 2
REMARK VINA RESULT:      -5.4      1.877      2.182
REMARK  Name = 
REMARK  5 active torsions:
REMARK  status: ('A' for Active; 'I' for Inactive)
REMARK    1  A    between atoms: N_7  and  C_8
REMARK    2  A    between atoms: C_8  and  C_9
REMARK    3  A    between atoms: C_9  and  C_10
REMARK    4  A    between atoms: C_10  and  C_11
REMARK    5  A    between atoms: C_11  and  N_12
REMARK                            x       y       z     vdW  Elec       q    Type
REMARK                         _______ _______ _______ _____ _____    ______ ____
ROOT
ATOM      1  N   UNL     1       6.992   4.759  18.857  0.00  0.00    +0.000 NA
ATOM      2  C   UNL     1       6.765   4.434  17.632  0.00  0.00    +0.000 C 
ATOM      3  N   UNL     1       7.759   4.670  16.646  0.00  0.00    +0.000 N 
ATOM      4  N   UNL     1       5.527   3.824  17.247  0.00  0.00    +0.000 N 
ATOM      5  C   UNL     1       4.504   3.528  18.103  0.00  0.00    +0.000 C 
ATOM      6  O   UNL     1       4.600   3.776  19.299  0.00  0.00    +0.000 OA
ATOM      7  N   UNL     1       3.369   2.948  17.624  0.00  0.00    +0.000 N 
ATOM      8  H   UNL     1       7.881   5.190  19.146  0.00  0.00    +0.000 HD
ATOM      9  H   UNL     1       8.662   5.098  16.900  0.00  0.00    +0.000 HD
ATOM     10  H   UNL     1       7.596   4.404  15.665  0.00  0.00    +0.000 HD
ATOM     11  H   UNL     1       5.411   3.589  16.250  0.00  0.00    +0.000 HD
ATOM     12  H   UNL     1       3.302   2.752  16.616  0.00  0.00    +0.000 HD
ENDROOT
BRANCH   7  13
ATOM     13  C   UNL     1       2.259   2.606  18.500  0.00  0.00    +0.000 C 
BRANCH  13  14
ATOM     14  C   UNL     1       1.351   3.812  18.779  0.00  0.00    +0.000 C 
BRANCH  14  15
ATOM     15  C   UNL     1       0.934   3.895  20.256  0.00  0.00    +0.000 C 
BRANCH  15  16
ATOM     16  C   UNL     1       1.460   2.696  21.048  0.00  0.00    +0.000 C 
BRANCH  16  17
ATOM     17  N   UNL     1       2.322   3.152  22.134  0.00  0.00    +0.000 NA
ATOM     18  H   UNL     1       1.939   4.046  22.520  0.00  0.00    +0.000 HD
ATOM     19  H   UNL     1       3.269   3.357  21.744  0.00  0.00    +0.000 HD
ENDBRANCH  16  17
ENDBRANCH  15  16
ENDBRANCH  14  15
ENDBRANCH  13  14
ENDBRANCH   7  13
TORSDOF 5
ENDMDL
MODEL 3
REMARK VINA RESULT:      -5.4      1.161      1.162
REMARK  Name = 
REMARK  5 active torsions:
REMARK  status: ('A' for Active; 'I' for Inactive)
REMARK    1  A    between atoms: N_7  and  C_8
REMARK    2  A    between atoms: C_8  and  C_9
REMARK    3  A    between atoms: C_9  and  C_10
REMARK    4  A    between atoms: C_10  and  C_11
REMARK    5  A    between atoms: C_11  and  N_12
REMARK                            x       y       z     vdW  Elec       q    Type
REMARK                         _______ _______ _______ _____ _____    ______ ____
ROOT
ATOM      1  N   UNL     1       7.588   4.389  17.892  0.00  0.00    +0.000 NA
ATOM      2  C   UNL     1       6.976   5.470  17.556  0.00  0.00    +0.000 C 
ATOM      3  N   UNL     1       7.598   6.382  16.662  0.00  0.00    +0.000 N 
ATOM      4  N   UNL     1       5.667   5.765  18.058  0.00  0.00    +0.000 N 
ATOM      5  C   UNL     1       4.958   4.960  18.905  0.00  0.00    +0.000 C 
ATOM      6  O   UNL     1       5.424   3.896  19.290  0.00  0.00    +0.000 OA
ATOM      7  N   UNL     1       3.719   5.343  19.320  0.00  0.00    +0.000 N 
ATOM      8  H   UNL     1       8.526   4.164  17.531  0.00  0.00    +0.000 HD
ATOM      9  H   UNL     1       8.535   6.187  16.278  0.00  0.00    +0.000 HD
ATOM     10  H   UNL     1       7.114   7.244  16.375  0.00  0.00    +0.000 HD
ATOM     11  H   UNL     1       5.234   6.648  17.748  0.00  0.00    +0.000 HD
ATOM     12  H   UNL     1       3.344   6.244  18.992  0.00  0.00    +0.000 HD
ENDROOT
BRANCH   7  13
ATOM     13  C   UNL     1       2.924   4.514  20.213  0.00  0.00    +0.000 C 
BRANCH  13  14
ATOM     14  C   UNL     1       1.586   4.104  19.582  0.00  0.00    +0.000 C 
BRANCH  14  15
ATOM     15  C   UNL     1       1.770   3.090  18.441  0.00  0.00    +0.000 C 
BRANCH  15  16
ATOM     16  C   UNL     1       2.574   1.874  18.905  0.00  0.00    +0.000 C 
BRANCH  16  17
ATOM     17  N   UNL     1       3.737   1.682  18.044  0.00  0.00    +0.000 NA
ATOM     18  H   UNL     1       4.211   0.787  18.307  0.00  0.00    +0.000 HD
ATOM     19  H   UNL     1       4.412   2.460  18.220  0.00  0.00    +0.000 HD
ENDBRANCH  16  17
ENDBRANCH  15  16
ENDBRANCH  14  15
ENDBRANCH  13  14
ENDBRANCH   7  13
TORSDOF 5
ENDMDL
MODEL 4
REMARK VINA RESULT:      -5.4      1.285      1.443
REMARK  Name = 
REMARK  5 active torsions:
REMARK  status: ('A' for Active; 'I' for Inactive)
REMARK    1  A    between atoms: N_7  and  C_8
REMARK    2  A    between atoms: C_8  and  C_9
REMARK    3  A    between atoms: C_9  and  C_10
REMARK    4  A    between atoms: C_10  and  C_11
REMARK    5  A    between atoms: C_11  and  N_12
REMARK                            x       y       z     vdW  Elec       q    Type
REMARK                         _______ _______ _______ _____ _____    ______ ____
ROOT
ATOM      1  N   UNL     1       7.730   4.351  16.911  0.00  0.00    +0.000 NA
ATOM      2  C   UNL     1       7.021   4.921  15.999  0.00  0.00    +0.000 C 
ATOM      3  N   UNL     1       7.629   5.304  14.774  0.00  0.00    +0.000 N 
ATOM      4  N   UNL     1       5.623   5.163  16.194  0.00  0.00    +0.000 N 
ATOM      5  C   UNL     1       4.922   4.824  17.316  0.00  0.00    +0.000 C 
ATOM      6  O   UNL     1       5.477   4.264  18.253  0.00  0.00    +0.000 OA
ATOM      7  N   UNL     1       3.592   5.105  17.392  0.00  0.00    +0.000 N 
ATOM      8  H   UNL     1       8.734   4.165  16.779  0.00  0.00    +0.000 HD
ATOM      9  H   UNL     1       8.631   5.130  14.606  0.00  0.00    +0.000 HD
ATOM     10  H   UNL     1       7.072   5.748  14.031  0.00  0.00    +0.000 HD
ATOM     11  H   UNL     1       5.116   5.623  15.422  0.00  0.00    +0.000 HD
ATOM     12  H   UNL     1       3.142   5.582  16.598  0.00  0.00    +0.000 HD
ENDROOT
BRANCH   7  13
ATOM     13  C   UNL     1       2.803   4.754  18.562  0.00  0.00    +0.000 C 
BRANCH  13  14
ATOM     14  C   UNL     1       1.815   3.615  18.272  0.00  0.00    +0.000 C 
BRANCH  14  15
ATOM     15  C   UNL     1       2.152   2.340  19.061  0.00  0.00    +0.000 C 
BRANCH  15  16
ATOM     16  C   UNL     1       3.322   1.588  18.425  0.00  0.00    +0.000 C 
BRANCH  16  17
ATOM     17  N   UNL     1       4.493   1.654  19.294  0.00  0.00    +0.000 NA
ATOM     18  H   UNL     1       4.639   0.719  19.741  0.00  0.00    +0.000 HD
ATOM     19  H   UNL     1       4.302   2.342  20.058  0.00  0.00    +0.000 HD
ENDBRANCH  16  17
ENDBRANCH  15  16
ENDBRANCH  14  15
ENDBRANCH  13  14
ENDBRANCH   7  13
TORSDOF 5
ENDMDL
MODEL 5
REMARK VINA RESULT:      -5.4      1.973      2.458
REMARK  Name = 
REMARK  5 active torsions:
REMARK  status: ('A' for Active; 'I' for Inactive)
REMARK    1  A    between atoms: N_7  and  C_8
REMARK    2  A    between atoms: C_8  and  C_9
REMARK    3  A    between atoms: C_9  and  C_10
REMARK    4  A    between atoms: C_10  and  C_11
REMARK    5  A    between atoms: C_11  and  N_12
REMARK                            x       y       z     vdW  Elec       q    Type
REMARK                         _______ _______ _______ _____ _____    ______ ____
ROOT
ATOM      1  N   UNL     1       7.274   4.375  17.947  0.00  0.00    +0.000 NA
ATOM      2  C   UNL     1       6.937   5.073  18.975  0.00  0.00    +0.000 C 
ATOM      3  N   UNL     1       7.941   5.570  19.848  0.00  0.00    +0.000 N 
ATOM      4  N   UNL     1       5.562   5.369  19.249  0.00  0.00    +0.000 N 
ATOM      5  C   UNL     1       4.509   4.966  18.477  0.00  0.00    +0.000 C 
ATOM      6  O   UNL     1       4.696   4.305  17.463  0.00  0.00    +0.000 OA
ATOM      7  N   UNL     1       3.240   5.305  18.836  0.00  0.00    +0.000 N 
ATOM      8  H   UNL     1       8.260   4.163  17.737  0.00  0.00    +0.000 HD
ATOM      9  H   UNL     1       8.938   5.380  19.666  0.00  0.00    +0.000 HD
ATOM     10  H   UNL     1       7.687   6.141  20.666  0.00  0.00    +0.000 HD
ATOM     11  H   UNL     1       5.363   5.933  20.089  0.00  0.00    +0.000 HD
ATOM     12  H   UNL     1       3.100   5.855  19.695  0.00  0.00    +0.000 HD
ENDROOT
BRANCH   7  13
ATOM     13  C   UNL     1       2.090   4.906  18.039  0.00  0.00    +0.000 C 
BRANCH  13  14
ATOM     14  C   UNL     1       1.341   3.719  18.660  0.00  0.00    +0.000 C 
BRANCH  14  15
ATOM     15  C   UNL     1       1.017   3.951  20.145  0.00  0.00    +0.000 C 
BRANCH  15  16
ATOM     16  C   UNL     1       1.366   2.722  20.987  0.00  0.00    +0.000 C 
BRANCH  16  17
ATOM     17  N   UNL     1       2.189   3.113  22.127  0.00  0.00    +0.000 NA
ATOM     18  H   UNL     1       2.506   2.251  22.630  0.00  0.00    +0.000 HD
ATOM     19  H   UNL     1       1.599   3.665  22.790  0.00  0.00    +0.000 HD
ENDBRANCH  16  17
ENDBRANCH  15  16
ENDBRANCH  14  15
ENDBRANCH  13  14
ENDBRANCH   7  13
TORSDOF 5
ENDMDL
MODEL 6
REMARK VINA RESULT:      -5.3      3.062      4.477
REMARK  Name = 
REMARK  5 active torsions:
REMARK  status: ('A' for Active; 'I' for Inactive)
REMARK    1  A    between atoms: N_7  and  C_8
REMARK    2  A    between atoms: C_8  and  C_9
REMARK    3  A    between atoms: C_9  and  C_10
REMARK    4  A    between atoms: C_10  and  C_11
REMARK    5  A    between atoms: C_11  and  N_12
REMARK                            x       y       z     vdW  Elec       q    Type
REMARK                         _______ _______ _______ _____ _____    ______ ____
ROOT
ATOM      1  N   UNL     1       7.201   4.263  11.870  0.00  0.00    +0.000 NA
ATOM      2  C   UNL     1       6.485   3.429  12.540  0.00  0.00    +0.000 C 
ATOM      3  N   UNL     1       5.871   2.335  11.874  0.00  0.00    +0.000 N 
ATOM      4  N   UNL     1       6.306   3.579  13.954  0.00  0.00    +0.000 N 
ATOM      5  C   UNL     1       6.859   4.574  14.709  0.00  0.00    +0.000 C 
ATOM      6  O   UNL     1       7.573   5.425  14.193  0.00  0.00    +0.000 OA
ATOM      7  N   UNL     1       6.618   4.618  16.048  0.00  0.00    +0.000 N 
ATOM      8  H   UNL     1       7.343   4.160  10.855  0.00  0.00    +0.000 HD
ATOM      9  H   UNL     1       5.994   2.200  10.860  0.00  0.00    +0.000 HD
ATOM     10  H   UNL     1       5.305   1.654  12.400  0.00  0.00    +0.000 HD
ATOM     11  H   UNL     1       5.719   2.875  14.429  0.00  0.00    +0.000 HD
ATOM     12  H   UNL     1       6.010   3.900  16.465  0.00  0.00    +0.000 HD
ENDROOT
BRANCH   7  13
ATOM     13  C   UNL     1       7.194   5.654  16.893  0.00  0.00    +0.000 C 
BRANCH  13  14
ATOM     14  C   UNL     1       6.124   6.596  17.462  0.00  0.00    +0.000 C 
BRANCH  14  15
ATOM     15  C   UNL     1       4.944   5.829  18.079  0.00  0.00    +0.000 C 
BRANCH  15  16
ATOM     16  C   UNL     1       5.390   5.010  19.292  0.00  0.00    +0.000 C 
BRANCH  16  17
ATOM     17  N   UNL     1       5.401   3.588  18.961  0.00  0.00    +0.000 NA
ATOM     18  H   UNL     1       4.566   3.131  19.396  0.00  0.00    +0.000 HD
ATOM     19  H   UNL     1       6.253   3.155  19.383  0.00  0.00    +0.000 HD
ENDBRANCH  16  17
ENDBRANCH  15  16
ENDBRANCH  14  15
ENDBRANCH  13  14
ENDBRANCH   7  13
TORSDOF 5
ENDMDL
MODEL 7
REMARK VINA RESULT:      -5.3      1.400      1.464
REMARK  Name = 
REMARK  5 active torsions:
REMARK  status: ('A' for Active; 'I' for Inactive)
REMARK    1  A    between atoms: N_7  and  C_8
REMARK    2  A    between atoms: C_8  and  C_9
REMARK    3  A    between atoms: C_9  and  C_10
REMARK    4  A    between atoms: C_10  and  C_11
REMARK    5  A    between atoms: C_11  and  N_12
REMARK                            x       y       z     vdW  Elec       q    Type
REMARK                         _______ _______ _______ _____ _____    ______ ____
ROOT
ATOM      1  N   UNL     1       7.584   5.644  17.537  0.00  0.00    +0.000 NA
ATOM      2  C   UNL     1       7.017   4.857  16.690  0.00  0.00    +0.000 C 
ATOM      3  N   UNL     1       7.456   4.844  15.340  0.00  0.00    +0.000 N 
ATOM      4  N   UNL     1       5.957   3.980  17.091  0.00  0.00    +0.000 N 
ATOM      5  C   UNL     1       5.462   3.885  18.360  0.00  0.00    +0.000 C 
ATOM      6  O   UNL     1       5.923   4.572  19.263  0.00  0.00    +0.000 OA
ATOM      7  N   UNL     1       4.448   3.016  18.626  0.00  0.00    +0.000 N 
ATOM      8  H   UNL     1       8.352   6.272  17.262  0.00  0.00    +0.000 HD
ATOM      9  H   UNL     1       8.225   5.458  15.030  0.00  0.00    +0.000 HD
ATOM     10  H   UNL     1       7.021   4.211  14.655  0.00  0.00    +0.000 HD
ATOM     11  H   UNL     1       5.549   3.376  16.362  0.00  0.00    +0.000 HD
ATOM     12  H   UNL     1       4.067   2.451  17.855  0.00  0.00    +0.000 HD
ENDROOT
BRANCH   7  13
ATOM     13  C   UNL     1       3.896   2.874  19.965  0.00  0.00    +0.000 C 
BRANCH  13  14
ATOM     14  C   UNL     1       2.601   3.679  20.144  0.00  0.00    +0.000 C 
BRANCH  14  15
ATOM     15  C   UNL     1       1.357   2.777  20.178  0.00  0.00    +0.000 C 
BRANCH  15  16
ATOM     16  C   UNL     1       0.842   2.491  18.766  0.00  0.00    +0.000 C 
BRANCH  16  17
ATOM     17  N   UNL     1       1.269   3.546  17.852  0.00  0.00    +0.000 NA
ATOM     18  H   UNL     1       0.440   4.134  17.601  0.00  0.00    +0.000 HD
ATOM     19  H   UNL     1       1.619   3.103  16.973  0.00  0.00    +0.000 HD
ENDBRANCH  16  17
ENDBRANCH  15  16
ENDBRANCH  14  15
ENDBRANCH  13  14
ENDBRANCH   7  13
TORSDOF 5
ENDMDL
MODEL 8
REMARK VINA RESULT:      -5.2      1.644      2.711
REMARK  Name = 
REMARK  5 active torsions:
REMARK  status: ('A' for Active; 'I' for Inactive)
REMARK    1  A    between atoms: N_7  and  C_8
REMARK    2  A    between atoms: C_8  and  C_9
REMARK    3  A    between atoms: C_9  and  C_10
REMARK    4  A    between atoms: C_10  and  C_11
REMARK    5  A    between atoms: C_11  and  N_12
REMARK                            x       y       z     vdW  Elec       q    Type
REMARK                         _______ _______ _______ _____ _____    ______ ____
ROOT
ATOM      1  N   UNL     1       5.548   5.819  16.691  0.00  0.00    +0.000 NA
ATOM      2  C   UNL     1       6.112   4.696  16.974  0.00  0.00    +0.000 C 
ATOM      3  N   UNL     1       7.521   4.566  16.846  0.00  0.00    +0.000 N 
ATOM      4  N   UNL     1       5.343   3.577  17.429  0.00  0.00    +0.000 N 
ATOM      5  C   UNL     1       3.989   3.583  17.611  0.00  0.00    +0.000 C 
ATOM      6  O   UNL     1       3.335   4.595  17.390  0.00  0.00    +0.000 OA
ATOM      7  N   UNL     1       3.361   2.457  18.047  0.00  0.00    +0.000 N 
ATOM      8  H   UNL     1       6.092   6.632  16.371  0.00  0.00    +0.000 HD
ATOM      9  H   UNL     1       8.097   5.360  16.531  0.00  0.00    +0.000 HD
ATOM     10  H   UNL     1       7.987   3.678  17.080  0.00  0.00    +0.000 HD
ATOM     11  H   UNL     1       5.858   2.708  17.637  0.00  0.00    +0.000 HD
ATOM     12  H   UNL     1       3.924   1.613  18.222  0.00  0.00    +0.000 HD
ENDROOT
BRANCH   7  13
ATOM     13  C   UNL     1       1.923   2.421  18.265  0.00  0.00    +0.000 C 
BRANCH  13  14
ATOM     14  C   UNL     1       1.564   2.460  19.757  0.00  0.00    +0.000 C 
BRANCH  14  15
ATOM     15  C   UNL     1       1.130   3.863  20.212  0.00  0.00    +0.000 C 
BRANCH  15  16
ATOM     16  C   UNL     1       2.230   4.547  21.025  0.00  0.00    +0.000 C 
BRANCH  16  17
ATOM     17  N   UNL     1       2.744   5.704  20.299  0.00  0.00    +0.000 NA
ATOM     18  H   UNL     1       3.714   5.494  19.966  0.00  0.00    +0.000 HD
ATOM     19  H   UNL     1       2.806   6.511  20.961  0.00  0.00    +0.000 HD
ENDBRANCH  16  17
ENDBRANCH  15  16
ENDBRANCH  14  15
ENDBRANCH  13  14
ENDBRANCH   7  13
TORSDOF 5
ENDMDL
MODEL 9
REMARK VINA RESULT:      -5.2      1.925      2.411
REMARK  Name = 
REMARK  5 active torsions:
REMARK  status: ('A' for Active; 'I' for Inactive)
REMARK    1  A    between atoms: N_7  and  C_8
REMARK    2  A    between atoms: C_8  and  C_9
REMARK    3  A    between atoms: C_9  and  C_10
REMARK    4  A    between atoms: C_10  and  C_11
REMARK    5  A    between atoms: C_11  and  N_12
REMARK                            x       y       z     vdW  Elec       q    Type
REMARK                         _______ _______ _______ _____ _____    ______ ____
ROOT
ATOM      1  N   UNL     1       7.744   4.988  17.446  0.00  0.00    +0.000 NA
ATOM      2  C   UNL     1       7.324   5.044  18.662  0.00  0.00    +0.000 C 
ATOM      3  N   UNL     1       8.180   5.542  19.680  0.00  0.00    +0.000 N 
ATOM      4  N   UNL     1       5.999   4.623  19.006  0.00  0.00    +0.000 N 
ATOM      5  C   UNL     1       5.077   4.145  18.117  0.00  0.00    +0.000 C 
ATOM      6  O   UNL     1       5.348   4.053  16.926  0.00  0.00    +0.000 OA
ATOM      7  N   UNL     1       3.844   3.771  18.558  0.00  0.00    +0.000 N 
ATOM      8  H   UNL     1       8.692   5.295  17.187  0.00  0.00    +0.000 HD
ATOM      9  H   UNL     1       9.134   5.862  19.456  0.00  0.00    +0.000 HD
ATOM     10  H   UNL     1       7.853   5.605  20.654  0.00  0.00    +0.000 HD
ATOM     11  H   UNL     1       5.727   4.694  19.998  0.00  0.00    +0.000 HD
ATOM     12  H   UNL     1       3.635   3.848  19.563  0.00  0.00    +0.000 HD
ENDROOT
BRANCH   7  13
ATOM     13  C   UNL     1       2.829   3.267  17.646  0.00  0.00    +0.000 C 
BRANCH  13  14
ATOM     14  C   UNL     1       1.411   3.664  18.084  0.00  0.00    +0.000 C 
BRANCH  14  15
ATOM     15  C   UNL     1       0.793   2.638  19.047  0.00  0.00    +0.000 C 
BRANCH  15  16
ATOM     16  C   UNL     1       1.099   2.992  20.504  0.00  0.00    +0.000 C 
BRANCH  16  17
ATOM     17  N   UNL     1       1.270   4.434  20.645  0.00  0.00    +0.000 NA
ATOM     18  H   UNL     1       1.414   4.854  19.697  0.00  0.00    +0.000 HD
ATOM     19  H   UNL     1       2.135   4.614  21.204  0.00  0.00    +0.000 HD
ENDBRANCH  16  17
ENDBRANCH  15  16
ENDBRANCH  14  15
ENDBRANCH  13  14
ENDBRANCH   7  13
TORSDOF 5
ENDMDL
