MODEL 1
REMARK VINA RESULT:      -7.5      0.000      0.000
REMARK  Name = 
REMARK  6 active torsions:
REMARK  status: ('A' for Active; 'I' for Inactive)
REMARK    1  A    between atoms: C_1  and  O_2
REMARK    2  A    between atoms: O_2  and  C_3
REMARK    3  A    between atoms: C_3  and  C_5
REMARK    4  A    between atoms: C_6  and  C_7
REMARK    5  A    between atoms: C_8  and  C_9
REMARK    6  A    between atoms: C_15  and  C_16
REMARK                            x       y       z     vdW  Elec       q    Type
REMARK                         _______ _______ _______ _____ _____    ______ ____
ROOT
ATOM      1  C   UNL     1      -1.490  11.594  20.233  0.00  0.00    +0.000 A 
ATOM      2  C   UNL     1      -2.279  12.459  21.045  0.00  0.00    +0.000 A 
ATOM      3  C   UNL     1      -3.236  13.475  20.469  0.00  0.00    +0.000 C 
ATOM      4  C   UNL     1      -2.156  12.378  22.457  0.00  0.00    +0.000 A 
ATOM      5  C   UNL     1      -2.937  13.237  23.421  0.00  0.00    +0.000 C 
ATOM      6  C   UNL     1      -1.274  11.448  23.024  0.00  0.00    +0.000 A 
ATOM      7  C   UNL     1      -0.523  10.596  22.218  0.00  0.00    +0.000 A 
ATOM      8  C   UNL     1       0.379   9.614  22.841  0.00  0.00    +0.000 A 
ATOM      9  O   UNL     1       0.482   9.494  24.060  0.00  0.00    +0.000 OA
ATOM     10  C   UNL     1       1.169   8.773  21.936  0.00  0.00    +0.000 A 
ATOM     11  C   UNL     1       0.986   8.915  20.619  0.00  0.00    +0.000 A 
ATOM     12  O   UNL     1       0.084   9.780  20.030  0.00  0.00    +0.000 OA
ATOM     13  C   UNL     1      -0.624  10.652  20.830  0.00  0.00    +0.000 A 
ENDROOT
BRANCH  11  14
ATOM     14  C   UNL     1       1.783   8.117  19.678  0.00  0.00    +0.000 A 
ATOM     15  C   UNL     1       2.134   6.806  20.037  0.00  0.00    +0.000 A 
ATOM     16  C   UNL     1       2.945   6.035  19.200  0.00  0.00    +0.000 A 
ATOM     17  C   UNL     1       3.409   6.559  17.997  0.00  0.00    +0.000 A 
ATOM     18  C   UNL     1       3.059   7.857  17.623  0.00  0.00    +0.000 A 
ATOM     19  C   UNL     1       2.250   8.634  18.457  0.00  0.00    +0.000 A 
ATOM     20 CL   UNL     1       1.869  10.239  17.941  0.00  0.00    +0.000 Cl
ENDBRANCH  11  14
BRANCH   1  21
ATOM     21  C   UNL     1      -1.601  11.611  18.744  0.00  0.00    +0.000 C 
ATOM     22  O   UNL     1      -0.975  12.364  18.016  0.00  0.00    +0.000 OA
BRANCH  21  24
ATOM     23  C   UNL     1      -2.071   9.936  17.178  0.00  0.00    +0.000 C 
ATOM     24  O   UNL     1      -2.485  10.667  18.333  0.00  0.00    +0.000 OA
ENDBRANCH  21  24
ENDBRANCH   1  21
TORSDOF 3
ENDMDL
MODEL 2
REMARK VINA RESULT:      -7.1      3.400      7.897
REMARK  Name = 
REMARK  6 active torsions:
REMARK  status: ('A' for Active; 'I' for Inactive)
REMARK    1  A    between atoms: C_1  and  O_2
REMARK    2  A    between atoms: O_2  and  C_3
REMARK    3  A    between atoms: C_3  and  C_5
REMARK    4  A    between atoms: C_6  and  C_7
REMARK    5  A    between atoms: C_8  and  C_9
REMARK    6  A    between atoms: C_15  and  C_16
REMARK                            x       y       z     vdW  Elec       q    Type
REMARK                         _______ _______ _______ _____ _____    ______ ____
ROOT
ATOM      1  C   UNL     1       4.133   5.199  17.802  0.00  0.00    +0.000 A 
ATOM      2  C   UNL     1       4.506   3.879  17.415  0.00  0.00    +0.000 A 
ATOM      3  C   UNL     1       5.559   3.600  16.369  0.00  0.00    +0.000 C 
ATOM      4  C   UNL     1       3.854   2.773  18.022  0.00  0.00    +0.000 A 
ATOM      5  C   UNL     1       4.163   1.333  17.698  0.00  0.00    +0.000 C 
ATOM      6  C   UNL     1       2.870   2.997  18.994  0.00  0.00    +0.000 A 
ATOM      7  C   UNL     1       2.528   4.293  19.376  0.00  0.00    +0.000 A 
ATOM      8  C   UNL     1       1.506   4.498  20.415  0.00  0.00    +0.000 A 
ATOM      9  O   UNL     1       0.949   3.562  20.986  0.00  0.00    +0.000 OA
ATOM     10  C   UNL     1       1.167   5.886  20.745  0.00  0.00    +0.000 A 
ATOM     11  C   UNL     1       1.834   6.865  20.125  0.00  0.00    +0.000 A 
ATOM     12  O   UNL     1       2.848   6.678  19.206  0.00  0.00    +0.000 OA
ATOM     13  C   UNL     1       3.151   5.396  18.798  0.00  0.00    +0.000 A 
ENDROOT
BRANCH  11  14
ATOM     14  C   UNL     1       1.500   8.269  20.401  0.00  0.00    +0.000 A 
ATOM     15  C   UNL     1       1.272   8.657  21.730  0.00  0.00    +0.000 A 
ATOM     16  C   UNL     1       0.889   9.968  22.030  0.00  0.00    +0.000 A 
ATOM     17  C   UNL     1       0.733  10.902  21.012  0.00  0.00    +0.000 A 
ATOM     18  C   UNL     1       0.966  10.532  19.686  0.00  0.00    +0.000 A 
ATOM     19  C   UNL     1       1.348   9.222  19.380  0.00  0.00    +0.000 A 
ATOM     20 CL   UNL     1       1.604   8.828  17.716  0.00  0.00    +0.000 Cl
ENDBRANCH  11  14
BRANCH   1  21
ATOM     21  C   UNL     1       4.806   6.398  17.222  0.00  0.00    +0.000 C 
ATOM     22  O   UNL     1       4.411   6.999  16.236  0.00  0.00    +0.000 OA
BRANCH  21  24
ATOM     23  C   UNL     1       7.104   6.839  17.198  0.00  0.00    +0.000 C 
ATOM     24  O   UNL     1       5.901   6.718  17.957  0.00  0.00    +0.000 OA
ENDBRANCH  21  24
ENDBRANCH   1  21
TORSDOF 3
ENDMDL
MODEL 3
REMARK VINA RESULT:      -7.0      1.105      1.477
REMARK  Name = 
REMARK  6 active torsions:
REMARK  status: ('A' for Active; 'I' for Inactive)
REMARK    1  A    between atoms: C_1  and  O_2
REMARK    2  A    between atoms: O_2  and  C_3
REMARK    3  A    between atoms: C_3  and  C_5
REMARK    4  A    between atoms: C_6  and  C_7
REMARK    5  A    between atoms: C_8  and  C_9
REMARK    6  A    between atoms: C_15  and  C_16
REMARK                            x       y       z     vdW  Elec       q    Type
REMARK                         _______ _______ _______ _____ _____    ______ ____
ROOT
ATOM      1  C   UNL     1      -1.555  11.577  20.222  0.00  0.00    +0.000 A 
ATOM      2  C   UNL     1      -2.369  12.395  21.059  0.00  0.00    +0.000 A 
ATOM      3  C   UNL     1      -3.363  13.390  20.511  0.00  0.00    +0.000 C 
ATOM      4  C   UNL     1      -2.235  12.286  22.468  0.00  0.00    +0.000 A 
ATOM      5  C   UNL     1      -3.040  13.095  23.455  0.00  0.00    +0.000 C 
ATOM      6  C   UNL     1      -1.318  11.375  23.009  0.00  0.00    +0.000 A 
ATOM      7  C   UNL     1      -0.542  10.569  22.180  0.00  0.00    +0.000 A 
ATOM      8  C   UNL     1       0.397   9.605  22.776  0.00  0.00    +0.000 A 
ATOM      9  O   UNL     1       0.511   9.460  23.991  0.00  0.00    +0.000 OA
ATOM     10  C   UNL     1       1.211   8.813  21.847  0.00  0.00    +0.000 A 
ATOM     11  C   UNL     1       1.016   8.979  20.535  0.00  0.00    +0.000 A 
ATOM     12  O   UNL     1       0.081   9.825  19.970  0.00  0.00    +0.000 OA
ATOM     13  C   UNL     1      -0.652  10.653  20.794  0.00  0.00    +0.000 A 
ENDROOT
BRANCH  11  14
ATOM     14  C   UNL     1       1.835   8.231  19.571  0.00  0.00    +0.000 A 
ATOM     15  C   UNL     1       2.326   8.903  18.441  0.00  0.00    +0.000 A 
ATOM     16  C   UNL     1       3.055   8.214  17.468  0.00  0.00    +0.000 A 
ATOM     17  C   UNL     1       3.304   6.853  17.612  0.00  0.00    +0.000 A 
ATOM     18  C   UNL     1       2.830   6.174  18.735  0.00  0.00    +0.000 A 
ATOM     19  C   UNL     1       2.098   6.857  19.712  0.00  0.00    +0.000 A 
ATOM     20 CL   UNL     1       1.526   5.952  21.069  0.00  0.00    +0.000 Cl
ENDBRANCH  11  14
BRANCH   1  21
ATOM     21  C   UNL     1      -1.674  11.624  18.735  0.00  0.00    +0.000 C 
ATOM     22  O   UNL     1      -1.053  12.393  18.019  0.00  0.00    +0.000 OA
BRANCH  21  24
ATOM     23  C   UNL     1      -2.127   9.945  17.169  0.00  0.00    +0.000 C 
ATOM     24  O   UNL     1      -2.559  10.687  18.310  0.00  0.00    +0.000 OA
ENDBRANCH  21  24
ENDBRANCH   1  21
TORSDOF 3
ENDMDL
MODEL 4
REMARK VINA RESULT:      -7.0      0.491      1.055
REMARK  Name = 
REMARK  6 active torsions:
REMARK  status: ('A' for Active; 'I' for Inactive)
REMARK    1  A    between atoms: C_1  and  O_2
REMARK    2  A    between atoms: O_2  and  C_3
REMARK    3  A    between atoms: C_3  and  C_5
REMARK    4  A    between atoms: C_6  and  C_7
REMARK    5  A    between atoms: C_8  and  C_9
REMARK    6  A    between atoms: C_15  and  C_16
REMARK                            x       y       z     vdW  Elec       q    Type
REMARK                         _______ _______ _______ _____ _____    ______ ____
ROOT
ATOM      1  C   UNL     1      -1.497  11.500  20.241  0.00  0.00    +0.000 A 
ATOM      2  C   UNL     1      -2.272  12.375  21.056  0.00  0.00    +0.000 A 
ATOM      3  C   UNL     1      -3.251  13.372  20.483  0.00  0.00    +0.000 C 
ATOM      4  C   UNL     1      -2.114  12.324  22.466  0.00  0.00    +0.000 A 
ATOM      5  C   UNL     1      -2.878  13.196  23.431  0.00  0.00    +0.000 C 
ATOM      6  C   UNL     1      -1.211  11.411  23.029  0.00  0.00    +0.000 A 
ATOM      7  C   UNL     1      -0.473  10.549  22.222  0.00  0.00    +0.000 A 
ATOM      8  C   UNL     1       0.451   9.586  22.842  0.00  0.00    +0.000 A 
ATOM      9  O   UNL     1       0.585   9.492  24.060  0.00  0.00    +0.000 OA
ATOM     10  C   UNL     1       1.225   8.733  21.934  0.00  0.00    +0.000 A 
ATOM     11  C   UNL     1       1.009   8.848  20.620  0.00  0.00    +0.000 A 
ATOM     12  O   UNL     1       0.087   9.694  20.036  0.00  0.00    +0.000 OA
ATOM     13  C   UNL     1      -0.608  10.577  20.836  0.00  0.00    +0.000 A 
ENDROOT
BRANCH  11  14
ATOM     14  C   UNL     1       1.789   8.036  19.675  0.00  0.00    +0.000 A 
ATOM     15  C   UNL     1       2.072   6.702  20.009  0.00  0.00    +0.000 A 
ATOM     16  C   UNL     1       2.865   5.915  19.169  0.00  0.00    +0.000 A 
ATOM     17  C   UNL     1       3.379   6.446  17.990  0.00  0.00    +0.000 A 
ATOM     18  C   UNL     1       3.096   7.767  17.641  0.00  0.00    +0.000 A 
ATOM     19  C   UNL     1       2.305   8.561  18.478  0.00  0.00    +0.000 A 
ATOM     20 CL   UNL     1       2.009  10.194  17.994  0.00  0.00    +0.000 Cl
ENDBRANCH  11  14
BRANCH   1  21
ATOM     21  C   UNL     1      -1.644  11.486  18.756  0.00  0.00    +0.000 C 
ATOM     22  O   UNL     1      -2.619  11.049  18.165  0.00  0.00    +0.000 OA
BRANCH  21  24
ATOM     23  C   UNL     1      -0.431  13.447  18.354  0.00  0.00    +0.000 C 
ATOM     24  O   UNL     1      -0.547  12.035  18.175  0.00  0.00    +0.000 OA
ENDBRANCH  21  24
ENDBRANCH   1  21
TORSDOF 3
ENDMDL
MODEL 5
REMARK VINA RESULT:      -6.9      2.728      7.642
REMARK  Name = 
REMARK  6 active torsions:
REMARK  status: ('A' for Active; 'I' for Inactive)
REMARK    1  A    between atoms: C_1  and  O_2
REMARK    2  A    between atoms: O_2  and  C_3
REMARK    3  A    between atoms: C_3  and  C_5
REMARK    4  A    between atoms: C_6  and  C_7
REMARK    5  A    between atoms: C_8  and  C_9
REMARK    6  A    between atoms: C_15  and  C_16
REMARK                            x       y       z     vdW  Elec       q    Type
REMARK                         _______ _______ _______ _____ _____    ______ ____
ROOT
ATOM      1  C   UNL     1       2.737   4.817  19.631  0.00  0.00    +0.000 A 
ATOM      2  C   UNL     1       3.521   4.000  18.765  0.00  0.00    +0.000 A 
ATOM      3  C   UNL     1       3.781   2.538  19.034  0.00  0.00    +0.000 C 
ATOM      4  C   UNL     1       4.097   4.583  17.606  0.00  0.00    +0.000 A 
ATOM      5  C   UNL     1       4.942   3.823  16.614  0.00  0.00    +0.000 C 
ATOM      6  C   UNL     1       3.877   5.939  17.329  0.00  0.00    +0.000 A 
ATOM      7  C   UNL     1       3.094   6.721  18.174  0.00  0.00    +0.000 A 
ATOM      8  C   UNL     1       2.862   8.137  17.847  0.00  0.00    +0.000 A 
ATOM      9  O   UNL     1       3.317   8.662  16.833  0.00  0.00    +0.000 OA
ATOM     10  C   UNL     1       2.059   8.913  18.798  0.00  0.00    +0.000 A 
ATOM     11  C   UNL     1       1.554   8.281  19.862  0.00  0.00    +0.000 A 
ATOM     12  O   UNL     1       1.702   6.936  20.134  0.00  0.00    +0.000 OA
ATOM     13  C   UNL     1       2.516   6.177  19.319  0.00  0.00    +0.000 A 
ENDROOT
BRANCH  11  14
ATOM     14  C   UNL     1       0.773   9.031  20.856  0.00  0.00    +0.000 A 
ATOM     15  C   UNL     1       1.043   8.824  22.218  0.00  0.00    +0.000 A 
ATOM     16  C   UNL     1       0.281   9.467  23.198  0.00  0.00    +0.000 A 
ATOM     17  C   UNL     1      -0.752  10.324  22.831  0.00  0.00    +0.000 A 
ATOM     18  C   UNL     1      -1.024  10.546  21.481  0.00  0.00    +0.000 A 
ATOM     19  C   UNL     1      -0.267   9.904  20.496  0.00  0.00    +0.000 A 
ATOM     20 CL   UNL     1      -0.670  10.212  18.843  0.00  0.00    +0.000 Cl
ENDBRANCH  11  14
BRANCH   1  21
ATOM     21  C   UNL     1       2.079   4.253  20.847  0.00  0.00    +0.000 C 
ATOM     22  O   UNL     1       2.651   4.046  21.905  0.00  0.00    +0.000 OA
BRANCH  21  24
ATOM     23  C   UNL     1       0.517   2.920  19.724  0.00  0.00    +0.000 C 
ATOM     24  O   UNL     1       0.765   4.021  20.599  0.00  0.00    +0.000 OA
ENDBRANCH  21  24
ENDBRANCH   1  21
TORSDOF 3
ENDMDL
MODEL 6
REMARK VINA RESULT:      -6.7      2.806      5.145
REMARK  Name = 
REMARK  6 active torsions:
REMARK  status: ('A' for Active; 'I' for Inactive)
REMARK    1  A    between atoms: C_1  and  O_2
REMARK    2  A    between atoms: O_2  and  C_3
REMARK    3  A    between atoms: C_3  and  C_5
REMARK    4  A    between atoms: C_6  and  C_7
REMARK    5  A    between atoms: C_8  and  C_9
REMARK    6  A    between atoms: C_15  and  C_16
REMARK                            x       y       z     vdW  Elec       q    Type
REMARK                         _______ _______ _______ _____ _____    ______ ____
ROOT
ATOM      1  C   UNL     1       0.805   9.296  20.395  0.00  0.00    +0.000 A 
ATOM      2  C   UNL     1       0.700  10.645  19.948  0.00  0.00    +0.000 A 
ATOM      3  C   UNL     1      -0.079  11.697  20.699  0.00  0.00    +0.000 C 
ATOM      4  C   UNL     1       1.340  11.020  18.738  0.00  0.00    +0.000 A 
ATOM      5  C   UNL     1       1.303  12.415  18.164  0.00  0.00    +0.000 C 
ATOM      6  C   UNL     1       2.069  10.067  18.014  0.00  0.00    +0.000 A 
ATOM      7  C   UNL     1       2.179   8.756  18.472  0.00  0.00    +0.000 A 
ATOM      8  C   UNL     1       2.969   7.781  17.703  0.00  0.00    +0.000 A 
ATOM      9  O   UNL     1       3.564   8.083  16.671  0.00  0.00    +0.000 OA
ATOM     10  C   UNL     1       3.013   6.410  18.220  0.00  0.00    +0.000 A 
ATOM     11  C   UNL     1       2.383   6.147  19.370  0.00  0.00    +0.000 A 
ATOM     12  O   UNL     1       1.706   7.075  20.137  0.00  0.00    +0.000 OA
ATOM     13  C   UNL     1       1.562   8.359  19.656  0.00  0.00    +0.000 A 
ENDROOT
BRANCH  11  14
ATOM     14  C   UNL     1       2.374   4.778  19.904  0.00  0.00    +0.000 A 
ATOM     15  C   UNL     1       1.188   4.284  20.470  0.00  0.00    +0.000 A 
ATOM     16  C   UNL     1       1.154   3.012  21.047  0.00  0.00    +0.000 A 
ATOM     17  C   UNL     1       2.297   2.219  21.064  0.00  0.00    +0.000 A 
ATOM     18  C   UNL     1       3.480   2.694  20.496  0.00  0.00    +0.000 A 
ATOM     19  C   UNL     1       3.522   3.966  19.919  0.00  0.00    +0.000 A 
ATOM     20 CL   UNL     1       5.025   4.498  19.249  0.00  0.00    +0.000 Cl
ENDBRANCH  11  14
BRANCH   1  21
ATOM     21  C   UNL     1       0.182   8.850  21.676  0.00  0.00    +0.000 C 
ATOM     22  O   UNL     1      -0.822   8.160  21.748  0.00  0.00    +0.000 OA
BRANCH  21  24
ATOM     23  C   UNL     1       0.123   9.576  23.900  0.00  0.00    +0.000 C 
ATOM     24  O   UNL     1       0.899   9.317  22.729  0.00  0.00    +0.000 OA
ENDBRANCH  21  24
ENDBRANCH   1  21
TORSDOF 3
ENDMDL
MODEL 7
REMARK VINA RESULT:      -6.7      1.842      2.622
REMARK  Name = 
REMARK  6 active torsions:
REMARK  status: ('A' for Active; 'I' for Inactive)
REMARK    1  A    between atoms: C_1  and  O_2
REMARK    2  A    between atoms: O_2  and  C_3
REMARK    3  A    between atoms: C_3  and  C_5
REMARK    4  A    between atoms: C_6  and  C_7
REMARK    5  A    between atoms: C_8  and  C_9
REMARK    6  A    between atoms: C_15  and  C_16
REMARK                            x       y       z     vdW  Elec       q    Type
REMARK                         _______ _______ _______ _____ _____    ______ ____
ROOT
ATOM      1  C   UNL     1      -2.796  11.152  18.588  0.00  0.00    +0.000 A 
ATOM      2  C   UNL     1      -3.789  12.099  18.972  0.00  0.00    +0.000 A 
ATOM      3  C   UNL     1      -5.082  12.280  18.214  0.00  0.00    +0.000 C 
ATOM      4  C   UNL     1      -3.554  12.921  20.105  0.00  0.00    +0.000 A 
ATOM      5  C   UNL     1      -4.528  13.957  20.610  0.00  0.00    +0.000 C 
ATOM      6  C   UNL     1      -2.362  12.780  20.829  0.00  0.00    +0.000 A 
ATOM      7  C   UNL     1      -1.407  11.838  20.453  0.00  0.00    +0.000 A 
ATOM      8  C   UNL     1      -0.175  11.697  21.244  0.00  0.00    +0.000 A 
ATOM      9  O   UNL     1       0.043  12.368  22.251  0.00  0.00    +0.000 OA
ATOM     10  C   UNL     1       0.804  10.712  20.773  0.00  0.00    +0.000 A 
ATOM     11  C   UNL     1       0.498   9.979  19.698  0.00  0.00    +0.000 A 
ATOM     12  O   UNL     1      -0.690  10.052  18.998  0.00  0.00    +0.000 OA
ATOM     13  C   UNL     1      -1.611  11.017  19.346  0.00  0.00    +0.000 A 
ENDROOT
BRANCH  11  14
ATOM     14  C   UNL     1       1.466   9.006  19.174  0.00  0.00    +0.000 A 
ATOM     15  C   UNL     1       2.068   9.258  17.930  0.00  0.00    +0.000 A 
ATOM     16  C   UNL     1       2.945   8.328  17.365  0.00  0.00    +0.000 A 
ATOM     17  C   UNL     1       3.234   7.143  18.033  0.00  0.00    +0.000 A 
ATOM     18  C   UNL     1       2.652   6.884  19.274  0.00  0.00    +0.000 A 
ATOM     19  C   UNL     1       1.772   7.809  19.844  0.00  0.00    +0.000 A 
ATOM     20 CL   UNL     1       1.072   7.417  21.376  0.00  0.00    +0.000 Cl
ENDBRANCH  11  14
BRANCH   1  21
ATOM     21  C   UNL     1      -3.001  10.238  17.426  0.00  0.00    +0.000 C 
ATOM     22  O   UNL     1      -3.576   9.163  17.489  0.00  0.00    +0.000 OA
BRANCH  21  24
ATOM     23  C   UNL     1      -3.159  10.456  15.101  0.00  0.00    +0.000 C 
ATOM     24  O   UNL     1      -2.465  10.784  16.305  0.00  0.00    +0.000 OA
ENDBRANCH  21  24
ENDBRANCH   1  21
TORSDOF 3
ENDMDL
MODEL 8
REMARK VINA RESULT:      -6.6      1.223      1.821
REMARK  Name = 
REMARK  6 active torsions:
REMARK  status: ('A' for Active; 'I' for Inactive)
REMARK    1  A    between atoms: C_1  and  O_2
REMARK    2  A    between atoms: O_2  and  C_3
REMARK    3  A    between atoms: C_3  and  C_5
REMARK    4  A    between atoms: C_6  and  C_7
REMARK    5  A    between atoms: C_8  and  C_9
REMARK    6  A    between atoms: C_15  and  C_16
REMARK                            x       y       z     vdW  Elec       q    Type
REMARK                         _______ _______ _______ _____ _____    ______ ____
ROOT
ATOM      1  C   UNL     1      -1.526  11.549  20.269  0.00  0.00    +0.000 A 
ATOM      2  C   UNL     1      -2.327  12.372  21.113  0.00  0.00    +0.000 A 
ATOM      3  C   UNL     1      -3.321  13.374  20.574  0.00  0.00    +0.000 C 
ATOM      4  C   UNL     1      -2.181  12.263  22.521  0.00  0.00    +0.000 A 
ATOM      5  C   UNL     1      -2.972  13.077  23.515  0.00  0.00    +0.000 C 
ATOM      6  C   UNL     1      -1.265  11.346  23.053  0.00  0.00    +0.000 A 
ATOM      7  C   UNL     1      -0.502  10.534  22.217  0.00  0.00    +0.000 A 
ATOM      8  C   UNL     1       0.436   9.564  22.805  0.00  0.00    +0.000 A 
ATOM      9  O   UNL     1       0.560   9.420  24.019  0.00  0.00    +0.000 OA
ATOM     10  C   UNL     1       1.236   8.767  21.869  0.00  0.00    +0.000 A 
ATOM     11  C   UNL     1       1.030   8.934  20.559  0.00  0.00    +0.000 A 
ATOM     12  O   UNL     1       0.096   9.786  20.003  0.00  0.00    +0.000 OA
ATOM     13  C   UNL     1      -0.625  10.619  20.832  0.00  0.00    +0.000 A 
ENDROOT
BRANCH  11  14
ATOM     14  C   UNL     1       1.835   8.180  19.588  0.00  0.00    +0.000 A 
ATOM     15  C   UNL     1       2.338   8.855  18.464  0.00  0.00    +0.000 A 
ATOM     16  C   UNL     1       3.054   8.162  17.483  0.00  0.00    +0.000 A 
ATOM     17  C   UNL     1       3.279   6.795  17.615  0.00  0.00    +0.000 A 
ATOM     18  C   UNL     1       2.793   6.115  18.732  0.00  0.00    +0.000 A 
ATOM     19  C   UNL     1       2.074   6.801  19.715  0.00  0.00    +0.000 A 
ATOM     20 CL   UNL     1       1.487   5.894  21.064  0.00  0.00    +0.000 Cl
ENDBRANCH  11  14
BRANCH   1  21
ATOM     21  C   UNL     1      -1.659  11.597  18.783  0.00  0.00    +0.000 C 
ATOM     22  O   UNL     1      -2.652  11.241  18.169  0.00  0.00    +0.000 OA
BRANCH  21  24
ATOM     23  C   UNL     1      -0.412  13.520  18.309  0.00  0.00    +0.000 C 
ATOM     24  O   UNL     1      -0.525  12.098  18.231  0.00  0.00    +0.000 OA
ENDBRANCH  21  24
ENDBRANCH   1  21
TORSDOF 3
ENDMDL
MODEL 9
REMARK VINA RESULT:      -6.5      2.915      7.858
REMARK  Name = 
REMARK  6 active torsions:
REMARK  status: ('A' for Active; 'I' for Inactive)
REMARK    1  A    between atoms: C_1  and  O_2
REMARK    2  A    between atoms: O_2  and  C_3
REMARK    3  A    between atoms: C_3  and  C_5
REMARK    4  A    between atoms: C_6  and  C_7
REMARK    5  A    between atoms: C_8  and  C_9
REMARK    6  A    between atoms: C_15  and  C_16
REMARK                            x       y       z     vdW  Elec       q    Type
REMARK                         _______ _______ _______ _____ _____    ______ ____
ROOT
ATOM      1  C   UNL     1       2.477   4.477  19.159  0.00  0.00    +0.000 A 
ATOM      2  C   UNL     1       3.231   3.602  18.324  0.00  0.00    +0.000 A 
ATOM      3  C   UNL     1       3.237   2.103  18.505  0.00  0.00    +0.000 C 
ATOM      4  C   UNL     1       4.024   4.155  17.285  0.00  0.00    +0.000 A 
ATOM      5  C   UNL     1       4.862   3.334  16.337  0.00  0.00    +0.000 C 
ATOM      6  C   UNL     1       4.044   5.543  17.092  0.00  0.00    +0.000 A 
ATOM      7  C   UNL     1       3.287   6.386  17.904  0.00  0.00    +0.000 A 
ATOM      8  C   UNL     1       3.310   7.837  17.665  0.00  0.00    +0.000 A 
ATOM      9  O   UNL     1       3.957   8.345  16.752  0.00  0.00    +0.000 OA
ATOM     10  C   UNL     1       2.521   8.671  18.578  0.00  0.00    +0.000 A 
ATOM     11  C   UNL     1       1.801   8.063  19.526  0.00  0.00    +0.000 A 
ATOM     12  O   UNL     1       1.714   6.697  19.707  0.00  0.00    +0.000 OA
ATOM     13  C   UNL     1       2.500   5.870  18.930  0.00  0.00    +0.000 A 
ENDROOT
BRANCH  11  14
ATOM     14  C   UNL     1       1.024   8.864  20.484  0.00  0.00    +0.000 A 
ATOM     15  C   UNL     1       1.217   8.643  21.857  0.00  0.00    +0.000 A 
ATOM     16  C   UNL     1       0.453   9.337  22.800  0.00  0.00    +0.000 A 
ATOM     17  C   UNL     1      -0.505  10.257  22.385  0.00  0.00    +0.000 A 
ATOM     18  C   UNL     1      -0.699  10.493  21.024  0.00  0.00    +0.000 A 
ATOM     19  C   UNL     1       0.061   9.801  20.075  0.00  0.00    +0.000 A 
ATOM     20 CL   UNL     1      -0.243  10.130  18.405  0.00  0.00    +0.000 Cl
ENDBRANCH  11  14
BRANCH   1  21
ATOM     21  C   UNL     1       1.600   3.950  20.245  0.00  0.00    +0.000 C 
ATOM     22  O   UNL     1       0.434   3.623  20.091  0.00  0.00    +0.000 OA
BRANCH  21  24
ATOM     23  C   UNL     1       2.348   2.580  21.989  0.00  0.00    +0.000 C 
ATOM     24  O   UNL     1       2.293   3.884  21.411  0.00  0.00    +0.000 OA
ENDBRANCH  21  24
ENDBRANCH   1  21
TORSDOF 3
ENDMDL
