MODEL 1
REMARK VINA RESULT:      -8.9      0.000      0.000
REMARK  Name = 
REMARK  7 active torsions:
REMARK  status: ('A' for Active; 'I' for Inactive)
REMARK    1  A    between atoms: C_2  and  O_19
REMARK    2  A    between atoms: N_3  and  C_4
REMARK    3  A    between atoms: C_9  and  N_10
REMARK    4  A    between atoms: C_11  and  C_13
REMARK    5  A    between atoms: O_19  and  C_20
REMARK    6  A    between atoms: C_20  and  C_21
REMARK    7  A    between atoms: N_24  and  C_25
REMARK                            x       y       z     vdW  Elec       q    Type
REMARK                         _______ _______ _______ _____ _____    ______ ____
ROOT
ATOM      1  O   UNL     1       7.034   5.610  20.073  0.00  0.00    +0.000 OA
ATOM      2  C   UNL     1       6.256   5.061  19.301  0.00  0.00    +0.000 C 
ATOM      3  N   UNL     1       6.714   4.246  18.294  0.00  0.00    +0.000 N 
ATOM      4  H   UNL     1       7.725   4.327  18.344  0.00  0.00    +0.000 HD
ENDROOT
BRANCH   3   5
ATOM      5  C   UNL     1       6.277   4.438  16.956  0.00  0.00    +0.000 A 
ATOM      6  C   UNL     1       7.041   5.269  16.120  0.00  0.00    +0.000 A 
ATOM      7  C   UNL     1       6.768   5.333  14.757  0.00  0.00    +0.000 A 
ATOM      8  C   UNL     1       5.736   4.569  14.225  0.00  0.00    +0.000 A 
ATOM      9  C   UNL     1       4.975   3.736  15.053  0.00  0.00    +0.000 A 
ATOM     10  C   UNL     1       5.239   3.643  16.425  0.00  0.00    +0.000 A 
BRANCH  10  11
ATOM     11  N   UNL     1       4.502   2.786  17.288  0.00  0.00    +0.000 N 
ATOM     12  C   UNL     1       3.126   2.809  17.500  0.00  0.00    +0.000 C 
ATOM     13  O   UNL     1       2.330   3.529  16.903  0.00  0.00    +0.000 OA
ATOM     14  H   UNL     1       5.044   2.042  17.713  0.00  0.00    +0.000 HD
BRANCH  12  15
ATOM     15  C   UNL     1       2.637   1.794  18.547  0.00  0.00    +0.000 C 
ATOM     16  C   UNL     1       3.480   1.829  19.832  0.00  0.00    +0.000 C 
ATOM     17  C   UNL     1       3.122   2.992  20.761  0.00  0.00    +0.000 C 
ATOM     18  C   UNL     1       1.635   3.014  21.094  0.00  0.00    +0.000 C 
ATOM     19  C   UNL     1       0.793   3.076  19.828  0.00  0.00    +0.000 C 
ATOM     20  C   UNL     1       1.133   1.949  18.853  0.00  0.00    +0.000 C 
ENDBRANCH  12  15
ENDBRANCH  10  11
ENDBRANCH   3   5
BRANCH   2  21
ATOM     21  O   UNL     1       4.903   5.053  19.421  0.00  0.00    +0.000 OA
BRANCH  21  22
ATOM     22  C   UNL     1       4.269   6.322  19.193  0.00  0.00    +0.000 C 
BRANCH  22  23
ATOM     23  C   UNL     1       2.767   6.180  18.910  0.00  0.00    +0.000 C 
ATOM     24  C   UNL     1       2.346   7.114  17.761  0.00  0.00    +0.000 C 
ATOM     25  C   UNL     1       2.361   8.587  18.183  0.00  0.00    +0.000 C 
ATOM     26  N   UNL     1       1.528   8.751  19.377  0.00  0.00    +0.000 N 
ATOM     27  C   UNL     1       1.901   7.939  20.540  0.00  0.00    +0.000 C 
ATOM     28  C   UNL     1       1.892   6.461  20.140  0.00  0.00    +0.000 C 
BRANCH  26  29
ATOM     29  C   UNL     1       0.596   9.772  19.468  0.00  0.00    +0.000 A 
ATOM     30  C   UNL     1       0.294  10.377  20.693  0.00  0.00    +0.000 A 
ATOM     31  C   UNL     1      -0.611  11.429  20.750  0.00  0.00    +0.000 A 
ATOM     32  N   UNL     1      -1.244  11.933  19.675  0.00  0.00    +0.000 NA
ATOM     33  C   UNL     1      -0.953  11.352  18.497  0.00  0.00    +0.000 A 
ATOM     34  C   UNL     1      -0.064  10.292  18.351  0.00  0.00    +0.000 A 
ENDBRANCH  26  29
ENDBRANCH  22  23
ENDBRANCH  21  22
ENDBRANCH   2  21
TORSDOF 7
ENDMDL
MODEL 2
REMARK VINA RESULT:      -8.1      2.662      5.556
REMARK  Name = 
REMARK  7 active torsions:
REMARK  status: ('A' for Active; 'I' for Inactive)
REMARK    1  A    between atoms: C_2  and  O_19
REMARK    2  A    between atoms: N_3  and  C_4
REMARK    3  A    between atoms: C_9  and  N_10
REMARK    4  A    between atoms: C_11  and  C_13
REMARK    5  A    between atoms: O_19  and  C_20
REMARK    6  A    between atoms: C_20  and  C_21
REMARK    7  A    between atoms: N_24  and  C_25
REMARK                            x       y       z     vdW  Elec       q    Type
REMARK                         _______ _______ _______ _____ _____    ______ ____
ROOT
ATOM      1  O   UNL     1       2.095   7.958  18.656  0.00  0.00    +0.000 OA
ATOM      2  C   UNL     1       2.194   7.227  19.635  0.00  0.00    +0.000 C 
ATOM      3  N   UNL     1       3.175   6.266  19.706  0.00  0.00    +0.000 N 
ATOM      4  H   UNL     1       3.629   6.302  18.799  0.00  0.00    +0.000 HD
ENDROOT
BRANCH   3   5
ATOM      5  C   UNL     1       2.846   4.924  20.032  0.00  0.00    +0.000 A 
ATOM      6  C   UNL     1       1.614   4.675  20.660  0.00  0.00    +0.000 A 
ATOM      7  C   UNL     1       1.161   3.368  20.821  0.00  0.00    +0.000 A 
ATOM      8  C   UNL     1       1.932   2.310  20.356  0.00  0.00    +0.000 A 
ATOM      9  C   UNL     1       3.159   2.554  19.727  0.00  0.00    +0.000 A 
ATOM     10  C   UNL     1       3.630   3.858  19.539  0.00  0.00    +0.000 A 
BRANCH  10  11
ATOM     11  N   UNL     1       4.858   4.141  18.879  0.00  0.00    +0.000 N 
ATOM     12  C   UNL     1       5.007   4.663  17.597  0.00  0.00    +0.000 C 
ATOM     13  O   UNL     1       4.088   5.035  16.873  0.00  0.00    +0.000 OA
ATOM     14  H   UNL     1       5.686   4.019  19.452  0.00  0.00    +0.000 HD
BRANCH  12  15
ATOM     15  C   UNL     1       6.470   4.792  17.141  0.00  0.00    +0.000 C 
ATOM     16  C   UNL     1       6.727   6.096  16.368  0.00  0.00    +0.000 C 
ATOM     17  C   UNL     1       6.879   7.319  17.274  0.00  0.00    +0.000 C 
ATOM     18  C   UNL     1       7.949   7.107  18.338  0.00  0.00    +0.000 C 
ATOM     19  C   UNL     1       7.652   5.869  19.172  0.00  0.00    +0.000 C 
ATOM     20  C   UNL     1       7.463   4.622  18.309  0.00  0.00    +0.000 C 
ENDBRANCH  12  15
ENDBRANCH  10  11
ENDBRANCH   3   5
BRANCH   2  21
ATOM     21  O   UNL     1       1.492   7.360  20.791  0.00  0.00    +0.000 OA
BRANCH  21  22
ATOM     22  C   UNL     1       0.614   8.496  20.837  0.00  0.00    +0.000 C 
BRANCH  22  23
ATOM     23  C   UNL     1       1.182   9.636  21.695  0.00  0.00    +0.000 C 
ATOM     24  C   UNL     1       0.591   9.585  23.115  0.00  0.00    +0.000 C 
ATOM     25  C   UNL     1      -0.885   9.993  23.138  0.00  0.00    +0.000 C 
ATOM     26  N   UNL     1      -1.026  11.313  22.516  0.00  0.00    +0.000 N 
ATOM     27  C   UNL     1      -0.542  11.429  21.136  0.00  0.00    +0.000 C 
ATOM     28  C   UNL     1       0.934  11.025  21.090  0.00  0.00    +0.000 C 
BRANCH  26  29
ATOM     29  C   UNL     1      -1.775  12.313  23.114  0.00  0.00    +0.000 A 
ATOM     30  C   UNL     1      -1.240  13.585  23.347  0.00  0.00    +0.000 A 
ATOM     31  C   UNL     1      -2.027  14.584  23.907  0.00  0.00    +0.000 A 
ATOM     32  N   UNL     1      -3.316  14.416  24.257  0.00  0.00    +0.000 NA
ATOM     33  C   UNL     1      -3.830  13.192  24.033  0.00  0.00    +0.000 A 
ATOM     34  C   UNL     1      -3.113  12.136  23.481  0.00  0.00    +0.000 A 
ENDBRANCH  26  29
ENDBRANCH  22  23
ENDBRANCH  21  22
ENDBRANCH   2  21
TORSDOF 7
ENDMDL
MODEL 3
REMARK VINA RESULT:      -8.1      2.692      5.525
REMARK  Name = 
REMARK  7 active torsions:
REMARK  status: ('A' for Active; 'I' for Inactive)
REMARK    1  A    between atoms: C_2  and  O_19
REMARK    2  A    between atoms: N_3  and  C_4
REMARK    3  A    between atoms: C_9  and  N_10
REMARK    4  A    between atoms: C_11  and  C_13
REMARK    5  A    between atoms: O_19  and  C_20
REMARK    6  A    between atoms: C_20  and  C_21
REMARK    7  A    between atoms: N_24  and  C_25
REMARK                            x       y       z     vdW  Elec       q    Type
REMARK                         _______ _______ _______ _____ _____    ______ ____
ROOT
ATOM      1  O   UNL     1       2.534   8.239  19.088  0.00  0.00    +0.000 OA
ATOM      2  C   UNL     1       2.200   7.306  19.810  0.00  0.00    +0.000 C 
ATOM      3  N   UNL     1       2.942   6.149  19.860  0.00  0.00    +0.000 N 
ATOM      4  H   UNL     1       3.659   6.279  19.153  0.00  0.00    +0.000 HD
ENDROOT
BRANCH   3   5
ATOM      5  C   UNL     1       2.317   4.885  19.692  0.00  0.00    +0.000 A 
ATOM      6  C   UNL     1       1.414   4.454  20.678  0.00  0.00    +0.000 A 
ATOM      7  C   UNL     1       0.632   3.321  20.466  0.00  0.00    +0.000 A 
ATOM      8  C   UNL     1       0.748   2.620  19.272  0.00  0.00    +0.000 A 
ATOM      9  C   UNL     1       1.643   3.048  18.285  0.00  0.00    +0.000 A 
ATOM     10  C   UNL     1       2.429   4.192  18.468  0.00  0.00    +0.000 A 
BRANCH  10  11
ATOM     11  N   UNL     1       3.328   4.669  17.474  0.00  0.00    +0.000 N 
ATOM     12  C   UNL     1       4.422   3.984  16.951  0.00  0.00    +0.000 C 
ATOM     13  O   UNL     1       4.724   2.825  17.217  0.00  0.00    +0.000 OA
ATOM     14  H   UNL     1       3.075   5.561  17.065  0.00  0.00    +0.000 HD
BRANCH  12  15
ATOM     15  C   UNL     1       5.240   4.798  15.933  0.00  0.00    +0.000 C 
ATOM     16  C   UNL     1       5.031   6.313  16.094  0.00  0.00    +0.000 C 
ATOM     17  C   UNL     1       5.829   6.916  17.251  0.00  0.00    +0.000 C 
ATOM     18  C   UNL     1       7.314   6.588  17.147  0.00  0.00    +0.000 C 
ATOM     19  C   UNL     1       7.537   5.084  17.084  0.00  0.00    +0.000 C 
ATOM     20  C   UNL     1       6.737   4.428  15.959  0.00  0.00    +0.000 C 
ENDBRANCH  12  15
ENDBRANCH  10  11
ENDBRANCH   3   5
BRANCH   2  21
ATOM     21  O   UNL     1       1.200   7.339  20.728  0.00  0.00    +0.000 OA
BRANCH  21  22
ATOM     22  C   UNL     1       0.431   8.553  20.740  0.00  0.00    +0.000 C 
BRANCH  22  23
ATOM     23  C   UNL     1       1.056   9.628  21.641  0.00  0.00    +0.000 C 
ATOM     24  C   UNL     1       0.453   9.560  23.055  0.00  0.00    +0.000 C 
ATOM     25  C   UNL     1      -0.998  10.050  23.086  0.00  0.00    +0.000 C 
ATOM     26  N   UNL     1      -1.061  11.396  22.510  0.00  0.00    +0.000 N 
ATOM     27  C   UNL     1      -0.561  11.534  21.138  0.00  0.00    +0.000 C 
ATOM     28  C   UNL     1       0.891  11.050  21.085  0.00  0.00    +0.000 C 
BRANCH  26  29
ATOM     29  C   UNL     1      -1.756  12.415  23.140  0.00  0.00    +0.000 A 
ATOM     30  C   UNL     1      -3.063  12.228  23.604  0.00  0.00    +0.000 A 
ATOM     31  C   UNL     1      -3.722  13.253  24.272  0.00  0.00    +0.000 A 
ATOM     32  N   UNL     1      -3.179  14.459  24.518  0.00  0.00    +0.000 NA
ATOM     33  C   UNL     1      -1.922  14.639  24.072  0.00  0.00    +0.000 A 
ATOM     34  C   UNL     1      -1.193  13.670  23.391  0.00  0.00    +0.000 A 
ENDBRANCH  26  29
ENDBRANCH  22  23
ENDBRANCH  21  22
ENDBRANCH   2  21
TORSDOF 7
ENDMDL
MODEL 4
REMARK VINA RESULT:      -8.0      2.645      5.462
REMARK  Name = 
REMARK  7 active torsions:
REMARK  status: ('A' for Active; 'I' for Inactive)
REMARK    1  A    between atoms: C_2  and  O_19
REMARK    2  A    between atoms: N_3  and  C_4
REMARK    3  A    between atoms: C_9  and  N_10
REMARK    4  A    between atoms: C_11  and  C_13
REMARK    5  A    between atoms: O_19  and  C_20
REMARK    6  A    between atoms: C_20  and  C_21
REMARK    7  A    between atoms: N_24  and  C_25
REMARK                            x       y       z     vdW  Elec       q    Type
REMARK                         _______ _______ _______ _____ _____    ______ ____
ROOT
ATOM      1  O   UNL     1       1.836   8.210  18.215  0.00  0.00    +0.000 OA
ATOM      2  C   UNL     1       2.238   7.583  19.188  0.00  0.00    +0.000 C 
ATOM      3  N   UNL     1       3.154   6.567  19.048  0.00  0.00    +0.000 N 
ATOM      4  H   UNL     1       3.274   6.473  18.043  0.00  0.00    +0.000 HD
ENDROOT
BRANCH   3   5
ATOM      5  C   UNL     1       2.914   5.294  19.629  0.00  0.00    +0.000 A 
ATOM      6  C   UNL     1       1.667   5.064  20.234  0.00  0.00    +0.000 A 
ATOM      7  C   UNL     1       1.311   3.781  20.641  0.00  0.00    +0.000 A 
ATOM      8  C   UNL     1       2.194   2.727  20.444  0.00  0.00    +0.000 A 
ATOM      9  C   UNL     1       3.436   2.950  19.838  0.00  0.00    +0.000 A 
ATOM     10  C   UNL     1       3.812   4.228  19.407  0.00  0.00    +0.000 A 
BRANCH  10  11
ATOM     11  N   UNL     1       5.054   4.483  18.763  0.00  0.00    +0.000 N 
ATOM     12  C   UNL     1       5.327   4.341  17.405  0.00  0.00    +0.000 C 
ATOM     13  O   UNL     1       4.501   4.050  16.544  0.00  0.00    +0.000 OA
ATOM     14  H   UNL     1       5.768   4.885  19.361  0.00  0.00    +0.000 HD
BRANCH  12  15
ATOM     15  C   UNL     1       6.789   4.632  17.027  0.00  0.00    +0.000 C 
ATOM     16  C   UNL     1       6.942   5.958  16.265  0.00  0.00    +0.000 C 
ATOM     17  C   UNL     1       6.911   7.188  17.174  0.00  0.00    +0.000 C 
ATOM     18  C   UNL     1       7.940   7.091  18.294  0.00  0.00    +0.000 C 
ATOM     19  C   UNL     1       7.736   5.826  19.115  0.00  0.00    +0.000 C 
ATOM     20  C   UNL     1       7.731   4.568  18.247  0.00  0.00    +0.000 C 
ENDBRANCH  12  15
ENDBRANCH  10  11
ENDBRANCH   3   5
BRANCH   2  21
ATOM     21  O   UNL     1       1.975   7.888  20.486  0.00  0.00    +0.000 OA
BRANCH  21  22
ATOM     22  C   UNL     1       1.418   9.195  20.698  0.00  0.00    +0.000 C 
BRANCH  22  23
ATOM     23  C   UNL     1      -0.114   9.164  20.804  0.00  0.00    +0.000 C 
ATOM     24  C   UNL     1      -0.720  10.430  20.172  0.00  0.00    +0.000 C 
ATOM     25  C   UNL     1      -0.457  11.679  21.019  0.00  0.00    +0.000 C 
ATOM     26  N   UNL     1      -0.939  11.443  22.382  0.00  0.00    +0.000 N 
ATOM     27  C   UNL     1      -0.361  10.288  23.079  0.00  0.00    +0.000 C 
ATOM     28  C   UNL     1      -0.614   9.027  22.249  0.00  0.00    +0.000 C 
BRANCH  26  29
ATOM     29  C   UNL     1      -1.713  12.382  23.044  0.00  0.00    +0.000 A 
ATOM     30  C   UNL     1      -3.022  12.095  23.448  0.00  0.00    +0.000 A 
ATOM     31  C   UNL     1      -3.761  13.039  24.149  0.00  0.00    +0.000 A 
ATOM     32  N   UNL     1      -3.298  14.257  24.484  0.00  0.00    +0.000 NA
ATOM     33  C   UNL     1      -2.039  14.533  24.095  0.00  0.00    +0.000 A 
ATOM     34  C   UNL     1      -1.232  13.649  23.387  0.00  0.00    +0.000 A 
ENDBRANCH  26  29
ENDBRANCH  22  23
ENDBRANCH  21  22
ENDBRANCH   2  21
TORSDOF 7
ENDMDL
MODEL 5
REMARK VINA RESULT:      -7.9      2.624      5.471
REMARK  Name = 
REMARK  7 active torsions:
REMARK  status: ('A' for Active; 'I' for Inactive)
REMARK    1  A    between atoms: C_2  and  O_19
REMARK    2  A    between atoms: N_3  and  C_4
REMARK    3  A    between atoms: C_9  and  N_10
REMARK    4  A    between atoms: C_11  and  C_13
REMARK    5  A    between atoms: O_19  and  C_20
REMARK    6  A    between atoms: C_20  and  C_21
REMARK    7  A    between atoms: N_24  and  C_25
REMARK                            x       y       z     vdW  Elec       q    Type
REMARK                         _______ _______ _______ _____ _____    ______ ____
ROOT
ATOM      1  O   UNL     1       2.371   8.302  18.873  0.00  0.00    +0.000 OA
ATOM      2  C   UNL     1       2.272   7.384  19.680  0.00  0.00    +0.000 C 
ATOM      3  N   UNL     1       3.048   6.255  19.568  0.00  0.00    +0.000 N 
ATOM      4  H   UNL     1       3.555   6.383  18.697  0.00  0.00    +0.000 HD
ENDROOT
BRANCH   3   5
ATOM      5  C   UNL     1       2.454   4.966  19.598  0.00  0.00    +0.000 A 
ATOM      6  C   UNL     1       1.308   4.780  20.390  0.00  0.00    +0.000 A 
ATOM      7  C   UNL     1       0.579   3.598  20.301  0.00  0.00    +0.000 A 
ATOM      8  C   UNL     1       0.988   2.601  19.424  0.00  0.00    +0.000 A 
ATOM      9  C   UNL     1       2.127   2.782  18.631  0.00  0.00    +0.000 A 
ATOM     10  C   UNL     1       2.869   3.968  18.691  0.00  0.00    +0.000 A 
BRANCH  10  11
ATOM     11  N   UNL     1       4.014   4.195  17.878  0.00  0.00    +0.000 N 
ATOM     12  C   UNL     1       5.344   4.101  18.279  0.00  0.00    +0.000 C 
ATOM     13  O   UNL     1       5.726   3.726  19.384  0.00  0.00    +0.000 OA
ATOM     14  H   UNL     1       3.814   4.356  16.897  0.00  0.00    +0.000 HD
BRANCH  12  15
ATOM     15  C   UNL     1       6.356   4.472  17.180  0.00  0.00    +0.000 C 
ATOM     16  C   UNL     1       5.844   5.601  16.272  0.00  0.00    +0.000 C 
ATOM     17  C   UNL     1       5.982   6.991  16.897  0.00  0.00    +0.000 C 
ATOM     18  C   UNL     1       7.410   7.271  17.348  0.00  0.00    +0.000 C 
ATOM     19  C   UNL     1       7.893   6.207  18.323  0.00  0.00    +0.000 C 
ATOM     20  C   UNL     1       7.750   4.795  17.756  0.00  0.00    +0.000 C 
ENDBRANCH  12  15
ENDBRANCH  10  11
ENDBRANCH   3   5
BRANCH   2  21
ATOM     21  O   UNL     1       1.538   7.416  20.823  0.00  0.00    +0.000 OA
BRANCH  21  22
ATOM     22  C   UNL     1       1.182   8.733  21.275  0.00  0.00    +0.000 C 
BRANCH  22  23
ATOM     23  C   UNL     1      -0.329   8.988  21.191  0.00  0.00    +0.000 C 
ATOM     24  C   UNL     1      -0.612  10.290  20.419  0.00  0.00    +0.000 C 
ATOM     25  C   UNL     1      -0.214  11.532  21.221  0.00  0.00    +0.000 C 
ATOM     26  N   UNL     1      -0.881  11.494  22.525  0.00  0.00    +0.000 N 
ATOM     27  C   UNL     1      -0.614  10.311  23.351  0.00  0.00    +0.000 C 
ATOM     28  C   UNL     1      -1.006   9.056  22.567  0.00  0.00    +0.000 C 
BRANCH  26  29
ATOM     29  C   UNL     1      -1.534  12.606  23.031  0.00  0.00    +0.000 A 
ATOM     30  C   UNL     1      -0.900  13.851  23.111  0.00  0.00    +0.000 A 
ATOM     31  C   UNL     1      -1.592  14.960  23.581  0.00  0.00    +0.000 A 
ATOM     32  N   UNL     1      -2.876  14.930  23.980  0.00  0.00    +0.000 NA
ATOM     33  C   UNL     1      -3.486  13.732  23.903  0.00  0.00    +0.000 A 
ATOM     34  C   UNL     1      -2.868  12.572  23.450  0.00  0.00    +0.000 A 
ENDBRANCH  26  29
ENDBRANCH  22  23
ENDBRANCH  21  22
ENDBRANCH   2  21
TORSDOF 7
ENDMDL
MODEL 6
REMARK VINA RESULT:      -7.9      2.572      5.209
REMARK  Name = 
REMARK  7 active torsions:
REMARK  status: ('A' for Active; 'I' for Inactive)
REMARK    1  A    between atoms: C_2  and  O_19
REMARK    2  A    between atoms: N_3  and  C_4
REMARK    3  A    between atoms: C_9  and  N_10
REMARK    4  A    between atoms: C_11  and  C_13
REMARK    5  A    between atoms: O_19  and  C_20
REMARK    6  A    between atoms: C_20  and  C_21
REMARK    7  A    between atoms: N_24  and  C_25
REMARK                            x       y       z     vdW  Elec       q    Type
REMARK                         _______ _______ _______ _____ _____    ______ ____
ROOT
ATOM      1  O   UNL     1       3.039   8.079  18.304  0.00  0.00    +0.000 OA
ATOM      2  C   UNL     1       2.433   7.371  19.101  0.00  0.00    +0.000 C 
ATOM      3  N   UNL     1       3.046   6.298  19.704  0.00  0.00    +0.000 N 
ATOM      4  H   UNL     1       3.961   6.251  19.264  0.00  0.00    +0.000 HD
ENDROOT
BRANCH   3   5
ATOM      5  C   UNL     1       2.434   5.017  19.690  0.00  0.00    +0.000 A 
ATOM      6  C   UNL     1       1.294   4.816  20.487  0.00  0.00    +0.000 A 
ATOM      7  C   UNL     1       0.547   3.648  20.360  0.00  0.00    +0.000 A 
ATOM      8  C   UNL     1       0.933   2.682  19.440  0.00  0.00    +0.000 A 
ATOM      9  C   UNL     1       2.065   2.878  18.641  0.00  0.00    +0.000 A 
ATOM     10  C   UNL     1       2.825   4.050  18.739  0.00  0.00    +0.000 A 
BRANCH  10  11
ATOM     11  N   UNL     1       3.964   4.293  17.923  0.00  0.00    +0.000 N 
ATOM     12  C   UNL     1       5.296   4.127  18.292  0.00  0.00    +0.000 C 
ATOM     13  O   UNL     1       5.682   3.665  19.362  0.00  0.00    +0.000 OA
ATOM     14  H   UNL     1       3.754   4.527  16.959  0.00  0.00    +0.000 HD
BRANCH  12  15
ATOM     15  C   UNL     1       6.303   4.537  17.203  0.00  0.00    +0.000 C 
ATOM     16  C   UNL     1       5.797   5.716  16.355  0.00  0.00    +0.000 C 
ATOM     17  C   UNL     1       5.959   7.073  17.045  0.00  0.00    +0.000 C 
ATOM     18  C   UNL     1       7.395   7.312  17.495  0.00  0.00    +0.000 C 
ATOM     19  C   UNL     1       7.873   6.196  18.413  0.00  0.00    +0.000 C 
ATOM     20  C   UNL     1       7.706   4.815  17.779  0.00  0.00    +0.000 C 
ENDBRANCH  12  15
ENDBRANCH  10  11
ENDBRANCH   3   5
BRANCH   2  21
ATOM     21  O   UNL     1       1.193   7.623  19.594  0.00  0.00    +0.000 OA
BRANCH  21  22
ATOM     22  C   UNL     1       1.137   8.663  20.584  0.00  0.00    +0.000 C 
BRANCH  22  23
ATOM     23  C   UNL     1      -0.048   9.613  20.363  0.00  0.00    +0.000 C 
ATOM     24  C   UNL     1      -0.043  10.151  18.920  0.00  0.00    +0.000 C 
ATOM     25  C   UNL     1       1.097  11.146  18.681  0.00  0.00    +0.000 C 
ATOM     26  N   UNL     1       1.017  12.214  19.680  0.00  0.00    +0.000 N 
ATOM     27  C   UNL     1       1.068  11.789  21.084  0.00  0.00    +0.000 C 
ATOM     28  C   UNL     1      -0.065  10.793  21.345  0.00  0.00    +0.000 C 
BRANCH  26  29
ATOM     29  C   UNL     1       1.118  13.547  19.317  0.00  0.00    +0.000 A 
ATOM     30  C   UNL     1       2.315  14.081  18.826  0.00  0.00    +0.000 A 
ATOM     31  C   UNL     1       2.377  15.410  18.427  0.00  0.00    +0.000 A 
ATOM     32  N   UNL     1       1.333  16.258  18.476  0.00  0.00    +0.000 NA
ATOM     33  C   UNL     1       0.182  15.744  18.948  0.00  0.00    +0.000 A 
ATOM     34  C   UNL     1       0.034  14.428  19.373  0.00  0.00    +0.000 A 
ENDBRANCH  26  29
ENDBRANCH  22  23
ENDBRANCH  21  22
ENDBRANCH   2  21
TORSDOF 7
ENDMDL
MODEL 7
REMARK VINA RESULT:      -7.7      2.470      5.459
REMARK  Name = 
REMARK  7 active torsions:
REMARK  status: ('A' for Active; 'I' for Inactive)
REMARK    1  A    between atoms: C_2  and  O_19
REMARK    2  A    between atoms: N_3  and  C_4
REMARK    3  A    between atoms: C_9  and  N_10
REMARK    4  A    between atoms: C_11  and  C_13
REMARK    5  A    between atoms: O_19  and  C_20
REMARK    6  A    between atoms: C_20  and  C_21
REMARK    7  A    between atoms: N_24  and  C_25
REMARK                            x       y       z     vdW  Elec       q    Type
REMARK                         _______ _______ _______ _____ _____    ______ ____
ROOT
ATOM      1  O   UNL     1       2.341   8.094  19.126  0.00  0.00    +0.000 OA
ATOM      2  C   UNL     1       2.206   7.134  19.875  0.00  0.00    +0.000 C 
ATOM      3  N   UNL     1       2.990   6.013  19.740  0.00  0.00    +0.000 N 
ATOM      4  H   UNL     1       3.539   6.189  18.904  0.00  0.00    +0.000 HD
ENDROOT
BRANCH   3   5
ATOM      5  C   UNL     1       2.399   4.723  19.671  0.00  0.00    +0.000 A 
ATOM      6  C   UNL     1       1.262   4.470  20.456  0.00  0.00    +0.000 A 
ATOM      7  C   UNL     1       0.534   3.297  20.278  0.00  0.00    +0.000 A 
ATOM      8  C   UNL     1       0.937   2.377  19.319  0.00  0.00    +0.000 A 
ATOM      9  C   UNL     1       2.068   2.625  18.532  0.00  0.00    +0.000 A 
ATOM     10  C   UNL     1       2.807   3.804  18.681  0.00  0.00    +0.000 A 
BRANCH  10  11
ATOM     11  N   UNL     1       3.944   4.100  17.878  0.00  0.00    +0.000 N 
ATOM     12  C   UNL     1       5.269   4.140  18.303  0.00  0.00    +0.000 C 
ATOM     13  O   UNL     1       5.661   3.843  19.428  0.00  0.00    +0.000 OA
ATOM     14  H   UNL     1       3.750   4.205  16.888  0.00  0.00    +0.000 HD
BRANCH  12  15
ATOM     15  C   UNL     1       6.265   4.557  17.207  0.00  0.00    +0.000 C 
ATOM     16  C   UNL     1       5.744   5.728  16.359  0.00  0.00    +0.000 C 
ATOM     17  C   UNL     1       5.897   7.088  17.044  0.00  0.00    +0.000 C 
ATOM     18  C   UNL     1       7.333   7.342  17.485  0.00  0.00    +0.000 C 
ATOM     19  C   UNL     1       7.826   6.234  18.403  0.00  0.00    +0.000 C 
ATOM     20  C   UNL     1       7.669   4.849  17.775  0.00  0.00    +0.000 C 
ENDBRANCH  12  15
ENDBRANCH  10  11
ENDBRANCH   3   5
BRANCH   2  21
ATOM     21  O   UNL     1       1.417   7.103  20.981  0.00  0.00    +0.000 OA
BRANCH  21  22
ATOM     22  C   UNL     1       0.477   8.184  21.083  0.00  0.00    +0.000 C 
BRANCH  22  23
ATOM     23  C   UNL     1       1.052   9.385  21.847  0.00  0.00    +0.000 C 
ATOM     24  C   UNL     1       0.269   9.614  23.153  0.00  0.00    +0.000 C 
ATOM     25  C   UNL     1      -1.138  10.160  22.893  0.00  0.00    +0.000 C 
ATOM     26  N   UNL     1      -1.037  11.373  22.076  0.00  0.00    +0.000 N 
ATOM     27  C   UNL     1      -0.358  11.224  20.784  0.00  0.00    +0.000 C 
ATOM     28  C   UNL     1       1.053  10.680  21.021  0.00  0.00    +0.000 C 
BRANCH  26  29
ATOM     29  C   UNL     1      -1.738  12.521  22.405  0.00  0.00    +0.000 A 
ATOM     30  C   UNL     1      -1.957  13.536  21.467  0.00  0.00    +0.000 A 
ATOM     31  C   UNL     1      -2.702  14.658  21.810  0.00  0.00    +0.000 A 
ATOM     32  N   UNL     1      -3.253  14.850  23.022  0.00  0.00    +0.000 NA
ATOM     33  C   UNL     1      -3.043  13.873  23.924  0.00  0.00    +0.000 A 
ATOM     34  C   UNL     1      -2.307  12.722  23.666  0.00  0.00    +0.000 A 
ENDBRANCH  26  29
ENDBRANCH  22  23
ENDBRANCH  21  22
ENDBRANCH   2  21
TORSDOF 7
ENDMDL
MODEL 8
REMARK VINA RESULT:      -7.6      2.407      5.275
REMARK  Name = 
REMARK  7 active torsions:
REMARK  status: ('A' for Active; 'I' for Inactive)
REMARK    1  A    between atoms: C_2  and  O_19
REMARK    2  A    between atoms: N_3  and  C_4
REMARK    3  A    between atoms: C_9  and  N_10
REMARK    4  A    between atoms: C_11  and  C_13
REMARK    5  A    between atoms: O_19  and  C_20
REMARK    6  A    between atoms: C_20  and  C_21
REMARK    7  A    between atoms: N_24  and  C_25
REMARK                            x       y       z     vdW  Elec       q    Type
REMARK                         _______ _______ _______ _____ _____    ______ ____
ROOT
ATOM      1  O   UNL     1       2.490   7.878  18.767  0.00  0.00    +0.000 OA
ATOM      2  C   UNL     1       2.389   7.074  19.687  0.00  0.00    +0.000 C 
ATOM      3  N   UNL     1       3.326   6.084  19.869  0.00  0.00    +0.000 N 
ATOM      4  H   UNL     1       3.948   6.175  19.071  0.00  0.00    +0.000 HD
ENDROOT
BRANCH   3   5
ATOM      5  C   UNL     1       2.925   4.730  20.019  0.00  0.00    +0.000 A 
ATOM      6  C   UNL     1       1.668   4.469  20.590  0.00  0.00    +0.000 A 
ATOM      7  C   UNL     1       1.148   3.178  20.579  0.00  0.00    +0.000 A 
ATOM      8  C   UNL     1       1.877   2.147  19.999  0.00  0.00    +0.000 A 
ATOM      9  C   UNL     1       3.128   2.403  19.426  0.00  0.00    +0.000 A 
ATOM     10  C   UNL     1       3.666   3.695  19.411  0.00  0.00    +0.000 A 
BRANCH  10  11
ATOM     11  N   UNL     1       4.922   3.993  18.812  0.00  0.00    +0.000 N 
ATOM     12  C   UNL     1       5.125   4.617  17.584  0.00  0.00    +0.000 C 
ATOM     13  O   UNL     1       4.240   5.078  16.870  0.00  0.00    +0.000 OA
ATOM     14  H   UNL     1       5.728   3.797  19.395  0.00  0.00    +0.000 HD
BRANCH  12  15
ATOM     15  C   UNL     1       6.605   4.738  17.182  0.00  0.00    +0.000 C 
ATOM     16  C   UNL     1       6.888   6.015  16.374  0.00  0.00    +0.000 C 
ATOM     17  C   UNL     1       6.998   7.270  17.241  0.00  0.00    +0.000 C 
ATOM     18  C   UNL     1       8.026   7.102  18.354  0.00  0.00    +0.000 C 
ATOM     19  C   UNL     1       7.700   5.894  19.219  0.00  0.00    +0.000 C 
ATOM     20  C   UNL     1       7.552   4.615  18.394  0.00  0.00    +0.000 C 
ENDBRANCH  12  15
ENDBRANCH  10  11
ENDBRANCH   3   5
BRANCH   2  21
ATOM     21  O   UNL     1       1.479   7.138  20.694  0.00  0.00    +0.000 OA
BRANCH  21  22
ATOM     22  C   UNL     1       1.239   8.459  21.207  0.00  0.00    +0.000 C 
BRANCH  22  23
ATOM     23  C   UNL     1      -0.245   8.846  21.145  0.00  0.00    +0.000 C 
ATOM     24  C   UNL     1      -0.469   9.947  20.093  0.00  0.00    +0.000 C 
ATOM     25  C   UNL     1       0.101  11.296  20.542  0.00  0.00    +0.000 C 
ATOM     26  N   UNL     1      -0.463  11.642  21.849  0.00  0.00    +0.000 N 
ATOM     27  C   UNL     1      -0.239  10.671  22.925  0.00  0.00    +0.000 C 
ATOM     28  C   UNL     1      -0.803   9.313  22.497  0.00  0.00    +0.000 C 
BRANCH  26  29
ATOM     29  C   UNL     1      -0.971  12.906  22.101  0.00  0.00    +0.000 A 
ATOM     30  C   UNL     1      -1.123  13.849  21.077  0.00  0.00    +0.000 A 
ATOM     31  C   UNL     1      -1.676  15.094  21.349  0.00  0.00    +0.000 A 
ATOM     32  N   UNL     1      -2.096  15.479  22.568  0.00  0.00    +0.000 NA
ATOM     33  C   UNL     1      -1.950  14.572  23.552  0.00  0.00    +0.000 A 
ATOM     34  C   UNL     1      -1.402  13.307  23.369  0.00  0.00    +0.000 A 
ENDBRANCH  26  29
ENDBRANCH  22  23
ENDBRANCH  21  22
ENDBRANCH   2  21
TORSDOF 7
ENDMDL
MODEL 9
REMARK VINA RESULT:      -7.6      2.059      3.254
REMARK  Name = 
REMARK  7 active torsions:
REMARK  status: ('A' for Active; 'I' for Inactive)
REMARK    1  A    between atoms: C_2  and  O_19
REMARK    2  A    between atoms: N_3  and  C_4
REMARK    3  A    between atoms: C_9  and  N_10
REMARK    4  A    between atoms: C_11  and  C_13
REMARK    5  A    between atoms: O_19  and  C_20
REMARK    6  A    between atoms: C_20  and  C_21
REMARK    7  A    between atoms: N_24  and  C_25
REMARK                            x       y       z     vdW  Elec       q    Type
REMARK                         _______ _______ _______ _____ _____    ______ ____
ROOT
ATOM      1  O   UNL     1       1.887   6.000  18.565  0.00  0.00    +0.000 OA
ATOM      2  C   UNL     1       2.867   6.573  18.102  0.00  0.00    +0.000 C 
ATOM      3  N   UNL     1       3.803   5.891  17.362  0.00  0.00    +0.000 N 
ATOM      4  H   UNL     1       3.507   4.920  17.414  0.00  0.00    +0.000 HD
ENDROOT
BRANCH   3   5
ATOM      5  C   UNL     1       5.184   5.995  17.675  0.00  0.00    +0.000 A 
ATOM      6  C   UNL     1       5.915   7.055  17.114  0.00  0.00    +0.000 A 
ATOM      7  C   UNL     1       7.214   7.315  17.542  0.00  0.00    +0.000 A 
ATOM      8  C   UNL     1       7.786   6.520  18.528  0.00  0.00    +0.000 A 
ATOM      9  C   UNL     1       7.060   5.464  19.093  0.00  0.00    +0.000 A 
ATOM     10  C   UNL     1       5.747   5.192  18.691  0.00  0.00    +0.000 A 
BRANCH  10  11
ATOM     11  N   UNL     1       4.974   4.145  19.264  0.00  0.00    +0.000 N 
ATOM     12  C   UNL     1       4.255   3.174  18.572  0.00  0.00    +0.000 C 
ATOM     13  O   UNL     1       4.250   3.031  17.353  0.00  0.00    +0.000 OA
ATOM     14  H   UNL     1       5.038   4.072  20.273  0.00  0.00    +0.000 HD
BRANCH  12  15
ATOM     15  C   UNL     1       3.464   2.216  19.480  0.00  0.00    +0.000 C 
ATOM     16  C   UNL     1       3.230   2.801  20.882  0.00  0.00    +0.000 C 
ATOM     17  C   UNL     1       2.090   3.821  20.931  0.00  0.00    +0.000 C 
ATOM     18  C   UNL     1       0.795   3.252  20.363  0.00  0.00    +0.000 C 
ATOM     19  C   UNL     1       0.995   2.756  18.938  0.00  0.00    +0.000 C 
ATOM     20  C   UNL     1       2.144   1.753  18.831  0.00  0.00    +0.000 C 
ENDBRANCH  12  15
ENDBRANCH  10  11
ENDBRANCH   3   5
BRANCH   2  21
ATOM     21  O   UNL     1       3.073   7.916  18.116  0.00  0.00    +0.000 OA
BRANCH  21  22
ATOM     22  C   UNL     1       2.076   8.673  18.822  0.00  0.00    +0.000 C 
BRANCH  22  23
ATOM     23  C   UNL     1       1.424   9.744  17.937  0.00  0.00    +0.000 C 
ATOM     24  C   UNL     1       1.899  11.147  18.354  0.00  0.00    +0.000 C 
ATOM     25  C   UNL     1       1.313  11.576  19.702  0.00  0.00    +0.000 C 
ATOM     26  N   UNL     1      -0.147  11.469  19.645  0.00  0.00    +0.000 N 
ATOM     27  C   UNL     1      -0.684  10.145  19.313  0.00  0.00    +0.000 C 
ATOM     28  C   UNL     1      -0.110   9.696  17.966  0.00  0.00    +0.000 C 
BRANCH  26  29
ATOM     29  C   UNL     1      -0.961  12.494  20.098  0.00  0.00    +0.000 A 
ATOM     30  C   UNL     1      -0.430  13.728  20.492  0.00  0.00    +0.000 A 
ATOM     31  C   UNL     1      -1.273  14.755  20.900  0.00  0.00    +0.000 A 
ATOM     32  N   UNL     1      -2.613  14.651  20.947  0.00  0.00    +0.000 NA
ATOM     33  C   UNL     1      -3.124  13.464  20.568  0.00  0.00    +0.000 A 
ATOM     34  C   UNL     1      -2.354  12.384  20.150  0.00  0.00    +0.000 A 
ENDBRANCH  26  29
ENDBRANCH  22  23
ENDBRANCH  21  22
ENDBRANCH   2  21
TORSDOF 7
ENDMDL
