MODEL 1
REMARK VINA RESULT:      -8.7      0.000      0.000
REMARK  Name = 
REMARK  8 active torsions:
REMARK  status: ('A' for Active; 'I' for Inactive)
REMARK    1  A    between atoms: C_1  and  O_2
REMARK    2  A    between atoms: O_2  and  C_3
REMARK    3  A    between atoms: N_7  and  C_8
REMARK    4  A    between atoms: C_10  and  C_11
REMARK    5  A    between atoms: C_15  and  C_16
REMARK    6  A    between atoms: C_16  and  O_18
REMARK    7  A    between atoms: C_27  and  O_28
REMARK    8  A    between atoms: O_28  and  C_29
REMARK                            x       y       z     vdW  Elec       q    Type
REMARK                         _______ _______ _______ _____ _____    ______ ____
ROOT
ATOM      1  C   UNL     1       2.979   4.449  18.294  0.00  0.00    +0.000 A 
ATOM      2  C   UNL     1       2.655   5.751  18.219  0.00  0.00    +0.000 A 
ATOM      3  C   UNL     1       2.151   6.457  19.434  0.00  0.00    +0.000 A 
ATOM      4  N   UNL     1       2.022   5.908  20.605  0.00  0.00    +0.000 NA
ATOM      5  N   UNL     1       2.353   4.586  20.611  0.00  0.00    +0.000 N 
ATOM      6  C   UNL     1       2.311   3.769  21.709  0.00  0.00    +0.000 A 
ATOM      7  C   UNL     1       2.720   2.532  21.266  0.00  0.00    +0.000 A 
ATOM      8  N   UNL     1       3.008   2.558  19.924  0.00  0.00    +0.000 NA
ATOM      9  C   UNL     1       2.788   3.806  19.553  0.00  0.00    +0.000 A 
ENDROOT
BRANCH   1  14
ATOM     10  C   UNL     1       6.863   5.217  15.175  0.00  0.00    +0.000 A 
ATOM     11  C   UNL     1       6.265   4.026  14.763  0.00  0.00    +0.000 A 
ATOM     12  C   UNL     1       5.140   3.539  15.430  0.00  0.00    +0.000 A 
ATOM     13  C   UNL     1       4.620   4.265  16.497  0.00  0.00    +0.000 A 
ATOM     14  N   UNL     1       3.515   3.735  17.217  0.00  0.00    +0.000 N 
ATOM     15  N   UNL     1       5.143   5.455  16.855  0.00  0.00    +0.000 NA
ATOM     16  C   UNL     1       6.242   5.909  16.211  0.00  0.00    +0.000 A 
ATOM     17  H   UNL     1       3.770   2.797  17.533  0.00  0.00    +0.000 HD
BRANCH  10  19
ATOM     18  C   UNL     1       7.951   5.295  13.076  0.00  0.00    +0.000 C 
ATOM     19  O   UNL     1       7.981   5.575  14.474  0.00  0.00    +0.000 OA
ENDBRANCH  10  19
BRANCH  16  20
ATOM     20  O   UNL     1       6.743   7.133  16.598  0.00  0.00    +0.000 OA
ATOM     21  C   UNL     1       7.567   7.082  17.757  0.00  0.00    +0.000 C 
ENDBRANCH  16  20
ENDBRANCH   1  14
BRANCH   3  22
ATOM     22  C   UNL     1       1.821   7.900  19.252  0.00  0.00    +0.000 A 
ATOM     23  C   UNL     1       2.102   8.556  18.046  0.00  0.00    +0.000 A 
ATOM     24  C   UNL     1       1.863   9.922  17.916  0.00  0.00    +0.000 A 
ATOM     25  C   UNL     1       1.320  10.635  18.984  0.00  0.00    +0.000 A 
ATOM     26  C   UNL     1       0.994   9.982  20.181  0.00  0.00    +0.000 A 
ATOM     27  C   UNL     1       1.246   8.610  20.317  0.00  0.00    +0.000 A 
BRANCH  26  28
ATOM     28  C   UNL     1       0.456  10.816  21.287  0.00  0.00    +0.000 C 
ATOM     29  O   UNL     1      -0.356  10.395  22.092  0.00  0.00    +0.000 OA
BRANCH  28  30
ATOM     30  O   UNL     1       0.969  12.066  21.344  0.00  0.00    +0.000 OA
ATOM     31  H   UNL     1       1.942  12.123  21.383  0.00  0.00    +0.000 HD
ENDBRANCH  28  30
ENDBRANCH  26  28
ENDBRANCH   3  22
TORSDOF 6
ENDMDL
MODEL 2
REMARK VINA RESULT:      -8.2      1.688      7.372
REMARK  Name = 
REMARK  8 active torsions:
REMARK  status: ('A' for Active; 'I' for Inactive)
REMARK    1  A    between atoms: C_1  and  O_2
REMARK    2  A    between atoms: O_2  and  C_3
REMARK    3  A    between atoms: N_7  and  C_8
REMARK    4  A    between atoms: C_10  and  C_11
REMARK    5  A    between atoms: C_15  and  C_16
REMARK    6  A    between atoms: C_16  and  O_18
REMARK    7  A    between atoms: C_27  and  O_28
REMARK    8  A    between atoms: O_28  and  C_29
REMARK                            x       y       z     vdW  Elec       q    Type
REMARK                         _______ _______ _______ _____ _____    ______ ____
ROOT
ATOM      1  C   UNL     1       2.485   5.498  20.112  0.00  0.00    +0.000 A 
ATOM      2  C   UNL     1       3.606   5.799  19.435  0.00  0.00    +0.000 A 
ATOM      3  C   UNL     1       4.061   4.906  18.329  0.00  0.00    +0.000 A 
ATOM      4  N   UNL     1       3.428   3.843  17.932  0.00  0.00    +0.000 NA
ATOM      5  N   UNL     1       2.309   3.585  18.667  0.00  0.00    +0.000 N 
ATOM      6  C   UNL     1       1.458   2.533  18.464  0.00  0.00    +0.000 A 
ATOM      7  C   UNL     1       0.479   2.657  19.422  0.00  0.00    +0.000 A 
ATOM      8  N   UNL     1       0.702   3.754  20.218  0.00  0.00    +0.000 NA
ATOM      9  C   UNL     1       1.804   4.302  19.739  0.00  0.00    +0.000 A 
ENDROOT
BRANCH   1  14
ATOM     10  C   UNL     1       0.605  10.174  20.197  0.00  0.00    +0.000 A 
ATOM     11  C   UNL     1       0.562   9.716  21.513  0.00  0.00    +0.000 A 
ATOM     12  C   UNL     1       1.029   8.439  21.827  0.00  0.00    +0.000 A 
ATOM     13  C   UNL     1       1.548   7.641  20.811  0.00  0.00    +0.000 A 
ATOM     14  N   UNL     1       1.963   6.316  21.120  0.00  0.00    +0.000 N 
ATOM     15  N   UNL     1       1.665   8.101  19.550  0.00  0.00    +0.000 NA
ATOM     16  C   UNL     1       1.195   9.334  19.255  0.00  0.00    +0.000 A 
ATOM     17  H   UNL     1       1.174   5.838  21.562  0.00  0.00    +0.000 HD
BRANCH  10  19
ATOM     18  C   UNL     1      -1.275  11.467  19.571  0.00  0.00    +0.000 C 
ATOM     19  O   UNL     1       0.083  11.423  20.003  0.00  0.00    +0.000 OA
ENDBRANCH  10  19
BRANCH  16  20
ATOM     20  O   UNL     1       1.340   9.776  17.958  0.00  0.00    +0.000 OA
ATOM     21  C   UNL     1       2.352  10.761  17.790  0.00  0.00    +0.000 C 
ENDBRANCH  16  20
ENDBRANCH   1  14
BRANCH   3  22
ATOM     22  C   UNL     1       5.312   5.325  17.634  0.00  0.00    +0.000 A 
ATOM     23  C   UNL     1       6.186   6.250  18.221  0.00  0.00    +0.000 A 
ATOM     24  C   UNL     1       7.310   6.694  17.528  0.00  0.00    +0.000 A 
ATOM     25  C   UNL     1       7.580   6.197  16.254  0.00  0.00    +0.000 A 
ATOM     26  C   UNL     1       6.738   5.238  15.674  0.00  0.00    +0.000 A 
ATOM     27  C   UNL     1       5.599   4.801  16.364  0.00  0.00    +0.000 A 
BRANCH  26  28
ATOM     28  C   UNL     1       7.068   4.785  14.298  0.00  0.00    +0.000 C 
ATOM     29  O   UNL     1       7.842   5.388  13.576  0.00  0.00    +0.000 OA
BRANCH  28  30
ATOM     30  O   UNL     1       6.464   3.632  13.930  0.00  0.00    +0.000 OA
ATOM     31  H   UNL     1       5.498   3.682  13.805  0.00  0.00    +0.000 HD
ENDBRANCH  28  30
ENDBRANCH  26  28
ENDBRANCH   3  22
TORSDOF 6
ENDMDL
MODEL 3
REMARK VINA RESULT:      -8.2      3.762      8.292
REMARK  Name = 
REMARK  8 active torsions:
REMARK  status: ('A' for Active; 'I' for Inactive)
REMARK    1  A    between atoms: C_1  and  O_2
REMARK    2  A    between atoms: O_2  and  C_3
REMARK    3  A    between atoms: N_7  and  C_8
REMARK    4  A    between atoms: C_10  and  C_11
REMARK    5  A    between atoms: C_15  and  C_16
REMARK    6  A    between atoms: C_16  and  O_18
REMARK    7  A    between atoms: C_27  and  O_28
REMARK    8  A    between atoms: O_28  and  C_29
REMARK                            x       y       z     vdW  Elec       q    Type
REMARK                         _______ _______ _______ _____ _____    ______ ____
ROOT
ATOM      1  C   UNL     1       5.213   5.726  17.350  0.00  0.00    +0.000 A 
ATOM      2  C   UNL     1       5.420   5.433  16.055  0.00  0.00    +0.000 A 
ATOM      3  C   UNL     1       6.766   4.966  15.610  0.00  0.00    +0.000 A 
ATOM      4  N   UNL     1       7.781   4.783  16.401  0.00  0.00    +0.000 NA
ATOM      5  N   UNL     1       7.511   5.110  17.696  0.00  0.00    +0.000 N 
ATOM      6  C   UNL     1       8.398   5.013  18.734  0.00  0.00    +0.000 A 
ATOM      7  C   UNL     1       7.714   5.444  19.847  0.00  0.00    +0.000 A 
ATOM      8  N   UNL     1       6.431   5.811  19.528  0.00  0.00    +0.000 NA
ATOM      9  C   UNL     1       6.328   5.594  18.230  0.00  0.00    +0.000 A 
ENDROOT
BRANCH   1  14
ATOM     10  C   UNL     1       1.674   3.398  20.080  0.00  0.00    +0.000 A 
ATOM     11  C   UNL     1       1.181   4.675  19.817  0.00  0.00    +0.000 A 
ATOM     12  C   UNL     1       1.934   5.575  19.061  0.00  0.00    +0.000 A 
ATOM     13  C   UNL     1       3.171   5.173  18.567  0.00  0.00    +0.000 A 
ATOM     14  N   UNL     1       3.966   6.111  17.853  0.00  0.00    +0.000 N 
ATOM     15  N   UNL     1       3.623   3.916  18.749  0.00  0.00    +0.000 NA
ATOM     16  C   UNL     1       2.891   3.058  19.496  0.00  0.00    +0.000 A 
ATOM     17  H   UNL     1       4.087   6.934  18.449  0.00  0.00    +0.000 HD
BRANCH  10  19
ATOM     18  C   UNL     1       1.259   2.499  22.229  0.00  0.00    +0.000 C 
ATOM     19  O   UNL     1       0.868   2.618  20.863  0.00  0.00    +0.000 OA
ENDBRANCH  10  19
BRANCH  16  20
ATOM     20  O   UNL     1       3.380   1.779  19.654  0.00  0.00    +0.000 OA
ATOM     21  C   UNL     1       4.626   1.715  20.339  0.00  0.00    +0.000 C 
ENDBRANCH  16  20
ENDBRANCH   1  14
BRANCH   3  22
ATOM     22  C   UNL     1       6.896   4.662  14.156  0.00  0.00    +0.000 A 
ATOM     23  C   UNL     1       7.782   5.386  13.346  0.00  0.00    +0.000 A 
ATOM     24  C   UNL     1       7.836   5.148  11.975  0.00  0.00    +0.000 A 
ATOM     25  C   UNL     1       7.022   4.168  11.409  0.00  0.00    +0.000 A 
ATOM     26  C   UNL     1       6.164   3.407  12.215  0.00  0.00    +0.000 A 
ATOM     27  C   UNL     1       6.098   3.655  13.592  0.00  0.00    +0.000 A 
BRANCH  26  28
ATOM     28  C   UNL     1       5.298   2.409  11.534  0.00  0.00    +0.000 C 
ATOM     29  O   UNL     1       4.193   2.685  11.101  0.00  0.00    +0.000 OA
BRANCH  28  30
ATOM     30  O   UNL     1       5.853   1.182  11.408  0.00  0.00    +0.000 OA
ATOM     31  H   UNL     1       5.982   0.868  10.494  0.00  0.00    +0.000 HD
ENDBRANCH  28  30
ENDBRANCH  26  28
ENDBRANCH   3  22
TORSDOF 6
ENDMDL
MODEL 4
REMARK VINA RESULT:      -8.1      4.357      6.038
REMARK  Name = 
REMARK  8 active torsions:
REMARK  status: ('A' for Active; 'I' for Inactive)
REMARK    1  A    between atoms: C_1  and  O_2
REMARK    2  A    between atoms: O_2  and  C_3
REMARK    3  A    between atoms: N_7  and  C_8
REMARK    4  A    between atoms: C_10  and  C_11
REMARK    5  A    between atoms: C_15  and  C_16
REMARK    6  A    between atoms: C_16  and  O_18
REMARK    7  A    between atoms: C_27  and  O_28
REMARK    8  A    between atoms: O_28  and  C_29
REMARK                            x       y       z     vdW  Elec       q    Type
REMARK                         _______ _______ _______ _____ _____    ______ ____
ROOT
ATOM      1  C   UNL     1       1.177   9.292  18.723  0.00  0.00    +0.000 A 
ATOM      2  C   UNL     1       0.130   9.702  17.986  0.00  0.00    +0.000 A 
ATOM      3  C   UNL     1      -1.129  10.126  18.667  0.00  0.00    +0.000 A 
ATOM      4  N   UNL     1      -1.295  10.161  19.955  0.00  0.00    +0.000 NA
ATOM      5  N   UNL     1      -0.204   9.720  20.643  0.00  0.00    +0.000 N 
ATOM      6  C   UNL     1      -0.108   9.653  22.007  0.00  0.00    +0.000 A 
ATOM      7  C   UNL     1       1.148   9.155  22.266  0.00  0.00    +0.000 A 
ATOM      8  N   UNL     1       1.830   8.904  21.101  0.00  0.00    +0.000 NA
ATOM      9  C   UNL     1       1.000   9.260  20.138  0.00  0.00    +0.000 A 
ENDROOT
BRANCH   1  14
ATOM     10  C   UNL     1       3.393   4.893  17.653  0.00  0.00    +0.000 A 
ATOM     11  C   UNL     1       4.305   5.884  17.291  0.00  0.00    +0.000 A 
ATOM     12  C   UNL     1       3.988   7.230  17.476  0.00  0.00    +0.000 A 
ATOM     13  C   UNL     1       2.758   7.564  18.036  0.00  0.00    +0.000 A 
ATOM     14  N   UNL     1       2.409   8.937  18.163  0.00  0.00    +0.000 N 
ATOM     15  N   UNL     1       1.901   6.614  18.460  0.00  0.00    +0.000 NA
ATOM     16  C   UNL     1       2.214   5.313  18.263  0.00  0.00    +0.000 A 
ATOM     17  H   UNL     1       2.491   9.365  17.238  0.00  0.00    +0.000 HD
BRANCH  10  19
ATOM     18  C   UNL     1       4.505   2.958  18.439  0.00  0.00    +0.000 C 
ATOM     19  O   UNL     1       3.796   3.613  17.390  0.00  0.00    +0.000 OA
ENDBRANCH  10  19
BRANCH  16  20
ATOM     20  O   UNL     1       1.318   4.369  18.717  0.00  0.00    +0.000 OA
ATOM     21  C   UNL     1       1.324   4.197  20.130  0.00  0.00    +0.000 C 
ENDBRANCH  16  20
ENDBRANCH   1  14
BRANCH   3  22
ATOM     22  C   UNL     1      -2.232  10.569  17.766  0.00  0.00    +0.000 A 
ATOM     23  C   UNL     1      -3.266  11.386  18.241  0.00  0.00    +0.000 A 
ATOM     24  C   UNL     1      -4.332  11.727  17.412  0.00  0.00    +0.000 A 
ATOM     25  C   UNL     1      -4.358  11.271  16.095  0.00  0.00    +0.000 A 
ATOM     26  C   UNL     1      -3.308  10.489  15.594  0.00  0.00    +0.000 A 
ATOM     27  C   UNL     1      -2.242  10.134  16.431  0.00  0.00    +0.000 A 
BRANCH  26  28
ATOM     28  C   UNL     1      -3.426  10.008  14.193  0.00  0.00    +0.000 C 
ATOM     29  O   UNL     1      -2.455   9.799  13.486  0.00  0.00    +0.000 OA
BRANCH  28  30
ATOM     30  O   UNL     1      -4.696   9.790  13.782  0.00  0.00    +0.000 OA
ATOM     31  H   UNL     1      -5.021  10.383  13.080  0.00  0.00    +0.000 HD
ENDBRANCH  28  30
ENDBRANCH  26  28
ENDBRANCH   3  22
TORSDOF 6
ENDMDL
MODEL 5
REMARK VINA RESULT:      -8.0      1.416      1.976
REMARK  Name = 
REMARK  8 active torsions:
REMARK  status: ('A' for Active; 'I' for Inactive)
REMARK    1  A    between atoms: C_1  and  O_2
REMARK    2  A    between atoms: O_2  and  C_3
REMARK    3  A    between atoms: N_7  and  C_8
REMARK    4  A    between atoms: C_10  and  C_11
REMARK    5  A    between atoms: C_15  and  C_16
REMARK    6  A    between atoms: C_16  and  O_18
REMARK    7  A    between atoms: C_27  and  O_28
REMARK    8  A    between atoms: O_28  and  C_29
REMARK                            x       y       z     vdW  Elec       q    Type
REMARK                         _______ _______ _______ _____ _____    ______ ____
ROOT
ATOM      1  C   UNL     1       3.283   4.170  17.821  0.00  0.00    +0.000 A 
ATOM      2  C   UNL     1       2.777   5.365  18.171  0.00  0.00    +0.000 A 
ATOM      3  C   UNL     1       2.545   5.674  19.612  0.00  0.00    +0.000 A 
ATOM      4  N   UNL     1       2.827   4.869  20.593  0.00  0.00    +0.000 NA
ATOM      5  N   UNL     1       3.323   3.672  20.172  0.00  0.00    +0.000 N 
ATOM      6  C   UNL     1       3.702   2.644  20.993  0.00  0.00    +0.000 A 
ATOM      7  C   UNL     1       4.134   1.642  20.156  0.00  0.00    +0.000 A 
ATOM      8  N   UNL     1       4.026   2.015  18.839  0.00  0.00    +0.000 NA
ATOM      9  C   UNL     1       3.543   3.244  18.874  0.00  0.00    +0.000 A 
ENDROOT
BRANCH   1  14
ATOM     10  C   UNL     1       7.115   5.232  14.724  0.00  0.00    +0.000 A 
ATOM     11  C   UNL     1       6.228   4.449  13.987  0.00  0.00    +0.000 A 
ATOM     12  C   UNL     1       5.043   3.995  14.569  0.00  0.00    +0.000 A 
ATOM     13  C   UNL     1       4.759   4.346  15.885  0.00  0.00    +0.000 A 
ATOM     14  N   UNL     1       3.585   3.829  16.498  0.00  0.00    +0.000 N 
ATOM     15  N   UNL     1       5.572   5.166  16.582  0.00  0.00    +0.000 NA
ATOM     16  C   UNL     1       6.723   5.587  16.013  0.00  0.00    +0.000 A 
ATOM     17  H   UNL     1       3.612   2.811  16.414  0.00  0.00    +0.000 HD
BRANCH  10  19
ATOM     18  C   UNL     1       8.181   5.580  12.641  0.00  0.00    +0.000 C 
ATOM     19  O   UNL     1       8.260   5.584  14.064  0.00  0.00    +0.000 OA
ENDBRANCH  10  19
BRANCH  16  20
ATOM     20  O   UNL     1       7.525   6.430  16.751  0.00  0.00    +0.000 OA
ATOM     21  C   UNL     1       7.479   6.193  18.154  0.00  0.00    +0.000 C 
ENDBRANCH  16  20
ENDBRANCH   1  14
BRANCH   3  22
ATOM     22  C   UNL     1       1.984   7.025  19.901  0.00  0.00    +0.000 A 
ATOM     23  C   UNL     1       1.389   7.309  21.137  0.00  0.00    +0.000 A 
ATOM     24  C   UNL     1       0.798   8.550  21.366  0.00  0.00    +0.000 A 
ATOM     25  C   UNL     1       0.820   9.522  20.367  0.00  0.00    +0.000 A 
ATOM     26  C   UNL     1       1.451   9.266  19.142  0.00  0.00    +0.000 A 
ATOM     27  C   UNL     1       2.033   8.014  18.906  0.00  0.00    +0.000 A 
BRANCH  26  28
ATOM     28  C   UNL     1       1.398  10.337  18.112  0.00  0.00    +0.000 C 
ATOM     29  O   UNL     1       2.397  10.785  17.579  0.00  0.00    +0.000 OA
BRANCH  28  30
ATOM     30  O   UNL     1       0.148  10.745  17.795  0.00  0.00    +0.000 OA
ATOM     31  H   UNL     1      -0.050  10.799  16.842  0.00  0.00    +0.000 HD
ENDBRANCH  28  30
ENDBRANCH  26  28
ENDBRANCH   3  22
TORSDOF 6
ENDMDL
MODEL 6
REMARK VINA RESULT:      -8.0      1.764      6.893
REMARK  Name = 
REMARK  8 active torsions:
REMARK  status: ('A' for Active; 'I' for Inactive)
REMARK    1  A    between atoms: C_1  and  O_2
REMARK    2  A    between atoms: O_2  and  C_3
REMARK    3  A    between atoms: N_7  and  C_8
REMARK    4  A    between atoms: C_10  and  C_11
REMARK    5  A    between atoms: C_15  and  C_16
REMARK    6  A    between atoms: C_16  and  O_18
REMARK    7  A    between atoms: C_27  and  O_28
REMARK    8  A    between atoms: O_28  and  C_29
REMARK                            x       y       z     vdW  Elec       q    Type
REMARK                         _______ _______ _______ _____ _____    ______ ____
ROOT
ATOM      1  C   UNL     1       2.374   5.496  20.070  0.00  0.00    +0.000 A 
ATOM      2  C   UNL     1       3.446   5.823  19.329  0.00  0.00    +0.000 A 
ATOM      3  C   UNL     1       3.870   4.929  18.211  0.00  0.00    +0.000 A 
ATOM      4  N   UNL     1       3.252   3.841  17.862  0.00  0.00    +0.000 NA
ATOM      5  N   UNL     1       2.183   3.558  18.660  0.00  0.00    +0.000 N 
ATOM      6  C   UNL     1       1.358   2.476  18.517  0.00  0.00    +0.000 A 
ATOM      7  C   UNL     1       0.428   2.582  19.525  0.00  0.00    +0.000 A 
ATOM      8  N   UNL     1       0.657   3.697  20.293  0.00  0.00    +0.000 NA
ATOM      9  C   UNL     1       1.713   4.273  19.749  0.00  0.00    +0.000 A 
ENDROOT
BRANCH   1  14
ATOM     10  C   UNL     1       0.616  10.216  20.243  0.00  0.00    +0.000 A 
ATOM     11  C   UNL     1       0.570   9.738  21.552  0.00  0.00    +0.000 A 
ATOM     12  C   UNL     1       1.007   8.444  21.842  0.00  0.00    +0.000 A 
ATOM     13  C   UNL     1       1.497   7.650  20.810  0.00  0.00    +0.000 A 
ATOM     14  N   UNL     1       1.880   6.310  21.094  0.00  0.00    +0.000 N 
ATOM     15  N   UNL     1       1.617   8.128  19.555  0.00  0.00    +0.000 NA
ATOM     16  C   UNL     1       1.178   9.377  19.284  0.00  0.00    +0.000 A 
ATOM     17  H   UNL     1       1.083   5.845  21.535  0.00  0.00    +0.000 HD
BRANCH  10  19
ATOM     18  C   UNL     1       0.074  12.289  21.246  0.00  0.00    +0.000 C 
ATOM     19  O   UNL     1       0.125  11.481  20.073  0.00  0.00    +0.000 OA
ENDBRANCH  10  19
BRANCH  16  20
ATOM     20  O   UNL     1       1.324   9.835  17.992  0.00  0.00    +0.000 OA
ATOM     21  C   UNL     1       2.347  10.812  17.837  0.00  0.00    +0.000 C 
ENDBRANCH  16  20
ENDBRANCH   1  14
BRANCH   3  22
ATOM     22  C   UNL     1       5.068   5.378  17.444  0.00  0.00    +0.000 A 
ATOM     23  C   UNL     1       5.425   4.759  16.239  0.00  0.00    +0.000 A 
ATOM     24  C   UNL     1       6.590   5.133  15.573  0.00  0.00    +0.000 A 
ATOM     25  C   UNL     1       7.392   6.145  16.098  0.00  0.00    +0.000 A 
ATOM     26  C   UNL     1       7.023   6.803  17.279  0.00  0.00    +0.000 A 
ATOM     27  C   UNL     1       5.858   6.418  17.957  0.00  0.00    +0.000 A 
BRANCH  26  28
ATOM     28  C   UNL     1       7.949   7.844  17.796  0.00  0.00    +0.000 C 
ATOM     29  O   UNL     1       8.083   8.930  17.260  0.00  0.00    +0.000 OA
BRANCH  28  30
ATOM     30  O   UNL     1       8.601   7.497  18.929  0.00  0.00    +0.000 OA
ATOM     31  H   UNL     1       8.101   7.614  19.758  0.00  0.00    +0.000 HD
ENDBRANCH  28  30
ENDBRANCH  26  28
ENDBRANCH   3  22
TORSDOF 6
ENDMDL
MODEL 7
REMARK VINA RESULT:      -7.7      4.125      5.623
REMARK  Name = 
REMARK  8 active torsions:
REMARK  status: ('A' for Active; 'I' for Inactive)
REMARK    1  A    between atoms: C_1  and  O_2
REMARK    2  A    between atoms: O_2  and  C_3
REMARK    3  A    between atoms: N_7  and  C_8
REMARK    4  A    between atoms: C_10  and  C_11
REMARK    5  A    between atoms: C_15  and  C_16
REMARK    6  A    between atoms: C_16  and  O_18
REMARK    7  A    between atoms: C_27  and  O_28
REMARK    8  A    between atoms: O_28  and  C_29
REMARK                            x       y       z     vdW  Elec       q    Type
REMARK                         _______ _______ _______ _____ _____    ______ ____
ROOT
ATOM      1  C   UNL     1       1.198   9.340  18.686  0.00  0.00    +0.000 A 
ATOM      2  C   UNL     1       0.136   9.690  17.940  0.00  0.00    +0.000 A 
ATOM      3  C   UNL     1      -1.154  10.032  18.608  0.00  0.00    +0.000 A 
ATOM      4  N   UNL     1      -1.336  10.049  19.895  0.00  0.00    +0.000 NA
ATOM      5  N   UNL     1      -0.228   9.672  20.593  0.00  0.00    +0.000 N 
ATOM      6  C   UNL     1      -0.142   9.603  21.958  0.00  0.00    +0.000 A 
ATOM      7  C   UNL     1       1.138   9.181  22.228  0.00  0.00    +0.000 A 
ATOM      8  N   UNL     1       1.848   8.980  21.070  0.00  0.00    +0.000 NA
ATOM      9  C   UNL     1       1.008   9.290  20.099  0.00  0.00    +0.000 A 
ENDROOT
BRANCH   1  14
ATOM     10  C   UNL     1       3.638   5.094  17.497  0.00  0.00    +0.000 A 
ATOM     11  C   UNL     1       4.509   6.138  17.191  0.00  0.00    +0.000 A 
ATOM     12  C   UNL     1       4.125   7.461  17.420  0.00  0.00    +0.000 A 
ATOM     13  C   UNL     1       2.871   7.715  17.967  0.00  0.00    +0.000 A 
ATOM     14  N   UNL     1       2.455   9.064  18.139  0.00  0.00    +0.000 N 
ATOM     15  N   UNL     1       2.052   6.711  18.338  0.00  0.00    +0.000 NA
ATOM     16  C   UNL     1       2.429   5.435  18.098  0.00  0.00    +0.000 A 
ATOM     17  H   UNL     1       2.534   9.532  17.233  0.00  0.00    +0.000 HD
BRANCH  10  19
ATOM     18  C   UNL     1       5.197   3.797  16.278  0.00  0.00    +0.000 C 
ATOM     19  O   UNL     1       4.105   3.845  17.194  0.00  0.00    +0.000 OA
ENDBRANCH  10  19
BRANCH  16  20
ATOM     20  O   UNL     1       1.570   4.433  18.498  0.00  0.00    +0.000 OA
ATOM     21  C   UNL     1       1.717   4.055  19.862  0.00  0.00    +0.000 C 
ENDBRANCH  16  20
ENDBRANCH   1  14
BRANCH   3  22
ATOM     22  C   UNL     1      -2.272  10.411  17.697  0.00  0.00    +0.000 A 
ATOM     23  C   UNL     1      -2.205  10.141  16.324  0.00  0.00    +0.000 A 
ATOM     24  C   UNL     1      -3.219  10.571  15.471  0.00  0.00    +0.000 A 
ATOM     25  C   UNL     1      -4.317  11.254  15.991  0.00  0.00    +0.000 A 
ATOM     26  C   UNL     1      -4.418  11.493  17.368  0.00  0.00    +0.000 A 
ATOM     27  C   UNL     1      -3.391  11.072  18.225  0.00  0.00    +0.000 A 
BRANCH  26  28
ATOM     28  C   UNL     1      -5.598  12.262  17.842  0.00  0.00    +0.000 C 
ATOM     29  O   UNL     1      -6.734  12.009  17.482  0.00  0.00    +0.000 OA
BRANCH  28  30
ATOM     30  O   UNL     1      -5.307  13.240  18.729  0.00  0.00    +0.000 OA
ATOM     31  H   UNL     1      -5.347  14.151  18.383  0.00  0.00    +0.000 HD
ENDBRANCH  28  30
ENDBRANCH  26  28
ENDBRANCH   3  22
TORSDOF 6
ENDMDL
MODEL 8
REMARK VINA RESULT:      -7.5      0.881      1.093
REMARK  Name = 
REMARK  8 active torsions:
REMARK  status: ('A' for Active; 'I' for Inactive)
REMARK    1  A    between atoms: C_1  and  O_2
REMARK    2  A    between atoms: O_2  and  C_3
REMARK    3  A    between atoms: N_7  and  C_8
REMARK    4  A    between atoms: C_10  and  C_11
REMARK    5  A    between atoms: C_15  and  C_16
REMARK    6  A    between atoms: C_16  and  O_18
REMARK    7  A    between atoms: C_27  and  O_28
REMARK    8  A    between atoms: O_28  and  C_29
REMARK                            x       y       z     vdW  Elec       q    Type
REMARK                         _______ _______ _______ _____ _____    ______ ____
ROOT
ATOM      1  C   UNL     1       2.569   4.670  18.469  0.00  0.00    +0.000 A 
ATOM      2  C   UNL     1       2.174   5.940  18.659  0.00  0.00    +0.000 A 
ATOM      3  C   UNL     1       1.863   6.416  20.039  0.00  0.00    +0.000 A 
ATOM      4  N   UNL     1       1.974   5.691  21.112  0.00  0.00    +0.000 NA
ATOM      5  N   UNL     1       2.365   4.412  20.850  0.00  0.00    +0.000 N 
ATOM      6  C   UNL     1       2.561   3.440  21.794  0.00  0.00    +0.000 A 
ATOM      7  C   UNL     1       2.943   2.318  21.096  0.00  0.00    +0.000 A 
ATOM      8  N   UNL     1       2.983   2.565  19.746  0.00  0.00    +0.000 NA
ATOM      9  C   UNL     1       2.640   3.834  19.622  0.00  0.00    +0.000 A 
ENDROOT
BRANCH   1  14
ATOM     10  C   UNL     1       6.713   5.050  15.625  0.00  0.00    +0.000 A 
ATOM     11  C   UNL     1       5.811   4.278  14.893  0.00  0.00    +0.000 A 
ATOM     12  C   UNL     1       4.546   3.997  15.413  0.00  0.00    +0.000 A 
ATOM     13  C   UNL     1       4.199   4.508  16.659  0.00  0.00    +0.000 A 
ATOM     14  N   UNL     1       2.936   4.167  17.216  0.00  0.00    +0.000 N 
ATOM     15  N   UNL     1       5.033   5.318  17.340  0.00  0.00    +0.000 NA
ATOM     16  C   UNL     1       6.261   5.572  16.834  0.00  0.00    +0.000 A 
ATOM     17  H   UNL     1       2.869   3.146  17.234  0.00  0.00    +0.000 HD
BRANCH  10  19
ATOM     18  C   UNL     1       7.929   5.298  13.610  0.00  0.00    +0.000 C 
ATOM     19  O   UNL     1       7.934   5.226  15.034  0.00  0.00    +0.000 OA
ENDBRANCH  10  19
BRANCH  16  20
ATOM     20  O   UNL     1       7.084   6.411  17.554  0.00  0.00    +0.000 OA
ATOM     21  C   UNL     1       6.952   7.786  17.210  0.00  0.00    +0.000 C 
ENDBRANCH  16  20
ENDBRANCH   1  14
BRANCH   3  22
ATOM     22  C   UNL     1       1.437   7.841  20.149  0.00  0.00    +0.000 A 
ATOM     23  C   UNL     1       1.669   8.745  19.104  0.00  0.00    +0.000 A 
ATOM     24  C   UNL     1       1.339  10.091  19.250  0.00  0.00    +0.000 A 
ATOM     25  C   UNL     1       0.752  10.535  20.435  0.00  0.00    +0.000 A 
ATOM     26  C   UNL     1       0.474   9.633  21.470  0.00  0.00    +0.000 A 
ATOM     27  C   UNL     1       0.819   8.282  21.330  0.00  0.00    +0.000 A 
BRANCH  26  28
ATOM     28  C   UNL     1      -0.115  10.188  22.717  0.00  0.00    +0.000 C 
ATOM     29  O   UNL     1      -0.989  11.037  22.709  0.00  0.00    +0.000 OA
BRANCH  28  30
ATOM     30  O   UNL     1       0.376   9.647  23.855  0.00  0.00    +0.000 OA
ATOM     31  H   UNL     1       0.099  10.080  24.683  0.00  0.00    +0.000 HD
ENDBRANCH  28  30
ENDBRANCH  26  28
ENDBRANCH   3  22
TORSDOF 6
ENDMDL
MODEL 9
REMARK VINA RESULT:      -7.4      1.259      1.783
REMARK  Name = 
REMARK  8 active torsions:
REMARK  status: ('A' for Active; 'I' for Inactive)
REMARK    1  A    between atoms: C_1  and  O_2
REMARK    2  A    between atoms: O_2  and  C_3
REMARK    3  A    between atoms: N_7  and  C_8
REMARK    4  A    between atoms: C_10  and  C_11
REMARK    5  A    between atoms: C_15  and  C_16
REMARK    6  A    between atoms: C_16  and  O_18
REMARK    7  A    between atoms: C_27  and  O_28
REMARK    8  A    between atoms: O_28  and  C_29
REMARK                            x       y       z     vdW  Elec       q    Type
REMARK                         _______ _______ _______ _____ _____    ______ ____
ROOT
ATOM      1  C   UNL     1       2.559   4.609  18.556  0.00  0.00    +0.000 A 
ATOM      2  C   UNL     1       2.237   5.884  18.829  0.00  0.00    +0.000 A 
ATOM      3  C   UNL     1       1.940   6.285  20.236  0.00  0.00    +0.000 A 
ATOM      4  N   UNL     1       1.998   5.484  21.258  0.00  0.00    +0.000 NA
ATOM      5  N   UNL     1       2.316   4.204  20.913  0.00  0.00    +0.000 N 
ATOM      6  C   UNL     1       2.445   3.161  21.790  0.00  0.00    +0.000 A 
ATOM      7  C   UNL     1       2.767   2.068  21.020  0.00  0.00    +0.000 A 
ATOM      8  N   UNL     1       2.836   2.402  19.690  0.00  0.00    +0.000 NA
ATOM      9  C   UNL     1       2.569   3.694  19.650  0.00  0.00    +0.000 A 
ENDROOT
BRANCH   1  14
ATOM     10  C   UNL     1       6.602   5.262  15.618  0.00  0.00    +0.000 A 
ATOM     11  C   UNL     1       5.710   4.485  14.881  0.00  0.00    +0.000 A 
ATOM     12  C   UNL     1       4.472   4.135  15.422  0.00  0.00    +0.000 A 
ATOM     13  C   UNL     1       4.141   4.583  16.697  0.00  0.00    +0.000 A 
ATOM     14  N   UNL     1       2.909   4.170  17.274  0.00  0.00    +0.000 N 
ATOM     15  N   UNL     1       4.963   5.397  17.388  0.00  0.00    +0.000 NA
ATOM     16  C   UNL     1       6.165   5.718  16.859  0.00  0.00    +0.000 A 
ATOM     17  H   UNL     1       2.881   3.148  17.253  0.00  0.00    +0.000 HD
BRANCH  10  19
ATOM     18  C   UNL     1       7.808   5.356  13.585  0.00  0.00    +0.000 C 
ATOM     19  O   UNL     1       7.798   5.510  15.002  0.00  0.00    +0.000 OA
ENDBRANCH  10  19
BRANCH  16  20
ATOM     20  O   UNL     1       6.976   6.560  17.590  0.00  0.00    +0.000 OA
ATOM     21  C   UNL     1       7.663   5.920  18.659  0.00  0.00    +0.000 C 
ENDBRANCH  16  20
ENDBRANCH   1  14
BRANCH   3  22
ATOM     22  C   UNL     1       1.596   7.721  20.440  0.00  0.00    +0.000 A 
ATOM     23  C   UNL     1       1.244   8.205  21.707  0.00  0.00    +0.000 A 
ATOM     24  C   UNL     1       0.847   9.530  21.870  0.00  0.00    +0.000 A 
ATOM     25  C   UNL     1       0.824  10.386  20.769  0.00  0.00    +0.000 A 
ATOM     26  C   UNL     1       1.216   9.927  19.505  0.00  0.00    +0.000 A 
ATOM     27  C   UNL     1       1.602   8.590  19.337  0.00  0.00    +0.000 A 
BRANCH  26  28
ATOM     28  C   UNL     1       1.127  10.886  18.374  0.00  0.00    +0.000 C 
ATOM     29  O   UNL     1       0.292  11.773  18.329  0.00  0.00    +0.000 OA
BRANCH  28  30
ATOM     30  O   UNL     1       2.068  10.712  17.418  0.00  0.00    +0.000 OA
ATOM     31  H   UNL     1       2.077  11.380  16.708  0.00  0.00    +0.000 HD
ENDBRANCH  28  30
ENDBRANCH  26  28
ENDBRANCH   3  22
TORSDOF 6
ENDMDL
