MODEL 1
REMARK VINA RESULT:      -5.5      0.000      0.000
REMARK  Name = 
REMARK  24 active torsions:
REMARK  status: ('A' for Active; 'I' for Inactive)
REMARK    1  A    between atoms: C_1  and  C_2
REMARK    2  A    between atoms: C_2  and  C_3
REMARK    3  A    between atoms: C_3  and  C_4
REMARK    4  A    between atoms: C_4  and  C_5
REMARK    5  A    between atoms: C_5  and  C_6
REMARK    6  A    between atoms: C_6  and  C_7
REMARK    7  A    between atoms: C_7  and  C_8
REMARK    8  A    between atoms: C_8  and  C_9
REMARK    9  A    between atoms: C_9  and  C_10
REMARK   10  A    between atoms: C_10  and  C_11
REMARK   11  A    between atoms: C_11  and  C_12
REMARK   12  A    between atoms: C_12  and  C_13
REMARK   13  A    between atoms: C_13  and  C_14
REMARK   14  A    between atoms: C_14  and  C_15
REMARK   15  A    between atoms: C_15  and  C_16
REMARK   16  A    between atoms: C_16  and  C_17
REMARK   17  A    between atoms: C_17  and  C_18
REMARK   18  A    between atoms: C_18  and  O_19
REMARK   19  A    between atoms: O_19  and  C_20
REMARK   20  A    between atoms: C_20  and  C_21
REMARK   21  A    between atoms: C_21  and  C_22
REMARK   22  A    between atoms: C_21  and  N_28
REMARK   23  A    between atoms: C_22  and  N_23
REMARK   24  A    between atoms: C_29  and  C_30
REMARK                            x       y       z     vdW  Elec       q    Type
REMARK                         _______ _______ _______ _____ _____    ______ ____
ROOT
ATOM      1  C   UNL     1       8.841   9.311  18.944  0.00  0.00    +0.000 C 
ENDROOT
BRANCH   1   2
ATOM      2  C   UNL     1       9.311  10.746  19.100  0.00  0.00    +0.000 C 
BRANCH   2   3
ATOM      3  C   UNL     1      10.146  11.141  17.891  0.00  0.00    +0.000 C 
BRANCH   3   4
ATOM      4  O   UNL     1      10.006  12.540  17.660  0.00  0.00    +0.000 OA
BRANCH   4   5
ATOM      5  C   UNL     1       8.679  12.976  17.952  0.00  0.00    +0.000 C 
BRANCH   5   6
ATOM      6  C   UNL     1       8.724  14.353  18.634  0.00  0.00    +0.000 C 
BRANCH   6   7
ATOM      7  N   UNL     1       8.230  14.266  20.023  0.00  0.00    +0.000 N 
ATOM      8  C   UNL     1       8.963  13.856  21.094  0.00  0.00    +0.000 C 
ATOM      9  C   UNL     1       8.256  13.745  22.417  0.00  0.00    +0.000 C 
ATOM     10  O   UNL     1      10.172  13.609  20.974  0.00  0.00    +0.000 OA
ATOM     11  H   UNL     1       7.246  14.436  20.180  0.00  0.00    +0.000 HD
ENDBRANCH   6   7
BRANCH   6  12
ATOM     12  C   UNL     1       7.967  15.394  17.772  0.00  0.00    +0.000 C 
BRANCH  12  13
ATOM     13  N   UNL     1       6.731  15.827  18.385  0.00  0.00    +0.000 N 
ATOM     14  C   UNL     1       6.536  17.004  19.042  0.00  0.00    +0.000 A 
ATOM     15  C   UNL     1       5.246  16.925  19.515  0.00  0.00    +0.000 A 
ATOM     16  N   UNL     1       4.675  15.726  19.174  0.00  0.00    +0.000 NA
ATOM     17  C   UNL     1       5.580  15.096  18.466  0.00  0.00    +0.000 A 
ENDBRANCH  12  13
ENDBRANCH   6  12
ENDBRANCH   5   6
ENDBRANCH   4   5
ENDBRANCH   3   4
ENDBRANCH   2   3
ENDBRANCH   1   2
BRANCH   1  18
ATOM     18  C   UNL     1       8.352   9.061  17.530  0.00  0.00    +0.000 C 
BRANCH  18  19
ATOM     19  C   UNL     1       7.332   7.937  17.534  0.00  0.00    +0.000 C 
BRANCH  19  20
ATOM     20  C   UNL     1       7.797   6.818  18.445  0.00  0.00    +0.000 C 
BRANCH  20  21
ATOM     21  C   UNL     1       7.561   5.477  17.777  0.00  0.00    +0.000 C 
BRANCH  21  22
ATOM     22  C   UNL     1       6.079   5.153  17.786  0.00  0.00    +0.000 C 
BRANCH  22  23
ATOM     23  C   UNL     1       5.538   5.256  19.200  0.00  0.00    +0.000 C 
BRANCH  23  24
ATOM     24  C   UNL     1       4.130   5.816  19.171  0.00  0.00    +0.000 C 
BRANCH  24  25
ATOM     25  C   UNL     1       3.561   5.709  17.769  0.00  0.00    +0.000 C 
BRANCH  25  26
ATOM     26  C   UNL     1       2.351   4.794  17.772  0.00  0.00    +0.000 C 
BRANCH  26  27
ATOM     27  C   UNL     1       2.706   3.469  17.125  0.00  0.00    +0.000 C 
BRANCH  27  28
ATOM     28  C   UNL     1       2.266   2.324  18.017  0.00  0.00    +0.000 C 
BRANCH  28  29
ATOM     29  C   UNL     1       3.466   1.744  18.746  0.00  0.00    +0.000 C 
BRANCH  29  30
ATOM     30  C   UNL     1       3.568   2.343  20.138  0.00  0.00    +0.000 C 
BRANCH  30  32
ATOM     31  C   UNL     1       2.104   3.861  21.464  0.00  0.00    +0.000 C 
ATOM     32  C   UNL     1       2.181   2.535  20.733  0.00  0.00    +0.000 C 
ENDBRANCH  30  32
ENDBRANCH  29  30
ENDBRANCH  28  29
ENDBRANCH  27  28
ENDBRANCH  26  27
ENDBRANCH  25  26
ENDBRANCH  24  25
ENDBRANCH  23  24
ENDBRANCH  22  23
ENDBRANCH  21  22
ENDBRANCH  20  21
ENDBRANCH  19  20
ENDBRANCH  18  19
ENDBRANCH   1  18
TORSDOF 22
ENDMDL
MODEL 2
REMARK VINA RESULT:      -5.3      4.054      6.515
REMARK  Name = 
REMARK  24 active torsions:
REMARK  status: ('A' for Active; 'I' for Inactive)
REMARK    1  A    between atoms: C_1  and  C_2
REMARK    2  A    between atoms: C_2  and  C_3
REMARK    3  A    between atoms: C_3  and  C_4
REMARK    4  A    between atoms: C_4  and  C_5
REMARK    5  A    between atoms: C_5  and  C_6
REMARK    6  A    between atoms: C_6  and  C_7
REMARK    7  A    between atoms: C_7  and  C_8
REMARK    8  A    between atoms: C_8  and  C_9
REMARK    9  A    between atoms: C_9  and  C_10
REMARK   10  A    between atoms: C_10  and  C_11
REMARK   11  A    between atoms: C_11  and  C_12
REMARK   12  A    between atoms: C_12  and  C_13
REMARK   13  A    between atoms: C_13  and  C_14
REMARK   14  A    between atoms: C_14  and  C_15
REMARK   15  A    between atoms: C_15  and  C_16
REMARK   16  A    between atoms: C_16  and  C_17
REMARK   17  A    between atoms: C_17  and  C_18
REMARK   18  A    between atoms: C_18  and  O_19
REMARK   19  A    between atoms: O_19  and  C_20
REMARK   20  A    between atoms: C_20  and  C_21
REMARK   21  A    between atoms: C_21  and  C_22
REMARK   22  A    between atoms: C_21  and  N_28
REMARK   23  A    between atoms: C_22  and  N_23
REMARK   24  A    between atoms: C_29  and  C_30
REMARK                            x       y       z     vdW  Elec       q    Type
REMARK                         _______ _______ _______ _____ _____    ______ ____
ROOT
ATOM      1  C   UNL     1       3.326   6.926  18.438  0.00  0.00    +0.000 C 
ENDROOT
BRANCH   1   2
ATOM      2  C   UNL     1       2.799   8.091  17.619  0.00  0.00    +0.000 C 
BRANCH   2   3
ATOM      3  C   UNL     1       1.558   8.663  18.288  0.00  0.00    +0.000 C 
BRANCH   3   4
ATOM      4  O   UNL     1       1.850   9.964  18.787  0.00  0.00    +0.000 OA
BRANCH   4   5
ATOM      5  C   UNL     1       0.687  10.791  18.771  0.00  0.00    +0.000 C 
BRANCH   5   6
ATOM      6  C   UNL     1       0.831  11.908  19.817  0.00  0.00    +0.000 C 
BRANCH   6   7
ATOM      7  N   UNL     1      -0.124  11.714  20.927  0.00  0.00    +0.000 N 
ATOM      8  C   UNL     1       0.055  10.870  21.979  0.00  0.00    +0.000 C 
ATOM      9  C   UNL     1      -1.075  10.739  22.963  0.00  0.00    +0.000 C 
ATOM     10  O   UNL     1       1.122  10.256  22.120  0.00  0.00    +0.000 OA
ATOM     11  H   UNL     1      -1.021  12.173  20.856  0.00  0.00    +0.000 HD
ENDBRANCH   6   7
BRANCH   6  12
ATOM     12  C   UNL     1       0.709  13.292  19.131  0.00  0.00    +0.000 C 
BRANCH  12  13
ATOM     13  N   UNL     1       1.908  14.089  19.274  0.00  0.00    +0.000 N 
ATOM     14  C   UNL     1       2.922  13.853  20.152  0.00  0.00    +0.000 A 
ATOM     15  C   UNL     1       3.782  14.913  19.977  0.00  0.00    +0.000 A 
ATOM     16  N   UNL     1       3.298  15.782  19.033  0.00  0.00    +0.000 NA
ATOM     17  C   UNL     1       2.184  15.246  18.603  0.00  0.00    +0.000 A 
ENDBRANCH  12  13
ENDBRANCH   6  12
ENDBRANCH   5   6
ENDBRANCH   4   5
ENDBRANCH   3   4
ENDBRANCH   2   3
ENDBRANCH   1   2
BRANCH   1  18
ATOM     18  C   UNL     1       2.325   6.532  19.508  0.00  0.00    +0.000 C 
BRANCH  18  19
ATOM     19  C   UNL     1       1.665   5.217  19.130  0.00  0.00    +0.000 C 
BRANCH  19  20
ATOM     20  C   UNL     1       1.149   4.521  20.374  0.00  0.00    +0.000 C 
BRANCH  20  21
ATOM     21  C   UNL     1       2.290   4.287  21.345  0.00  0.00    +0.000 C 
BRANCH  21  22
ATOM     22  C   UNL     1       2.605   2.805  21.421  0.00  0.00    +0.000 C 
BRANCH  22  23
ATOM     23  C   UNL     1       3.563   2.424  20.307  0.00  0.00    +0.000 C 
BRANCH  23  24
ATOM     24  C   UNL     1       2.816   1.676  19.220  0.00  0.00    +0.000 C 
BRANCH  24  25
ATOM     25  C   UNL     1       3.465   1.941  17.875  0.00  0.00    +0.000 C 
BRANCH  25  26
ATOM     26  C   UNL     1       4.272   3.223  17.936  0.00  0.00    +0.000 C 
BRANCH  26  27
ATOM     27  C   UNL     1       4.113   3.995  16.639  0.00  0.00    +0.000 C 
BRANCH  27  28
ATOM     28  C   UNL     1       5.472   4.237  16.011  0.00  0.00    +0.000 C 
BRANCH  28  29
ATOM     29  C   UNL     1       5.755   5.728  15.948  0.00  0.00    +0.000 C 
BRANCH  29  30
ATOM     30  C   UNL     1       7.159   6.014  16.453  0.00  0.00    +0.000 C 
BRANCH  30  32
ATOM     31  C   UNL     1       7.690   5.682  18.865  0.00  0.00    +0.000 C 
ATOM     32  C   UNL     1       7.104   6.634  17.842  0.00  0.00    +0.000 C 
ENDBRANCH  30  32
ENDBRANCH  29  30
ENDBRANCH  28  29
ENDBRANCH  27  28
ENDBRANCH  26  27
ENDBRANCH  25  26
ENDBRANCH  24  25
ENDBRANCH  23  24
ENDBRANCH  22  23
ENDBRANCH  21  22
ENDBRANCH  20  21
ENDBRANCH  19  20
ENDBRANCH  18  19
ENDBRANCH   1  18
TORSDOF 22
ENDMDL
MODEL 3
REMARK VINA RESULT:      -5.3      1.569      2.089
REMARK  Name = 
REMARK  24 active torsions:
REMARK  status: ('A' for Active; 'I' for Inactive)
REMARK    1  A    between atoms: C_1  and  C_2
REMARK    2  A    between atoms: C_2  and  C_3
REMARK    3  A    between atoms: C_3  and  C_4
REMARK    4  A    between atoms: C_4  and  C_5
REMARK    5  A    between atoms: C_5  and  C_6
REMARK    6  A    between atoms: C_6  and  C_7
REMARK    7  A    between atoms: C_7  and  C_8
REMARK    8  A    between atoms: C_8  and  C_9
REMARK    9  A    between atoms: C_9  and  C_10
REMARK   10  A    between atoms: C_10  and  C_11
REMARK   11  A    between atoms: C_11  and  C_12
REMARK   12  A    between atoms: C_12  and  C_13
REMARK   13  A    between atoms: C_13  and  C_14
REMARK   14  A    between atoms: C_14  and  C_15
REMARK   15  A    between atoms: C_15  and  C_16
REMARK   16  A    between atoms: C_16  and  C_17
REMARK   17  A    between atoms: C_17  and  C_18
REMARK   18  A    between atoms: C_18  and  O_19
REMARK   19  A    between atoms: O_19  and  C_20
REMARK   20  A    between atoms: C_20  and  C_21
REMARK   21  A    between atoms: C_21  and  C_22
REMARK   22  A    between atoms: C_21  and  N_28
REMARK   23  A    between atoms: C_22  and  N_23
REMARK   24  A    between atoms: C_29  and  C_30
REMARK                            x       y       z     vdW  Elec       q    Type
REMARK                         _______ _______ _______ _____ _____    ______ ____
ROOT
ATOM      1  C   UNL     1       9.077   9.987  19.091  0.00  0.00    +0.000 C 
ENDROOT
BRANCH   1   2
ATOM      2  C   UNL     1       9.538  11.294  18.469  0.00  0.00    +0.000 C 
BRANCH   2   3
ATOM      3  C   UNL     1      10.916  11.653  19.003  0.00  0.00    +0.000 C 
BRANCH   3   4
ATOM      4  O   UNL     1      11.501  12.644  18.165  0.00  0.00    +0.000 OA
BRANCH   4   5
ATOM      5  C   UNL     1      10.512  13.547  17.672  0.00  0.00    +0.000 C 
BRANCH   5   6
ATOM      6  C   UNL     1      10.700  14.928  18.321  0.00  0.00    +0.000 C 
BRANCH   6   7
ATOM      7  N   UNL     1      10.259  14.910  19.730  0.00  0.00    +0.000 N 
ATOM      8  C   UNL     1      10.852  15.590  20.748  0.00  0.00    +0.000 C 
ATOM      9  C   UNL     1      10.314  15.371  22.135  0.00  0.00    +0.000 C 
ATOM     10  O   UNL     1      11.785  16.375  20.523  0.00  0.00    +0.000 OA
ATOM     11  H   UNL     1       9.515  14.272  19.978  0.00  0.00    +0.000 HD
ENDBRANCH   6   7
BRANCH   6  12
ATOM     12  C   UNL     1       9.997  16.012  17.466  0.00  0.00    +0.000 C 
BRANCH  12  13
ATOM     13  N   UNL     1       8.656  16.297  17.926  0.00  0.00    +0.000 N 
ATOM     14  C   UNL     1       8.259  17.426  18.575  0.00  0.00    +0.000 A 
ATOM     15  C   UNL     1       6.936  17.201  18.879  0.00  0.00    +0.000 A 
ATOM     16  N   UNL     1       6.541  15.961  18.446  0.00  0.00    +0.000 NA
ATOM     17  C   UNL     1       7.587  15.450  17.847  0.00  0.00    +0.000 A 
ENDBRANCH  12  13
ENDBRANCH   6  12
ENDBRANCH   5   6
ENDBRANCH   4   5
ENDBRANCH   3   4
ENDBRANCH   2   3
ENDBRANCH   1   2
BRANCH   1  18
ATOM     18  C   UNL     1       8.360   9.133  18.063  0.00  0.00    +0.000 C 
BRANCH  18  19
ATOM     19  C   UNL     1       8.278   7.699  18.558  0.00  0.00    +0.000 C 
BRANCH  19  20
ATOM     20  C   UNL     1       7.590   6.833  17.522  0.00  0.00    +0.000 C 
BRANCH  20  21
ATOM     21  C   UNL     1       7.616   5.382  17.964  0.00  0.00    +0.000 C 
BRANCH  21  22
ATOM     22  C   UNL     1       6.981   4.509  16.898  0.00  0.00    +0.000 C 
BRANCH  22  23
ATOM     23  C   UNL     1       5.473   4.669  16.932  0.00  0.00    +0.000 C 
BRANCH  23  24
ATOM     24  C   UNL     1       5.069   5.901  16.147  0.00  0.00    +0.000 C 
BRANCH  24  25
ATOM     25  C   UNL     1       4.106   6.740  16.967  0.00  0.00    +0.000 C 
BRANCH  25  26
ATOM     26  C   UNL     1       3.740   6.005  18.242  0.00  0.00    +0.000 C 
BRANCH  26  27
ATOM     27  C   UNL     1       2.235   5.839  18.327  0.00  0.00    +0.000 C 
BRANCH  27  28
ATOM     28  C   UNL     1       1.827   4.509  17.722  0.00  0.00    +0.000 C 
BRANCH  28  29
ATOM     29  C   UNL     1       1.731   3.453  18.809  0.00  0.00    +0.000 C 
BRANCH  29  30
ATOM     30  C   UNL     1       2.025   2.080  18.229  0.00  0.00    +0.000 C 
BRANCH  30  32
ATOM     31  C   UNL     1       4.067   2.300  19.640  0.00  0.00    +0.000 C 
ATOM     32  C   UNL     1       3.512   1.770  18.333  0.00  0.00    +0.000 C 
ENDBRANCH  30  32
ENDBRANCH  29  30
ENDBRANCH  28  29
ENDBRANCH  27  28
ENDBRANCH  26  27
ENDBRANCH  25  26
ENDBRANCH  24  25
ENDBRANCH  23  24
ENDBRANCH  22  23
ENDBRANCH  21  22
ENDBRANCH  20  21
ENDBRANCH  19  20
ENDBRANCH  18  19
ENDBRANCH   1  18
TORSDOF 22
ENDMDL
MODEL 4
REMARK VINA RESULT:      -5.3      5.061      7.398
REMARK  Name = 
REMARK  24 active torsions:
REMARK  status: ('A' for Active; 'I' for Inactive)
REMARK    1  A    between atoms: C_1  and  C_2
REMARK    2  A    between atoms: C_2  and  C_3
REMARK    3  A    between atoms: C_3  and  C_4
REMARK    4  A    between atoms: C_4  and  C_5
REMARK    5  A    between atoms: C_5  and  C_6
REMARK    6  A    between atoms: C_6  and  C_7
REMARK    7  A    between atoms: C_7  and  C_8
REMARK    8  A    between atoms: C_8  and  C_9
REMARK    9  A    between atoms: C_9  and  C_10
REMARK   10  A    between atoms: C_10  and  C_11
REMARK   11  A    between atoms: C_11  and  C_12
REMARK   12  A    between atoms: C_12  and  C_13
REMARK   13  A    between atoms: C_13  and  C_14
REMARK   14  A    between atoms: C_14  and  C_15
REMARK   15  A    between atoms: C_15  and  C_16
REMARK   16  A    between atoms: C_16  and  C_17
REMARK   17  A    between atoms: C_17  and  C_18
REMARK   18  A    between atoms: C_18  and  O_19
REMARK   19  A    between atoms: O_19  and  C_20
REMARK   20  A    between atoms: C_20  and  C_21
REMARK   21  A    between atoms: C_21  and  C_22
REMARK   22  A    between atoms: C_21  and  N_28
REMARK   23  A    between atoms: C_22  and  N_23
REMARK   24  A    between atoms: C_29  and  C_30
REMARK                            x       y       z     vdW  Elec       q    Type
REMARK                         _______ _______ _______ _____ _____    ______ ____
ROOT
ATOM      1  C   UNL     1       2.708   6.422  18.518  0.00  0.00    +0.000 C 
ENDROOT
BRANCH   1   2
ATOM      2  C   UNL     1       2.161   7.671  17.851  0.00  0.00    +0.000 C 
BRANCH   2   3
ATOM      3  C   UNL     1       1.228   8.393  18.811  0.00  0.00    +0.000 C 
BRANCH   3   4
ATOM      4  O   UNL     1       1.723   9.708  19.047  0.00  0.00    +0.000 OA
BRANCH   4   5
ATOM      5  C   UNL     1       0.814  10.460  19.850  0.00  0.00    +0.000 C 
BRANCH   5   6
ATOM      6  C   UNL     1       0.255  11.638  19.036  0.00  0.00    +0.000 C 
BRANCH   6   7
ATOM      7  N   UNL     1      -0.500  11.153  17.863  0.00  0.00    +0.000 N 
ATOM      8  C   UNL     1      -1.855  11.051  17.788  0.00  0.00    +0.000 C 
ATOM      9  C   UNL     1      -2.436  10.444  16.540  0.00  0.00    +0.000 C 
ATOM     10  O   UNL     1      -2.571  11.466  18.710  0.00  0.00    +0.000 OA
ATOM     11  H   UNL     1       0.031  10.781  17.088  0.00  0.00    +0.000 HD
ENDBRANCH   6   7
BRANCH   6  12
ATOM     12  C   UNL     1       1.397  12.619  18.674  0.00  0.00    +0.000 C 
BRANCH  12  13
ATOM     13  N   UNL     1       1.005  14.003  18.817  0.00  0.00    +0.000 N 
ATOM     14  C   UNL     1       1.851  15.065  18.931  0.00  0.00    +0.000 A 
ATOM     15  C   UNL     1       1.023  16.146  19.128  0.00  0.00    +0.000 A 
ATOM     16  N   UNL     1      -0.291  15.754  19.152  0.00  0.00    +0.000 NA
ATOM     17  C   UNL     1      -0.276  14.464  18.930  0.00  0.00    +0.000 A 
ENDBRANCH  12  13
ENDBRANCH   6  12
ENDBRANCH   5   6
ENDBRANCH   4   5
ENDBRANCH   3   4
ENDBRANCH   2   3
ENDBRANCH   1   2
BRANCH   1  18
ATOM     18  C   UNL     1       2.118   5.177  17.882  0.00  0.00    +0.000 C 
BRANCH  18  19
ATOM     19  C   UNL     1       3.055   4.001  18.096  0.00  0.00    +0.000 C 
BRANCH  19  20
ATOM     20  C   UNL     1       3.796   4.163  19.409  0.00  0.00    +0.000 C 
BRANCH  20  21
ATOM     21  C   UNL     1       5.275   3.895  19.201  0.00  0.00    +0.000 C 
BRANCH  21  22
ATOM     22  C   UNL     1       6.036   5.207  19.174  0.00  0.00    +0.000 C 
BRANCH  22  23
ATOM     23  C   UNL     1       7.254   5.078  18.278  0.00  0.00    +0.000 C 
BRANCH  23  24
ATOM     24  C   UNL     1       7.267   6.203  17.263  0.00  0.00    +0.000 C 
BRANCH  24  25
ATOM     25  C   UNL     1       5.869   6.771  17.105  0.00  0.00    +0.000 C 
BRANCH  25  26
ATOM     26  C   UNL     1       5.243   6.248  15.826  0.00  0.00    +0.000 C 
BRANCH  26  27
ATOM     27  C   UNL     1       6.216   5.326  15.116  0.00  0.00    +0.000 C 
BRANCH  27  28
ATOM     28  C   UNL     1       5.454   4.334  14.257  0.00  0.00    +0.000 C 
BRANCH  28  29
ATOM     29  C   UNL     1       6.427   3.509  13.432  0.00  0.00    +0.000 C 
BRANCH  29  30
ATOM     30  C   UNL     1       5.856   3.264  12.046  0.00  0.00    +0.000 C 
BRANCH  30  32
ATOM     31  C   UNL     1       3.681   2.999  10.859  0.00  0.00    +0.000 C 
ATOM     32  C   UNL     1       4.402   3.710  11.987  0.00  0.00    +0.000 C 
ENDBRANCH  30  32
ENDBRANCH  29  30
ENDBRANCH  28  29
ENDBRANCH  27  28
ENDBRANCH  26  27
ENDBRANCH  25  26
ENDBRANCH  24  25
ENDBRANCH  23  24
ENDBRANCH  22  23
ENDBRANCH  21  22
ENDBRANCH  20  21
ENDBRANCH  19  20
ENDBRANCH  18  19
ENDBRANCH   1  18
TORSDOF 22
ENDMDL
MODEL 5
REMARK VINA RESULT:      -5.3      5.424      7.966
REMARK  Name = 
REMARK  24 active torsions:
REMARK  status: ('A' for Active; 'I' for Inactive)
REMARK    1  A    between atoms: C_1  and  C_2
REMARK    2  A    between atoms: C_2  and  C_3
REMARK    3  A    between atoms: C_3  and  C_4
REMARK    4  A    between atoms: C_4  and  C_5
REMARK    5  A    between atoms: C_5  and  C_6
REMARK    6  A    between atoms: C_6  and  C_7
REMARK    7  A    between atoms: C_7  and  C_8
REMARK    8  A    between atoms: C_8  and  C_9
REMARK    9  A    between atoms: C_9  and  C_10
REMARK   10  A    between atoms: C_10  and  C_11
REMARK   11  A    between atoms: C_11  and  C_12
REMARK   12  A    between atoms: C_12  and  C_13
REMARK   13  A    between atoms: C_13  and  C_14
REMARK   14  A    between atoms: C_14  and  C_15
REMARK   15  A    between atoms: C_15  and  C_16
REMARK   16  A    between atoms: C_16  and  C_17
REMARK   17  A    between atoms: C_17  and  C_18
REMARK   18  A    between atoms: C_18  and  O_19
REMARK   19  A    between atoms: O_19  and  C_20
REMARK   20  A    between atoms: C_20  and  C_21
REMARK   21  A    between atoms: C_21  and  C_22
REMARK   22  A    between atoms: C_21  and  N_28
REMARK   23  A    between atoms: C_22  and  N_23
REMARK   24  A    between atoms: C_29  and  C_30
REMARK                            x       y       z     vdW  Elec       q    Type
REMARK                         _______ _______ _______ _____ _____    ______ ____
ROOT
ATOM      1  C   UNL     1       2.564   2.492  20.322  0.00  0.00    +0.000 C 
ENDROOT
BRANCH   1   2
ATOM      2  C   UNL     1       1.700   3.519  21.032  0.00  0.00    +0.000 C 
BRANCH   2   3
ATOM      3  C   UNL     1       2.452   4.837  21.128  0.00  0.00    +0.000 C 
BRANCH   3   4
ATOM      4  O   UNL     1       1.999   5.713  20.099  0.00  0.00    +0.000 OA
BRANCH   4   5
ATOM      5  C   UNL     1       0.923   6.529  20.560  0.00  0.00    +0.000 C 
BRANCH   5   6
ATOM      6  C   UNL     1       1.377   7.996  20.629  0.00  0.00    +0.000 C 
BRANCH   6   7
ATOM      7  N   UNL     1       0.415   8.808  21.400  0.00  0.00    +0.000 N 
ATOM      8  C   UNL     1       0.707   9.516  22.525  0.00  0.00    +0.000 C 
ATOM      9  C   UNL     1      -0.431  10.207  23.225  0.00  0.00    +0.000 C 
ATOM     10  O   UNL     1       1.875   9.599  22.933  0.00  0.00    +0.000 OA
ATOM     11  H   UNL     1      -0.558   8.763  21.128  0.00  0.00    +0.000 HD
ENDBRANCH   6   7
BRANCH   6  12
ATOM     12  C   UNL     1       1.637   8.535  19.201  0.00  0.00    +0.000 C 
BRANCH  12  13
ATOM     13  N   UNL     1       0.921   9.763  18.934  0.00  0.00    +0.000 N 
ATOM     14  C   UNL     1       1.322  11.014  19.292  0.00  0.00    +0.000 A 
ATOM     15  C   UNL     1       0.286  11.833  18.903  0.00  0.00    +0.000 A 
ATOM     16  N   UNL     1      -0.727  11.101  18.340  0.00  0.00    +0.000 NA
ATOM     17  C   UNL     1      -0.306   9.861  18.341  0.00  0.00    +0.000 A 
ENDBRANCH  12  13
ENDBRANCH   6  12
ENDBRANCH   5   6
ENDBRANCH   4   5
ENDBRANCH   3   4
ENDBRANCH   2   3
ENDBRANCH   1   2
BRANCH   1  18
ATOM     18  C   UNL     1       2.065   2.263  18.907  0.00  0.00    +0.000 C 
BRANCH  18  19
ATOM     19  C   UNL     1       3.208   2.451  17.926  0.00  0.00    +0.000 C 
BRANCH  19  20
ATOM     20  C   UNL     1       3.068   3.784  17.218  0.00  0.00    +0.000 C 
BRANCH  20  21
ATOM     21  C   UNL     1       4.275   4.654  17.514  0.00  0.00    +0.000 C 
BRANCH  21  22
ATOM     22  C   UNL     1       5.051   4.075  18.682  0.00  0.00    +0.000 C 
BRANCH  22  23
ATOM     23  C   UNL     1       5.932   5.146  19.297  0.00  0.00    +0.000 C 
BRANCH  23  24
ATOM     24  C   UNL     1       7.235   5.244  18.526  0.00  0.00    +0.000 C 
BRANCH  24  25
ATOM     25  C   UNL     1       7.470   6.679  18.095  0.00  0.00    +0.000 C 
BRANCH  25  26
ATOM     26  C   UNL     1       7.313   6.797  16.590  0.00  0.00    +0.000 C 
BRANCH  26  27
ATOM     27  C   UNL     1       7.325   5.416  15.962  0.00  0.00    +0.000 C 
BRANCH  27  28
ATOM     28  C   UNL     1       6.446   5.404  14.725  0.00  0.00    +0.000 C 
BRANCH  28  29
ATOM     29  C   UNL     1       6.468   4.025  14.088  0.00  0.00    +0.000 C 
BRANCH  29  30
ATOM     30  C   UNL     1       5.138   3.744  13.409  0.00  0.00    +0.000 C 
BRANCH  30  32
ATOM     31  C   UNL     1       4.082   3.333  11.191  0.00  0.00    +0.000 C 
ATOM     32  C   UNL     1       5.365   3.236  11.993  0.00  0.00    +0.000 C 
ENDBRANCH  30  32
ENDBRANCH  29  30
ENDBRANCH  28  29
ENDBRANCH  27  28
ENDBRANCH  26  27
ENDBRANCH  25  26
ENDBRANCH  24  25
ENDBRANCH  23  24
ENDBRANCH  22  23
ENDBRANCH  21  22
ENDBRANCH  20  21
ENDBRANCH  19  20
ENDBRANCH  18  19
ENDBRANCH   1  18
TORSDOF 22
ENDMDL
MODEL 6
REMARK VINA RESULT:      -5.2      5.002      6.951
REMARK  Name = 
REMARK  24 active torsions:
REMARK  status: ('A' for Active; 'I' for Inactive)
REMARK    1  A    between atoms: C_1  and  C_2
REMARK    2  A    between atoms: C_2  and  C_3
REMARK    3  A    between atoms: C_3  and  C_4
REMARK    4  A    between atoms: C_4  and  C_5
REMARK    5  A    between atoms: C_5  and  C_6
REMARK    6  A    between atoms: C_6  and  C_7
REMARK    7  A    between atoms: C_7  and  C_8
REMARK    8  A    between atoms: C_8  and  C_9
REMARK    9  A    between atoms: C_9  and  C_10
REMARK   10  A    between atoms: C_10  and  C_11
REMARK   11  A    between atoms: C_11  and  C_12
REMARK   12  A    between atoms: C_12  and  C_13
REMARK   13  A    between atoms: C_13  and  C_14
REMARK   14  A    between atoms: C_14  and  C_15
REMARK   15  A    between atoms: C_15  and  C_16
REMARK   16  A    between atoms: C_16  and  C_17
REMARK   17  A    between atoms: C_17  and  C_18
REMARK   18  A    between atoms: C_18  and  O_19
REMARK   19  A    between atoms: O_19  and  C_20
REMARK   20  A    between atoms: C_20  and  C_21
REMARK   21  A    between atoms: C_21  and  C_22
REMARK   22  A    between atoms: C_21  and  N_28
REMARK   23  A    between atoms: C_22  and  N_23
REMARK   24  A    between atoms: C_29  and  C_30
REMARK                            x       y       z     vdW  Elec       q    Type
REMARK                         _______ _______ _______ _____ _____    ______ ____
ROOT
ATOM      1  C   UNL     1       0.953   7.994  20.873  0.00  0.00    +0.000 C 
ENDROOT
BRANCH   1   2
ATOM      2  C   UNL     1       1.515   8.844  21.999  0.00  0.00    +0.000 C 
BRANCH   2   3
ATOM      3  C   UNL     1       0.385   9.612  22.668  0.00  0.00    +0.000 C 
BRANCH   3   4
ATOM      4  O   UNL     1      -0.512  10.092  21.671  0.00  0.00    +0.000 OA
BRANCH   4   5
ATOM      5  C   UNL     1      -0.262  11.466  21.377  0.00  0.00    +0.000 C 
BRANCH   5   6
ATOM      6  C   UNL     1      -0.282  11.682  19.855  0.00  0.00    +0.000 C 
BRANCH   6   7
ATOM      7  N   UNL     1      -1.110  10.656  19.190  0.00  0.00    +0.000 N 
ATOM      8  C   UNL     1      -1.889  10.864  18.094  0.00  0.00    +0.000 C 
ATOM      9  C   UNL     1      -2.735   9.716  17.617  0.00  0.00    +0.000 C 
ATOM     10  O   UNL     1      -1.874  11.956  17.507  0.00  0.00    +0.000 OA
ATOM     11  H   UNL     1      -1.178   9.751  19.635  0.00  0.00    +0.000 HD
ENDBRANCH   6   7
BRANCH   6  12
ATOM     12  C   UNL     1       1.167  11.754  19.313  0.00  0.00    +0.000 C 
BRANCH  12  13
ATOM     13  N   UNL     1       1.558  13.099  18.953  0.00  0.00    +0.000 N 
ATOM     14  C   UNL     1       2.806  13.492  18.573  0.00  0.00    +0.000 A 
ATOM     15  C   UNL     1       2.705  14.856  18.421  0.00  0.00    +0.000 A 
ATOM     16  N   UNL     1       1.438  15.287  18.717  0.00  0.00    +0.000 NA
ATOM     17  C   UNL     1       0.759  14.205  19.004  0.00  0.00    +0.000 A 
ENDBRANCH  12  13
ENDBRANCH   6  12
ENDBRANCH   5   6
ENDBRANCH   4   5
ENDBRANCH   3   4
ENDBRANCH   2   3
ENDBRANCH   1   2
BRANCH   1  18
ATOM     18  C   UNL     1       2.073   7.455  20.003  0.00  0.00    +0.000 C 
BRANCH  18  19
ATOM     19  C   UNL     1       2.087   8.192  18.675  0.00  0.00    +0.000 C 
BRANCH  19  20
ATOM     20  C   UNL     1       2.675   7.303  17.597  0.00  0.00    +0.000 C 
BRANCH  20  21
ATOM     21  C   UNL     1       4.185   7.260  17.731  0.00  0.00    +0.000 C 
BRANCH  21  22
ATOM     22  C   UNL     1       4.820   7.146  16.358  0.00  0.00    +0.000 C 
BRANCH  22  23
ATOM     23  C   UNL     1       5.923   6.104  16.386  0.00  0.00    +0.000 C 
BRANCH  23  24
ATOM     24  C   UNL     1       5.661   5.050  15.328  0.00  0.00    +0.000 C 
BRANCH  24  25
ATOM     25  C   UNL     1       5.390   3.712  15.991  0.00  0.00    +0.000 C 
BRANCH  25  26
ATOM     26  C   UNL     1       4.021   3.729  16.644  0.00  0.00    +0.000 C 
BRANCH  26  27
ATOM     27  C   UNL     1       4.120   3.195  18.061  0.00  0.00    +0.000 C 
BRANCH  27  28
ATOM     28  C   UNL     1       3.232   4.009  18.983  0.00  0.00    +0.000 C 
BRANCH  28  29
ATOM     29  C   UNL     1       1.800   3.986  18.476  0.00  0.00    +0.000 C 
BRANCH  29  30
ATOM     30  C   UNL     1       1.006   2.920  19.210  0.00  0.00    +0.000 C 
BRANCH  30  32
ATOM     31  C   UNL     1       1.329   2.887  21.680  0.00  0.00    +0.000 C 
ATOM     32  C   UNL     1       1.826   2.344  20.355  0.00  0.00    +0.000 C 
ENDBRANCH  30  32
ENDBRANCH  29  30
ENDBRANCH  28  29
ENDBRANCH  27  28
ENDBRANCH  26  27
ENDBRANCH  25  26
ENDBRANCH  24  25
ENDBRANCH  23  24
ENDBRANCH  22  23
ENDBRANCH  21  22
ENDBRANCH  20  21
ENDBRANCH  19  20
ENDBRANCH  18  19
ENDBRANCH   1  18
TORSDOF 22
ENDMDL
MODEL 7
REMARK VINA RESULT:      -5.2      5.225      7.000
REMARK  Name = 
REMARK  24 active torsions:
REMARK  status: ('A' for Active; 'I' for Inactive)
REMARK    1  A    between atoms: C_1  and  C_2
REMARK    2  A    between atoms: C_2  and  C_3
REMARK    3  A    between atoms: C_3  and  C_4
REMARK    4  A    between atoms: C_4  and  C_5
REMARK    5  A    between atoms: C_5  and  C_6
REMARK    6  A    between atoms: C_6  and  C_7
REMARK    7  A    between atoms: C_7  and  C_8
REMARK    8  A    between atoms: C_8  and  C_9
REMARK    9  A    between atoms: C_9  and  C_10
REMARK   10  A    between atoms: C_10  and  C_11
REMARK   11  A    between atoms: C_11  and  C_12
REMARK   12  A    between atoms: C_12  and  C_13
REMARK   13  A    between atoms: C_13  and  C_14
REMARK   14  A    between atoms: C_14  and  C_15
REMARK   15  A    between atoms: C_15  and  C_16
REMARK   16  A    between atoms: C_16  and  C_17
REMARK   17  A    between atoms: C_17  and  C_18
REMARK   18  A    between atoms: C_18  and  O_19
REMARK   19  A    between atoms: O_19  and  C_20
REMARK   20  A    between atoms: C_20  and  C_21
REMARK   21  A    between atoms: C_21  and  C_22
REMARK   22  A    between atoms: C_21  and  N_28
REMARK   23  A    between atoms: C_22  and  N_23
REMARK   24  A    between atoms: C_29  and  C_30
REMARK                            x       y       z     vdW  Elec       q    Type
REMARK                         _______ _______ _______ _____ _____    ______ ____
ROOT
ATOM      1  C   UNL     1       3.739   6.748  17.544  0.00  0.00    +0.000 C 
ENDROOT
BRANCH   1   2
ATOM      2  C   UNL     1       3.445   8.237  17.565  0.00  0.00    +0.000 C 
BRANCH   2   3
ATOM      3  C   UNL     1       1.993   8.463  17.956  0.00  0.00    +0.000 C 
BRANCH   3   4
ATOM      4  O   UNL     1       1.759   9.860  18.107  0.00  0.00    +0.000 OA
BRANCH   4   5
ATOM      5  C   UNL     1       0.762  10.108  19.098  0.00  0.00    +0.000 C 
BRANCH   5   6
ATOM      6  C   UNL     1      -0.363  10.967  18.499  0.00  0.00    +0.000 C 
BRANCH   6   7
ATOM      7  N   UNL     1      -0.458  12.266  19.195  0.00  0.00    +0.000 N 
ATOM      8  C   UNL     1       0.381  13.320  19.009  0.00  0.00    +0.000 C 
ATOM      9  C   UNL     1       0.180  14.530  19.880  0.00  0.00    +0.000 C 
ATOM     10  O   UNL     1       1.259  13.281  18.134  0.00  0.00    +0.000 OA
ATOM     11  H   UNL     1      -1.142  12.350  19.934  0.00  0.00    +0.000 HD
ENDBRANCH   6   7
BRANCH   6  12
ATOM     12  C   UNL     1      -1.691  10.168  18.495  0.00  0.00    +0.000 C 
BRANCH  12  13
ATOM     13  N   UNL     1      -2.618  10.640  17.490  0.00  0.00    +0.000 N 
ATOM     14  C   UNL     1      -3.817  11.239  17.730  0.00  0.00    +0.000 A 
ATOM     15  C   UNL     1      -4.365  11.425  16.481  0.00  0.00    +0.000 A 
ATOM     16  N   UNL     1      -3.533  10.937  15.507  0.00  0.00    +0.000 NA
ATOM     17  C   UNL     1      -2.473  10.499  16.139  0.00  0.00    +0.000 A 
ENDBRANCH  12  13
ENDBRANCH   6  12
ENDBRANCH   5   6
ENDBRANCH   4   5
ENDBRANCH   3   4
ENDBRANCH   2   3
ENDBRANCH   1   2
BRANCH   1  18
ATOM     18  C   UNL     1       5.154   6.477  18.019  0.00  0.00    +0.000 C 
BRANCH  18  19
ATOM     19  C   UNL     1       6.121   7.393  17.291  0.00  0.00    +0.000 C 
BRANCH  19  20
ATOM     20  C   UNL     1       7.378   6.630  16.922  0.00  0.00    +0.000 C 
BRANCH  20  21
ATOM     21  C   UNL     1       7.083   5.143  16.877  0.00  0.00    +0.000 C 
BRANCH  21  22
ATOM     22  C   UNL     1       7.012   4.676  15.435  0.00  0.00    +0.000 C 
BRANCH  22  23
ATOM     23  C   UNL     1       5.714   3.926  15.200  0.00  0.00    +0.000 C 
BRANCH  23  24
ATOM     24  C   UNL     1       5.164   3.423  16.520  0.00  0.00    +0.000 C 
BRANCH  24  25
ATOM     25  C   UNL     1       3.650   3.348  16.451  0.00  0.00    +0.000 C 
BRANCH  25  26
ATOM     26  C   UNL     1       3.073   3.302  17.853  0.00  0.00    +0.000 C 
BRANCH  26  27
ATOM     27  C   UNL     1       4.133   2.833  18.832  0.00  0.00    +0.000 C 
BRANCH  27  28
ATOM     28  C   UNL     1       3.502   2.550  20.182  0.00  0.00    +0.000 C 
BRANCH  28  29
ATOM     29  C   UNL     1       2.004   2.358  20.023  0.00  0.00    +0.000 C 
BRANCH  29  30
ATOM     30  C   UNL     1       1.257   3.290  20.962  0.00  0.00    +0.000 C 
BRANCH  30  32
ATOM     31  C   UNL     1       1.693   5.697  20.487  0.00  0.00    +0.000 C 
ATOM     32  C   UNL     1       2.120   4.495  21.306  0.00  0.00    +0.000 C 
ENDBRANCH  30  32
ENDBRANCH  29  30
ENDBRANCH  28  29
ENDBRANCH  27  28
ENDBRANCH  26  27
ENDBRANCH  25  26
ENDBRANCH  24  25
ENDBRANCH  23  24
ENDBRANCH  22  23
ENDBRANCH  21  22
ENDBRANCH  20  21
ENDBRANCH  19  20
ENDBRANCH  18  19
ENDBRANCH   1  18
TORSDOF 22
ENDMDL
MODEL 8
REMARK VINA RESULT:      -5.1      5.672      8.085
REMARK  Name = 
REMARK  24 active torsions:
REMARK  status: ('A' for Active; 'I' for Inactive)
REMARK    1  A    between atoms: C_1  and  C_2
REMARK    2  A    between atoms: C_2  and  C_3
REMARK    3  A    between atoms: C_3  and  C_4
REMARK    4  A    between atoms: C_4  and  C_5
REMARK    5  A    between atoms: C_5  and  C_6
REMARK    6  A    between atoms: C_6  and  C_7
REMARK    7  A    between atoms: C_7  and  C_8
REMARK    8  A    between atoms: C_8  and  C_9
REMARK    9  A    between atoms: C_9  and  C_10
REMARK   10  A    between atoms: C_10  and  C_11
REMARK   11  A    between atoms: C_11  and  C_12
REMARK   12  A    between atoms: C_12  and  C_13
REMARK   13  A    between atoms: C_13  and  C_14
REMARK   14  A    between atoms: C_14  and  C_15
REMARK   15  A    between atoms: C_15  and  C_16
REMARK   16  A    between atoms: C_16  and  C_17
REMARK   17  A    between atoms: C_17  and  C_18
REMARK   18  A    between atoms: C_18  and  O_19
REMARK   19  A    between atoms: O_19  and  C_20
REMARK   20  A    between atoms: C_20  and  C_21
REMARK   21  A    between atoms: C_21  and  C_22
REMARK   22  A    between atoms: C_21  and  N_28
REMARK   23  A    between atoms: C_22  and  N_23
REMARK   24  A    between atoms: C_29  and  C_30
REMARK                            x       y       z     vdW  Elec       q    Type
REMARK                         _______ _______ _______ _____ _____    ______ ____
ROOT
ATOM      1  C   UNL     1       2.185   6.712  19.720  0.00  0.00    +0.000 C 
ENDROOT
BRANCH   1   2
ATOM      2  C   UNL     1       1.540   6.971  21.070  0.00  0.00    +0.000 C 
BRANCH   2   3
ATOM      3  C   UNL     1       1.490   8.470  21.329  0.00  0.00    +0.000 C 
BRANCH   3   4
ATOM      4  O   UNL     1       0.836   9.113  20.240  0.00  0.00    +0.000 OA
BRANCH   4   5
ATOM      5  C   UNL     1      -0.484   9.517  20.602  0.00  0.00    +0.000 C 
BRANCH   5   6
ATOM      6  C   UNL     1      -0.482  11.001  21.001  0.00  0.00    +0.000 C 
BRANCH   6   7
ATOM      7  N   UNL     1       0.704  11.690  20.453  0.00  0.00    +0.000 N 
ATOM      8  C   UNL     1       0.731  12.414  19.302  0.00  0.00    +0.000 C 
ATOM      9  C   UNL     1       2.059  12.963  18.858  0.00  0.00    +0.000 C 
ATOM     10  O   UNL     1      -0.312  12.626  18.665  0.00  0.00    +0.000 OA
ATOM     11  H   UNL     1       1.589  11.537  20.918  0.00  0.00    +0.000 HD
ENDBRANCH   6   7
BRANCH   6  12
ATOM     12  C   UNL     1      -0.620  11.135  22.538  0.00  0.00    +0.000 C 
BRANCH  12  13
ATOM     13  N   UNL     1      -1.497  12.218  22.923  0.00  0.00    +0.000 N 
ATOM     14  C   UNL     1      -1.147  13.530  23.028  0.00  0.00    +0.000 A 
ATOM     15  C   UNL     1      -2.279  14.152  23.502  0.00  0.00    +0.000 A 
ATOM     16  N   UNL     1      -3.287  13.244  23.699  0.00  0.00    +0.000 NA
ATOM     17  C   UNL     1      -2.801  12.091  23.313  0.00  0.00    +0.000 A 
ENDBRANCH  12  13
ENDBRANCH   6  12
ENDBRANCH   5   6
ENDBRANCH   4   5
ENDBRANCH   3   4
ENDBRANCH   2   3
ENDBRANCH   1   2
BRANCH   1  18
ATOM     18  C   UNL     1       1.813   5.333  19.208  0.00  0.00    +0.000 C 
BRANCH  18  19
ATOM     19  C   UNL     1       1.045   4.580  20.280  0.00  0.00    +0.000 C 
BRANCH  19  20
ATOM     20  C   UNL     1       1.417   3.111  20.249  0.00  0.00    +0.000 C 
BRANCH  20  21
ATOM     21  C   UNL     1       0.939   2.486  18.952  0.00  0.00    +0.000 C 
BRANCH  21  22
ATOM     22  C   UNL     1       2.120   2.242  18.033  0.00  0.00    +0.000 C 
BRANCH  22  23
ATOM     23  C   UNL     1       3.355   1.921  18.855  0.00  0.00    +0.000 C 
BRANCH  23  24
ATOM     24  C   UNL     1       4.375   3.032  18.706  0.00  0.00    +0.000 C 
BRANCH  24  25
ATOM     25  C   UNL     1       4.355   3.562  17.284  0.00  0.00    +0.000 C 
BRANCH  25  26
ATOM     26  C   UNL     1       4.599   5.060  17.289  0.00  0.00    +0.000 C 
BRANCH  26  27
ATOM     27  C   UNL     1       5.868   5.377  16.522  0.00  0.00    +0.000 C 
BRANCH  27  28
ATOM     28  C   UNL     1       5.561   5.497  15.041  0.00  0.00    +0.000 C 
BRANCH  28  29
ATOM     29  C   UNL     1       6.648   4.815  14.229  0.00  0.00    +0.000 C 
BRANCH  29  30
ATOM     30  C   UNL     1       6.134   3.498  13.673  0.00  0.00    +0.000 C 
BRANCH  30  32
ATOM     31  C   UNL     1       4.680   3.171  11.677  0.00  0.00    +0.000 C 
ATOM     32  C   UNL     1       6.066   3.557  12.154  0.00  0.00    +0.000 C 
ENDBRANCH  30  32
ENDBRANCH  29  30
ENDBRANCH  28  29
ENDBRANCH  27  28
ENDBRANCH  26  27
ENDBRANCH  25  26
ENDBRANCH  24  25
ENDBRANCH  23  24
ENDBRANCH  22  23
ENDBRANCH  21  22
ENDBRANCH  20  21
ENDBRANCH  19  20
ENDBRANCH  18  19
ENDBRANCH   1  18
TORSDOF 22
ENDMDL
MODEL 9
REMARK VINA RESULT:      -5.1      5.092      6.526
REMARK  Name = 
REMARK  24 active torsions:
REMARK  status: ('A' for Active; 'I' for Inactive)
REMARK    1  A    between atoms: C_1  and  C_2
REMARK    2  A    between atoms: C_2  and  C_3
REMARK    3  A    between atoms: C_3  and  C_4
REMARK    4  A    between atoms: C_4  and  C_5
REMARK    5  A    between atoms: C_5  and  C_6
REMARK    6  A    between atoms: C_6  and  C_7
REMARK    7  A    between atoms: C_7  and  C_8
REMARK    8  A    between atoms: C_8  and  C_9
REMARK    9  A    between atoms: C_9  and  C_10
REMARK   10  A    between atoms: C_10  and  C_11
REMARK   11  A    between atoms: C_11  and  C_12
REMARK   12  A    between atoms: C_12  and  C_13
REMARK   13  A    between atoms: C_13  and  C_14
REMARK   14  A    between atoms: C_14  and  C_15
REMARK   15  A    between atoms: C_15  and  C_16
REMARK   16  A    between atoms: C_16  and  C_17
REMARK   17  A    between atoms: C_17  and  C_18
REMARK   18  A    between atoms: C_18  and  O_19
REMARK   19  A    between atoms: O_19  and  C_20
REMARK   20  A    between atoms: C_20  and  C_21
REMARK   21  A    between atoms: C_21  and  C_22
REMARK   22  A    between atoms: C_21  and  N_28
REMARK   23  A    between atoms: C_22  and  N_23
REMARK   24  A    between atoms: C_29  and  C_30
REMARK                            x       y       z     vdW  Elec       q    Type
REMARK                         _______ _______ _______ _____ _____    ______ ____
ROOT
ATOM      1  C   UNL     1       3.622   7.571  18.189  0.00  0.00    +0.000 C 
ENDROOT
BRANCH   1   2
ATOM      2  C   UNL     1       2.202   7.971  18.549  0.00  0.00    +0.000 C 
BRANCH   2   3
ATOM      3  C   UNL     1       1.757   9.121  17.657  0.00  0.00    +0.000 C 
BRANCH   3   4
ATOM      4  O   UNL     1       1.518  10.273  18.459  0.00  0.00    +0.000 OA
BRANCH   4   5
ATOM      5  C   UNL     1       0.869   9.920  19.680  0.00  0.00    +0.000 C 
BRANCH   5   6
ATOM      6  C   UNL     1       0.438  11.194  20.425  0.00  0.00    +0.000 C 
BRANCH   6   7
ATOM      7  N   UNL     1       1.552  12.161  20.500  0.00  0.00    +0.000 N 
ATOM      8  C   UNL     1       1.575  13.381  19.899  0.00  0.00    +0.000 C 
ATOM      9  C   UNL     1       2.841  14.187  20.012  0.00  0.00    +0.000 C 
ATOM     10  O   UNL     1       0.576  13.810  19.303  0.00  0.00    +0.000 OA
ATOM     11  H   UNL     1       2.403  11.859  20.954  0.00  0.00    +0.000 HD
ENDBRANCH   6   7
BRANCH   6  12
ATOM     12  C   UNL     1      -0.151  10.823  21.808  0.00  0.00    +0.000 C 
BRANCH  12  13
ATOM     13  N   UNL     1      -1.357  11.561  22.113  0.00  0.00    +0.000 N 
ATOM     14  C   UNL     1      -2.016  11.555  23.305  0.00  0.00    +0.000 A 
ATOM     15  C   UNL     1      -3.134  12.327  23.084  0.00  0.00    +0.000 A 
ATOM     16  N   UNL     1      -3.167  12.776  21.790  0.00  0.00    +0.000 NA
ATOM     17  C   UNL     1      -2.069  12.327  21.235  0.00  0.00    +0.000 A 
ENDBRANCH  12  13
ENDBRANCH   6  12
ENDBRANCH   5   6
ENDBRANCH   4   5
ENDBRANCH   3   4
ENDBRANCH   2   3
ENDBRANCH   1   2
BRANCH   1  18
ATOM     18  C   UNL     1       3.634   6.724  16.931  0.00  0.00    +0.000 C 
BRANCH  18  19
ATOM     19  C   UNL     1       4.872   7.043  16.112  0.00  0.00    +0.000 C 
BRANCH  19  20
ATOM     20  C   UNL     1       5.425   5.774  15.495  0.00  0.00    +0.000 C 
BRANCH  20  21
ATOM     21  C   UNL     1       6.701   5.368  16.207  0.00  0.00    +0.000 C 
BRANCH  21  22
ATOM     22  C   UNL     1       7.250   6.546  16.989  0.00  0.00    +0.000 C 
BRANCH  22  23
ATOM     23  C   UNL     1       7.337   6.193  18.461  0.00  0.00    +0.000 C 
BRANCH  23  24
ATOM     24  C   UNL     1       6.920   4.750  18.669  0.00  0.00    +0.000 C 
BRANCH  24  25
ATOM     25  C   UNL     1       5.526   4.698  19.265  0.00  0.00    +0.000 C 
BRANCH  25  26
ATOM     26  C   UNL     1       4.877   3.365  18.941  0.00  0.00    +0.000 C 
BRANCH  26  27
ATOM     27  C   UNL     1       3.725   3.574  17.977  0.00  0.00    +0.000 C 
BRANCH  27  28
ATOM     28  C   UNL     1       2.686   2.486  18.170  0.00  0.00    +0.000 C 
BRANCH  28  29
ATOM     29  C   UNL     1       1.305   3.106  18.300  0.00  0.00    +0.000 C 
BRANCH  29  30
ATOM     30  C   UNL     1       0.791   2.937  19.719  0.00  0.00    +0.000 C 
BRANCH  30  32
ATOM     31  C   UNL     1       2.161   3.683  21.662  0.00  0.00    +0.000 C 
ATOM     32  C   UNL     1       1.202   4.127  20.575  0.00  0.00    +0.000 C 
ENDBRANCH  30  32
ENDBRANCH  29  30
ENDBRANCH  28  29
ENDBRANCH  27  28
ENDBRANCH  26  27
ENDBRANCH  25  26
ENDBRANCH  24  25
ENDBRANCH  23  24
ENDBRANCH  22  23
ENDBRANCH  21  22
ENDBRANCH  20  21
ENDBRANCH  19  20
ENDBRANCH  18  19
ENDBRANCH   1  18
TORSDOF 22
ENDMDL
