MODEL 1
REMARK VINA RESULT:      -9.1      0.000      0.000
REMARK  Name = 
REMARK  9 active torsions:
REMARK  status: ('A' for Active; 'I' for Inactive)
REMARK    1  A    between atoms: C_1  and  O_2
REMARK    2  A    between atoms: O_2  and  C_3
REMARK    3  A    between atoms: C_5  and  N_6
REMARK    4  A    between atoms: N_15  and  C_16
REMARK    5  A    between atoms: C_16  and  C_17
REMARK    6  A    between atoms: C_31  and  O_32
REMARK    7  A    between atoms: O_32  and  C_33
REMARK    8  A    between atoms: C_34  and  O_35
REMARK    9  A    between atoms: O_35  and  C_36
REMARK                            x       y       z     vdW  Elec       q    Type
REMARK                         _______ _______ _______ _____ _____    ______ ____
ROOT
ATOM      1  N   UNL     1       4.694   4.148  17.986  0.00  0.00    +0.000 N 
ATOM      2  C   UNL     1       3.783   3.087  17.938  0.00  0.00    +0.000 A 
ATOM      3  O   UNL     1       3.747   2.160  17.134  0.00  0.00    +0.000 OA
ATOM      4  C   UNL     1       2.713   3.111  18.968  0.00  0.00    +0.000 A 
ATOM      5  C   UNL     1       1.996   1.966  19.315  0.00  0.00    +0.000 A 
ATOM      6  C   UNL     1       0.959   2.065  20.243  0.00  0.00    +0.000 A 
ATOM      7  C   UNL     1       0.620   3.305  20.794  0.00  0.00    +0.000 A 
ATOM      8  C   UNL     1       1.326   4.452  20.428  0.00  0.00    +0.000 A 
ATOM      9  C   UNL     1       2.381   4.346  19.531  0.00  0.00    +0.000 A 
ATOM     10  N   UNL     1       3.223   5.457  19.266  0.00  0.00    +0.000 N 
ATOM     11  C   UNL     1       4.560   5.059  19.039  0.00  0.00    +0.000 A 
ATOM     12  O   UNL     1       5.454   5.415  19.805  0.00  0.00    +0.000 OA
ENDROOT
BRANCH   1  15
ATOM     13  C   UNL     1       6.511   4.108  14.664  0.00  0.00    +0.000 A 
ATOM     14  C   UNL     1       5.749   3.680  15.773  0.00  0.00    +0.000 A 
ATOM     15  C   UNL     1       5.686   4.407  16.966  0.00  0.00    +0.000 A 
ATOM     16  C   UNL     1       6.536   5.515  17.057  0.00  0.00    +0.000 A 
ATOM     17  C   UNL     1       7.357   5.926  15.997  0.00  0.00    +0.000 A 
ATOM     18  C   UNL     1       7.347   5.238  14.774  0.00  0.00    +0.000 A 
BRANCH  13  20
ATOM     19  C   UNL     1       5.203   3.471  12.776  0.00  0.00    +0.000 C 
ATOM     20  O   UNL     1       6.450   3.422  13.474  0.00  0.00    +0.000 OA
ENDBRANCH  13  20
BRANCH  17  21
ATOM     21  O   UNL     1       8.125   7.014  16.347  0.00  0.00    +0.000 OA
ATOM     22  C   UNL     1       7.743   7.752  17.496  0.00  0.00    +0.000 C 
ENDBRANCH  17  21
BRANCH  18  23
ATOM     23  O   UNL     1       8.171   5.749  13.813  0.00  0.00    +0.000 OA
ATOM     24  C   UNL     1       7.910   5.578  12.434  0.00  0.00    +0.000 C 
ENDBRANCH  18  23
ENDBRANCH   1  15
BRANCH  10  25
ATOM     25  C   UNL     1       2.708   6.348  18.205  0.00  0.00    +0.000 C 
BRANCH  25  26
ATOM     26  C   UNL     1       2.268   7.689  18.771  0.00  0.00    +0.000 A 
ATOM     27  C   UNL     1       2.222   8.797  18.022  0.00  0.00    +0.000 A 
ATOM     28  C   UNL     1       1.650  10.027  18.590  0.00  0.00    +0.000 A 
ATOM     29  O   UNL     1       1.656  11.052  17.910  0.00  0.00    +0.000 OA
ATOM     30  N   UNL     1       1.134   9.910  19.871  0.00  0.00    +0.000 N 
ATOM     31  C   UNL     1       0.454  10.984  20.435  0.00  0.00    +0.000 A 
ATOM     32  C   UNL     1      -0.062  10.922  21.669  0.00  0.00    +0.000 A 
ATOM     33  C   UNL     1       0.124   9.738  22.465  0.00  0.00    +0.000 A 
ATOM     34  C   UNL     1       0.783   8.684  21.968  0.00  0.00    +0.000 A 
ATOM     35  C   UNL     1       1.297   8.720  20.570  0.00  0.00    +0.000 A 
ATOM     36  N   UNL     1       1.860   7.655  20.083  0.00  0.00    +0.000 NA
ENDBRANCH  25  26
ENDBRANCH  10  25
TORSDOF 6
ENDMDL
MODEL 2
REMARK VINA RESULT:      -8.6      6.892     10.396
REMARK  Name = 
REMARK  9 active torsions:
REMARK  status: ('A' for Active; 'I' for Inactive)
REMARK    1  A    between atoms: C_1  and  O_2
REMARK    2  A    between atoms: O_2  and  C_3
REMARK    3  A    between atoms: C_5  and  N_6
REMARK    4  A    between atoms: N_15  and  C_16
REMARK    5  A    between atoms: C_16  and  C_17
REMARK    6  A    between atoms: C_31  and  O_32
REMARK    7  A    between atoms: O_32  and  C_33
REMARK    8  A    between atoms: C_34  and  O_35
REMARK    9  A    between atoms: O_35  and  C_36
REMARK                            x       y       z     vdW  Elec       q    Type
REMARK                         _______ _______ _______ _____ _____    ______ ____
ROOT
ATOM      1  N   UNL     1       0.760  13.231  20.187  0.00  0.00    +0.000 N 
ATOM      2  C   UNL     1       1.055  11.947  19.716  0.00  0.00    +0.000 A 
ATOM      3  O   UNL     1       1.550  11.636  18.636  0.00  0.00    +0.000 OA
ATOM      4  C   UNL     1       0.690  10.829  20.624  0.00  0.00    +0.000 A 
ATOM      5  C   UNL     1       1.264   9.563  20.503  0.00  0.00    +0.000 A 
ATOM      6  C   UNL     1       0.834   8.536  21.343  0.00  0.00    +0.000 A 
ATOM      7  C   UNL     1      -0.185   8.764  22.273  0.00  0.00    +0.000 A 
ATOM      8  C   UNL     1      -0.771  10.028  22.377  0.00  0.00    +0.000 A 
ATOM      9  C   UNL     1      -0.317  11.058  21.564  0.00  0.00    +0.000 A 
ATOM     10  N   UNL     1      -0.771  12.388  21.757  0.00  0.00    +0.000 N 
ATOM     11  C   UNL     1       0.244  13.334  21.484  0.00  0.00    +0.000 A 
ATOM     12  O   UNL     1       0.673  14.061  22.378  0.00  0.00    +0.000 OA
ENDROOT
BRANCH   1  15
ATOM     13  C   UNL     1      -0.080  16.574  18.620  0.00  0.00    +0.000 A 
ATOM     14  C   UNL     1      -0.228  15.272  19.145  0.00  0.00    +0.000 A 
ATOM     15  C   UNL     1       0.862  14.429  19.384  0.00  0.00    +0.000 A 
ATOM     16  C   UNL     1       2.106  14.892  18.940  0.00  0.00    +0.000 A 
ATOM     17  C   UNL     1       2.276  16.154  18.352  0.00  0.00    +0.000 A 
ATOM     18  C   UNL     1       1.186  17.024  18.195  0.00  0.00    +0.000 A 
BRANCH  13  20
ATOM     19  C   UNL     1      -2.147  17.311  19.549  0.00  0.00    +0.000 C 
ATOM     20  O   UNL     1      -1.168  17.407  18.510  0.00  0.00    +0.000 OA
ENDBRANCH  13  20
BRANCH  17  21
ATOM     21  O   UNL     1       3.582  16.358  17.966  0.00  0.00    +0.000 OA
ATOM     22  C   UNL     1       4.562  16.481  18.984  0.00  0.00    +0.000 C 
ENDBRANCH  17  21
BRANCH  18  23
ATOM     23  O   UNL     1       1.484  18.231  17.631  0.00  0.00    +0.000 OA
ATOM     24  C   UNL     1       1.056  18.575  16.328  0.00  0.00    +0.000 C 
ENDBRANCH  18  23
ENDBRANCH   1  15
BRANCH  10  25
ATOM     25  C   UNL     1      -2.033  12.690  21.048  0.00  0.00    +0.000 C 
BRANCH  25  26
ATOM     26  C   UNL     1      -3.228  12.607  21.984  0.00  0.00    +0.000 A 
ATOM     27  C   UNL     1      -3.087  12.504  23.311  0.00  0.00    +0.000 A 
ATOM     28  C   UNL     1      -4.279  12.575  24.170  0.00  0.00    +0.000 A 
ATOM     29  O   UNL     1      -4.144  12.431  25.384  0.00  0.00    +0.000 OA
ATOM     30  N   UNL     1      -5.476  12.813  23.512  0.00  0.00    +0.000 N 
ATOM     31  C   UNL     1      -6.631  13.029  24.254  0.00  0.00    +0.000 A 
ATOM     32  C   UNL     1      -7.812  13.262  23.668  0.00  0.00    +0.000 A 
ATOM     33  C   UNL     1      -7.916  13.244  22.233  0.00  0.00    +0.000 A 
ATOM     34  C   UNL     1      -6.832  13.028  21.477  0.00  0.00    +0.000 A 
ATOM     35  C   UNL     1      -5.501  12.839  22.124  0.00  0.00    +0.000 A 
ATOM     36  N   UNL     1      -4.452  12.714  21.368  0.00  0.00    +0.000 NA
ENDBRANCH  25  26
ENDBRANCH  10  25
TORSDOF 6
ENDMDL
MODEL 3
REMARK VINA RESULT:      -8.6      3.446      6.093
REMARK  Name = 
REMARK  9 active torsions:
REMARK  status: ('A' for Active; 'I' for Inactive)
REMARK    1  A    between atoms: C_1  and  O_2
REMARK    2  A    between atoms: O_2  and  C_3
REMARK    3  A    between atoms: C_5  and  N_6
REMARK    4  A    between atoms: N_15  and  C_16
REMARK    5  A    between atoms: C_16  and  C_17
REMARK    6  A    between atoms: C_31  and  O_32
REMARK    7  A    between atoms: O_32  and  C_33
REMARK    8  A    between atoms: C_34  and  O_35
REMARK    9  A    between atoms: O_35  and  C_36
REMARK                            x       y       z     vdW  Elec       q    Type
REMARK                         _______ _______ _______ _____ _____    ______ ____
ROOT
ATOM      1  N   UNL     1       1.928   8.469  19.176  0.00  0.00    +0.000 N 
ATOM      2  C   UNL     1       1.503   8.214  20.484  0.00  0.00    +0.000 A 
ATOM      3  O   UNL     1       1.722   7.218  21.167  0.00  0.00    +0.000 OA
ATOM      4  C   UNL     1       0.656   9.267  21.102  0.00  0.00    +0.000 A 
ATOM      5  C   UNL     1       0.495   9.367  22.484  0.00  0.00    +0.000 A 
ATOM      6  C   UNL     1      -0.365  10.336  23.002  0.00  0.00    +0.000 A 
ATOM      7  C   UNL     1      -1.082  11.176  22.143  0.00  0.00    +0.000 A 
ATOM      8  C   UNL     1      -0.933  11.058  20.760  0.00  0.00    +0.000 A 
ATOM      9  C   UNL     1      -0.050  10.116  20.247  0.00  0.00    +0.000 A 
ATOM     10  N   UNL     1       0.250  10.082  18.861  0.00  0.00    +0.000 N 
ATOM     11  C   UNL     1       1.593   9.710  18.625  0.00  0.00    +0.000 A 
ATOM     12  O   UNL     1       2.373  10.499  18.092  0.00  0.00    +0.000 OA
ENDROOT
BRANCH   1  15
ATOM     13  C   UNL     1       4.595   6.754  17.106  0.00  0.00    +0.000 A 
ATOM     14  C   UNL     1       3.796   7.769  17.676  0.00  0.00    +0.000 A 
ATOM     15  C   UNL     1       2.596   7.496  18.339  0.00  0.00    +0.000 A 
ATOM     16  C   UNL     1       2.151   6.170  18.285  0.00  0.00    +0.000 A 
ATOM     17  C   UNL     1       2.888   5.151  17.665  0.00  0.00    +0.000 A 
ATOM     18  C   UNL     1       4.133   5.423  17.077  0.00  0.00    +0.000 A 
BRANCH  13  20
ATOM     19  C   UNL     1       6.952   6.893  17.426  0.00  0.00    +0.000 C 
ATOM     20  O   UNL     1       5.822   7.058  16.566  0.00  0.00    +0.000 OA
ENDBRANCH  13  20
BRANCH  17  21
ATOM     21  O   UNL     1       2.221   3.947  17.711  0.00  0.00    +0.000 OA
ATOM     22  C   UNL     1       1.863   3.436  18.984  0.00  0.00    +0.000 C 
ENDBRANCH  17  21
BRANCH  18  23
ATOM     23  O   UNL     1       4.764   4.344  16.528  0.00  0.00    +0.000 OA
ATOM     24  C   UNL     1       5.186   4.330  15.179  0.00  0.00    +0.000 C 
ENDBRANCH  18  23
ENDBRANCH   1  15
BRANCH  10  25
ATOM     25  C   UNL     1      -0.707   9.282  18.069  0.00  0.00    +0.000 C 
BRANCH  25  26
ATOM     26  C   UNL     1      -1.848  10.140  17.546  0.00  0.00    +0.000 A 
ATOM     27  C   UNL     1      -2.181  10.167  16.250  0.00  0.00    +0.000 A 
ATOM     28  C   UNL     1      -3.384  10.904  15.831  0.00  0.00    +0.000 A 
ATOM     29  O   UNL     1      -3.654  10.964  14.633  0.00  0.00    +0.000 OA
ATOM     30  N   UNL     1      -4.126  11.469  16.856  0.00  0.00    +0.000 N 
ATOM     31  C   UNL     1      -5.347  12.066  16.566  0.00  0.00    +0.000 A 
ATOM     32  C   UNL     1      -6.102  12.627  17.520  0.00  0.00    +0.000 A 
ATOM     33  C   UNL     1      -5.630  12.663  18.878  0.00  0.00    +0.000 A 
ATOM     34  C   UNL     1      -4.454  12.111  19.202  0.00  0.00    +0.000 A 
ATOM     35  C   UNL     1      -3.643  11.423  18.158  0.00  0.00    +0.000 A 
ATOM     36  N   UNL     1      -2.546  10.823  18.513  0.00  0.00    +0.000 NA
ENDBRANCH  25  26
ENDBRANCH  10  25
TORSDOF 6
ENDMDL
MODEL 4
REMARK VINA RESULT:      -8.5      7.037     10.686
REMARK  Name = 
REMARK  9 active torsions:
REMARK  status: ('A' for Active; 'I' for Inactive)
REMARK    1  A    between atoms: C_1  and  O_2
REMARK    2  A    between atoms: O_2  and  C_3
REMARK    3  A    between atoms: C_5  and  N_6
REMARK    4  A    between atoms: N_15  and  C_16
REMARK    5  A    between atoms: C_16  and  C_17
REMARK    6  A    between atoms: C_31  and  O_32
REMARK    7  A    between atoms: O_32  and  C_33
REMARK    8  A    between atoms: C_34  and  O_35
REMARK    9  A    between atoms: O_35  and  C_36
REMARK                            x       y       z     vdW  Elec       q    Type
REMARK                         _______ _______ _______ _____ _____    ______ ____
ROOT
ATOM      1  N   UNL     1       0.833  13.736  20.303  0.00  0.00    +0.000 N 
ATOM      2  C   UNL     1       1.126  12.542  19.635  0.00  0.00    +0.000 A 
ATOM      3  O   UNL     1       1.631  12.405  18.524  0.00  0.00    +0.000 OA
ATOM      4  C   UNL     1       0.745  11.296  20.347  0.00  0.00    +0.000 A 
ATOM      5  C   UNL     1       1.313  10.062  20.030  0.00  0.00    +0.000 A 
ATOM      6  C   UNL     1       0.868   8.916  20.690  0.00  0.00    +0.000 A 
ATOM      7  C   UNL     1      -0.160   8.999  21.635  0.00  0.00    +0.000 A 
ATOM      8  C   UNL     1      -0.740  10.234  21.934  0.00  0.00    +0.000 A 
ATOM      9  C   UNL     1      -0.272  11.378  21.302  0.00  0.00    +0.000 A 
ATOM     10  N   UNL     1      -0.720  12.664  21.701  0.00  0.00    +0.000 N 
ATOM     11  C   UNL     1       0.303  13.633  21.594  0.00  0.00    +0.000 A 
ATOM     12  O   UNL     1       0.726  14.204  22.597  0.00  0.00    +0.000 OA
ENDROOT
BRANCH   1  15
ATOM     13  C   UNL     1       2.288  16.738  18.512  0.00  0.00    +0.000 A 
ATOM     14  C   UNL     1       2.182  15.607  19.350  0.00  0.00    +0.000 A 
ATOM     15  C   UNL     1       0.950  15.047  19.704  0.00  0.00    +0.000 A 
ATOM     16  C   UNL     1      -0.186  15.756  19.299  0.00  0.00    +0.000 A 
ATOM     17  C   UNL     1      -0.113  16.922  18.523  0.00  0.00    +0.000 A 
ATOM     18  C   UNL     1       1.128  17.425  18.103  0.00  0.00    +0.000 A 
BRANCH  13  20
ATOM     19  C   UNL     1       4.655  16.478  18.614  0.00  0.00    +0.000 C 
ATOM     20  O   UNL     1       3.522  17.182  18.098  0.00  0.00    +0.000 OA
ENDBRANCH  13  20
BRANCH  17  21
ATOM     21  O   UNL     1      -1.362  17.451  18.290  0.00  0.00    +0.000 OA
ATOM     22  C   UNL     1      -1.831  18.457  19.174  0.00  0.00    +0.000 C 
ENDBRANCH  17  21
BRANCH  18  23
ATOM     23  O   UNL     1       1.066  18.552  17.334  0.00  0.00    +0.000 OA
ATOM     24  C   UNL     1       0.786  18.500  15.949  0.00  0.00    +0.000 C 
ENDBRANCH  18  23
ENDBRANCH   1  15
BRANCH  10  25
ATOM     25  C   UNL     1      -1.972  13.084  21.037  0.00  0.00    +0.000 C 
BRANCH  25  26
ATOM     26  C   UNL     1      -3.180  12.848  21.930  0.00  0.00    +0.000 A 
ATOM     27  C   UNL     1      -3.069  12.728  23.259  0.00  0.00    +0.000 A 
ATOM     28  C   UNL     1      -4.288  12.647  24.079  0.00  0.00    +0.000 A 
ATOM     29  O   UNL     1      -4.175  12.488  25.293  0.00  0.00    +0.000 OA
ATOM     30  N   UNL     1      -5.483  12.772  23.387  0.00  0.00    +0.000 N 
ATOM     31  C   UNL     1      -6.677  12.842  24.095  0.00  0.00    +0.000 A 
ATOM     32  C   UNL     1      -7.858  12.962  23.474  0.00  0.00    +0.000 A 
ATOM     33  C   UNL     1      -7.914  12.971  22.037  0.00  0.00    +0.000 A 
ATOM     34  C   UNL     1      -6.790  12.892  21.314  0.00  0.00    +0.000 A 
ATOM     35  C   UNL     1      -5.468  12.831  21.999  0.00  0.00    +0.000 A 
ATOM     36  N   UNL     1      -4.389  12.840  21.276  0.00  0.00    +0.000 NA
ENDBRANCH  25  26
ENDBRANCH  10  25
TORSDOF 6
ENDMDL
MODEL 5
REMARK VINA RESULT:      -8.4      0.464      2.198
REMARK  Name = 
REMARK  9 active torsions:
REMARK  status: ('A' for Active; 'I' for Inactive)
REMARK    1  A    between atoms: C_1  and  O_2
REMARK    2  A    between atoms: O_2  and  C_3
REMARK    3  A    between atoms: C_5  and  N_6
REMARK    4  A    between atoms: N_15  and  C_16
REMARK    5  A    between atoms: C_16  and  C_17
REMARK    6  A    between atoms: C_31  and  O_32
REMARK    7  A    between atoms: O_32  and  C_33
REMARK    8  A    between atoms: C_34  and  O_35
REMARK    9  A    between atoms: O_35  and  C_36
REMARK                            x       y       z     vdW  Elec       q    Type
REMARK                         _______ _______ _______ _____ _____    ______ ____
ROOT
ATOM      1  N   UNL     1       4.324   4.518  17.813  0.00  0.00    +0.000 N 
ATOM      2  C   UNL     1       3.461   3.423  17.697  0.00  0.00    +0.000 A 
ATOM      3  O   UNL     1       3.434   2.575  16.810  0.00  0.00    +0.000 OA
ATOM      4  C   UNL     1       2.432   3.299  18.762  0.00  0.00    +0.000 A 
ATOM      5  C   UNL     1       1.783   2.093  19.024  0.00  0.00    +0.000 A 
ATOM      6  C   UNL     1       0.780   2.054  19.993  0.00  0.00    +0.000 A 
ATOM      7  C   UNL     1       0.408   3.219  20.671  0.00  0.00    +0.000 A 
ATOM      8  C   UNL     1       1.046   4.429  20.391  0.00  0.00    +0.000 A 
ATOM      9  C   UNL     1       2.069   4.459  19.451  0.00  0.00    +0.000 A 
ATOM     10  N   UNL     1       2.848   5.629  19.264  0.00  0.00    +0.000 N 
ATOM     11  C   UNL     1       4.192   5.319  18.953  0.00  0.00    +0.000 A 
ATOM     12  O   UNL     1       5.099   5.645  19.717  0.00  0.00    +0.000 OA
ENDROOT
BRANCH   1  15
ATOM     13  C   UNL     1       7.249   6.201  16.096  0.00  0.00    +0.000 A 
ATOM     14  C   UNL     1       6.148   5.989  16.954  0.00  0.00    +0.000 A 
ATOM     15  C   UNL     1       5.263   4.919  16.789  0.00  0.00    +0.000 A 
ATOM     16  C   UNL     1       5.441   4.145  15.636  0.00  0.00    +0.000 A 
ATOM     17  C   UNL     1       6.485   4.374  14.727  0.00  0.00    +0.000 A 
ATOM     18  C   UNL     1       7.418   5.398  14.950  0.00  0.00    +0.000 A 
BRANCH  13  20
ATOM     19  C   UNL     1       7.862   8.038  17.485  0.00  0.00    +0.000 C 
ATOM     20  O   UNL     1       8.157   7.198  16.366  0.00  0.00    +0.000 OA
ENDBRANCH  13  20
BRANCH  17  21
ATOM     21  O   UNL     1       6.421   3.507  13.659  0.00  0.00    +0.000 OA
ATOM     22  C   UNL     1       5.269   3.556  12.834  0.00  0.00    +0.000 C 
ENDBRANCH  17  21
BRANCH  18  23
ATOM     23  O   UNL     1       8.399   5.505  14.007  0.00  0.00    +0.000 OA
ATOM     24  C   UNL     1       8.114   5.837  12.663  0.00  0.00    +0.000 C 
ENDBRANCH  18  23
ENDBRANCH   1  15
BRANCH  10  25
ATOM     25  C   UNL     1       2.252   6.589  18.311  0.00  0.00    +0.000 C 
BRANCH  25  26
ATOM     26  C   UNL     1       1.872   7.890  19.000  0.00  0.00    +0.000 A 
ATOM     27  C   UNL     1       1.789   9.049  18.335  0.00  0.00    +0.000 A 
ATOM     28  C   UNL     1       1.276  10.241  19.027  0.00  0.00    +0.000 A 
ATOM     29  O   UNL     1       1.249  11.312  18.423  0.00  0.00    +0.000 OA
ATOM     30  N   UNL     1       0.848  10.038  20.330  0.00  0.00    +0.000 N 
ATOM     31  C   UNL     1       0.224  11.075  21.014  0.00  0.00    +0.000 A 
ATOM     32  C   UNL     1      -0.206  10.930  22.274  0.00  0.00    +0.000 A 
ATOM     33  C   UNL     1       0.018   9.691  22.970  0.00  0.00    +0.000 A 
ATOM     34  C   UNL     1       0.626   8.669  22.355  0.00  0.00    +0.000 A 
ATOM     35  C   UNL     1       1.042   8.800  20.930  0.00  0.00    +0.000 A 
ATOM     36  N   UNL     1       1.554   7.767  20.332  0.00  0.00    +0.000 NA
ENDBRANCH  25  26
ENDBRANCH  10  25
TORSDOF 6
ENDMDL
MODEL 6
REMARK VINA RESULT:      -8.2      1.056      1.621
REMARK  Name = 
REMARK  9 active torsions:
REMARK  status: ('A' for Active; 'I' for Inactive)
REMARK    1  A    between atoms: C_1  and  O_2
REMARK    2  A    between atoms: O_2  and  C_3
REMARK    3  A    between atoms: C_5  and  N_6
REMARK    4  A    between atoms: N_15  and  C_16
REMARK    5  A    between atoms: C_16  and  C_17
REMARK    6  A    between atoms: C_31  and  O_32
REMARK    7  A    between atoms: O_32  and  C_33
REMARK    8  A    between atoms: C_34  and  O_35
REMARK    9  A    between atoms: O_35  and  C_36
REMARK                            x       y       z     vdW  Elec       q    Type
REMARK                         _______ _______ _______ _____ _____    ______ ____
ROOT
ATOM      1  N   UNL     1       4.657   4.109  17.972  0.00  0.00    +0.000 N 
ATOM      2  C   UNL     1       3.658   3.139  17.843  0.00  0.00    +0.000 A 
ATOM      3  O   UNL     1       3.529   2.303  16.953  0.00  0.00    +0.000 OA
ATOM      4  C   UNL     1       2.609   3.151  18.896  0.00  0.00    +0.000 A 
ATOM      5  C   UNL     1       1.802   2.041  19.146  0.00  0.00    +0.000 A 
ATOM      6  C   UNL     1       0.792   2.134  20.104  0.00  0.00    +0.000 A 
ATOM      7  C   UNL     1       0.569   3.338  20.781  0.00  0.00    +0.000 A 
ATOM      8  C   UNL     1       1.366   4.452  20.511  0.00  0.00    +0.000 A 
ATOM      9  C   UNL     1       2.394   4.348  19.584  0.00  0.00    +0.000 A 
ATOM     10  N   UNL     1       3.325   5.404  19.409  0.00  0.00    +0.000 N 
ATOM     11  C   UNL     1       4.619   4.920  19.112  0.00  0.00    +0.000 A 
ATOM     12  O   UNL     1       5.552   5.121  19.888  0.00  0.00    +0.000 OA
ENDROOT
BRANCH   1  15
ATOM     13  C   UNL     1       6.496   4.100  14.662  0.00  0.00    +0.000 A 
ATOM     14  C   UNL     1       5.733   3.660  15.766  0.00  0.00    +0.000 A 
ATOM     15  C   UNL     1       5.653   4.383  16.960  0.00  0.00    +0.000 A 
ATOM     16  C   UNL     1       6.487   5.503  17.058  0.00  0.00    +0.000 A 
ATOM     17  C   UNL     1       7.309   5.927  16.004  0.00  0.00    +0.000 A 
ATOM     18  C   UNL     1       7.316   5.241  14.780  0.00  0.00    +0.000 A 
BRANCH  13  20
ATOM     19  C   UNL     1       5.224   3.489  12.742  0.00  0.00    +0.000 C 
ATOM     20  O   UNL     1       6.452   3.416  13.470  0.00  0.00    +0.000 OA
ENDBRANCH  13  20
BRANCH  17  21
ATOM     21  O   UNL     1       8.060   7.024  16.361  0.00  0.00    +0.000 OA
ATOM     22  C   UNL     1       7.725   7.692  17.566  0.00  0.00    +0.000 C 
ENDBRANCH  17  21
BRANCH  18  23
ATOM     23  O   UNL     1       8.140   5.764  13.825  0.00  0.00    +0.000 OA
ATOM     24  C   UNL     1       7.894   5.587  12.444  0.00  0.00    +0.000 C 
ENDBRANCH  18  23
ENDBRANCH   1  15
BRANCH  10  25
ATOM     25  C   UNL     1       2.872   6.436  18.452  0.00  0.00    +0.000 C 
BRANCH  25  26
ATOM     26  C   UNL     1       2.149   7.570  19.160  0.00  0.00    +0.000 A 
ATOM     27  C   UNL     1       1.902   7.544  20.476  0.00  0.00    +0.000 A 
ATOM     28  C   UNL     1       1.330   8.734  21.125  0.00  0.00    +0.000 A 
ATOM     29  O   UNL     1       1.062   8.684  22.324  0.00  0.00    +0.000 OA
ATOM     30  N   UNL     1       1.150   9.835  20.302  0.00  0.00    +0.000 N 
ATOM     31  C   UNL     1       0.742  11.043  20.856  0.00  0.00    +0.000 A 
ATOM     32  C   UNL     1       0.553  12.135  20.105  0.00  0.00    +0.000 A 
ATOM     33  C   UNL     1       0.726  12.063  18.679  0.00  0.00    +0.000 A 
ATOM     34  C   UNL     1       1.106  10.917  18.099  0.00  0.00    +0.000 A 
ATOM     35  C   UNL     1       1.387   9.718  18.938  0.00  0.00    +0.000 A 
ATOM     36  N   UNL     1       1.835   8.643  18.361  0.00  0.00    +0.000 NA
ENDBRANCH  25  26
ENDBRANCH  10  25
TORSDOF 6
ENDMDL
MODEL 7
REMARK VINA RESULT:      -8.2      6.973     12.076
REMARK  Name = 
REMARK  9 active torsions:
REMARK  status: ('A' for Active; 'I' for Inactive)
REMARK    1  A    between atoms: C_1  and  O_2
REMARK    2  A    between atoms: O_2  and  C_3
REMARK    3  A    between atoms: C_5  and  N_6
REMARK    4  A    between atoms: N_15  and  C_16
REMARK    5  A    between atoms: C_16  and  C_17
REMARK    6  A    between atoms: C_31  and  O_32
REMARK    7  A    between atoms: O_32  and  C_33
REMARK    8  A    between atoms: C_34  and  O_35
REMARK    9  A    between atoms: O_35  and  C_36
REMARK                            x       y       z     vdW  Elec       q    Type
REMARK                         _______ _______ _______ _____ _____    ______ ____
ROOT
ATOM      1  N   UNL     1      -1.248  12.430  21.909  0.00  0.00    +0.000 N 
ATOM      2  C   UNL     1      -0.643  11.194  22.161  0.00  0.00    +0.000 A 
ATOM      3  O   UNL     1      -0.638  10.558  23.211  0.00  0.00    +0.000 OA
ATOM      4  C   UNL     1       0.111  10.604  21.026  0.00  0.00    +0.000 A 
ATOM      5  C   UNL     1       0.415   9.243  20.970  0.00  0.00    +0.000 A 
ATOM      6  C   UNL     1       1.182   8.759  19.910  0.00  0.00    +0.000 A 
ATOM      7  C   UNL     1       1.669   9.633  18.933  0.00  0.00    +0.000 A 
ATOM      8  C   UNL     1       1.380  10.997  19.004  0.00  0.00    +0.000 A 
ATOM      9  C   UNL     1       0.587  11.473  20.040  0.00  0.00    +0.000 A 
ATOM     10  N   UNL     1       0.136  12.818  20.051  0.00  0.00    +0.000 N 
ATOM     11  C   UNL     1      -1.159  12.932  20.606  0.00  0.00    +0.000 A 
ATOM     12  O   UNL     1      -2.099  13.326  19.917  0.00  0.00    +0.000 OA
ENDROOT
BRANCH   1  15
ATOM     13  C   UNL     1      -1.788  15.204  24.430  0.00  0.00    +0.000 A 
ATOM     14  C   UNL     1      -1.150  14.210  23.655  0.00  0.00    +0.000 A 
ATOM     15  C   UNL     1      -1.863  13.252  22.928  0.00  0.00    +0.000 A 
ATOM     16  C   UNL     1      -3.249  13.239  23.122  0.00  0.00    +0.000 A 
ATOM     17  C   UNL     1      -3.906  14.169  23.939  0.00  0.00    +0.000 A 
ATOM     18  C   UNL     1      -3.187  15.180  24.596  0.00  0.00    +0.000 A 
BRANCH  13  20
ATOM     19  C   UNL     1      -0.693  15.975  26.401  0.00  0.00    +0.000 C 
ATOM     20  O   UNL     1      -1.049  16.194  25.033  0.00  0.00    +0.000 OA
ENDBRANCH  13  20
BRANCH  17  21
ATOM     21  O   UNL     1      -5.259  13.922  23.997  0.00  0.00    +0.000 OA
ATOM     22  C   UNL     1      -6.034  14.198  22.842  0.00  0.00    +0.000 C 
ENDBRANCH  17  21
BRANCH  18  23
ATOM     23  O   UNL     1      -3.942  16.038  25.343  0.00  0.00    +0.000 OA
ATOM     24  C   UNL     1      -4.449  17.246  24.813  0.00  0.00    +0.000 C 
ENDBRANCH  18  23
ENDBRANCH   1  15
BRANCH  10  25
ATOM     25  C   UNL     1       1.100  13.758  20.661  0.00  0.00    +0.000 C 
BRANCH  25  26
ATOM     26  C   UNL     1       1.351  14.957  19.760  0.00  0.00    +0.000 A 
ATOM     27  C   UNL     1       2.532  15.164  19.166  0.00  0.00    +0.000 A 
ATOM     28  C   UNL     1       2.667  16.260  18.193  0.00  0.00    +0.000 A 
ATOM     29  O   UNL     1       3.768  16.473  17.689  0.00  0.00    +0.000 OA
ATOM     30  N   UNL     1       1.503  16.962  17.920  0.00  0.00    +0.000 N 
ATOM     31  C   UNL     1       1.506  17.924  16.917  0.00  0.00    +0.000 A 
ATOM     32  C   UNL     1       0.409  18.631  16.615  0.00  0.00    +0.000 A 
ATOM     33  C   UNL     1      -0.799  18.437  17.372  0.00  0.00    +0.000 A 
ATOM     34  C   UNL     1      -0.845  17.531  18.357  0.00  0.00    +0.000 A 
ATOM     35  C   UNL     1       0.352  16.691  18.649  0.00  0.00    +0.000 A 
ATOM     36  N   UNL     1       0.257  15.762  19.552  0.00  0.00    +0.000 NA
ENDBRANCH  25  26
ENDBRANCH  10  25
TORSDOF 6
ENDMDL
MODEL 8
REMARK VINA RESULT:      -8.2      4.384      9.078
REMARK  Name = 
REMARK  9 active torsions:
REMARK  status: ('A' for Active; 'I' for Inactive)
REMARK    1  A    between atoms: C_1  and  O_2
REMARK    2  A    between atoms: O_2  and  C_3
REMARK    3  A    between atoms: C_5  and  N_6
REMARK    4  A    between atoms: N_15  and  C_16
REMARK    5  A    between atoms: C_16  and  C_17
REMARK    6  A    between atoms: C_31  and  O_32
REMARK    7  A    between atoms: O_32  and  C_33
REMARK    8  A    between atoms: C_34  and  O_35
REMARK    9  A    between atoms: O_35  and  C_36
REMARK                            x       y       z     vdW  Elec       q    Type
REMARK                         _______ _______ _______ _____ _____    ______ ____
ROOT
ATOM      1  N   UNL     1       0.716  11.821  18.753  0.00  0.00    +0.000 N 
ATOM      2  C   UNL     1       1.670  12.844  18.758  0.00  0.00    +0.000 A 
ATOM      3  O   UNL     1       2.892  12.734  18.803  0.00  0.00    +0.000 OA
ATOM      4  C   UNL     1       1.130  14.228  18.743  0.00  0.00    +0.000 A 
ATOM      5  C   UNL     1       1.904  15.317  18.343  0.00  0.00    +0.000 A 
ATOM      6  C   UNL     1       1.362  16.601  18.411  0.00  0.00    +0.000 A 
ATOM      7  C   UNL     1       0.069  16.796  18.906  0.00  0.00    +0.000 A 
ATOM      8  C   UNL     1      -0.695  15.705  19.324  0.00  0.00    +0.000 A 
ATOM      9  C   UNL     1      -0.167  14.424  19.223  0.00  0.00    +0.000 A 
ATOM     10  N   UNL     1      -0.972  13.284  19.479  0.00  0.00    +0.000 N 
ATOM     11  C   UNL     1      -0.627  12.199  18.642  0.00  0.00    +0.000 A 
ATOM     12  O   UNL     1      -1.438  11.759  17.828  0.00  0.00    +0.000 OA
ENDROOT
BRANCH   1  15
ATOM     13  C   UNL     1       2.162   8.362  18.224  0.00  0.00    +0.000 A 
ATOM     14  C   UNL     1       1.591   9.625  17.954  0.00  0.00    +0.000 A 
ATOM     15  C   UNL     1       1.028  10.424  18.954  0.00  0.00    +0.000 A 
ATOM     16  C   UNL     1       0.929   9.842  20.223  0.00  0.00    +0.000 A 
ATOM     17  C   UNL     1       1.425   8.561  20.507  0.00  0.00    +0.000 A 
ATOM     18  C   UNL     1       2.065   7.804  19.514  0.00  0.00    +0.000 A 
BRANCH  13  20
ATOM     19  C   UNL     1       4.179   7.343  17.468  0.00  0.00    +0.000 C 
ATOM     20  O   UNL     1       2.807   7.665  17.229  0.00  0.00    +0.000 OA
ENDBRANCH  13  20
BRANCH  17  21
ATOM     21  O   UNL     1       1.172   8.201  21.812  0.00  0.00    +0.000 OA
ATOM     22  C   UNL     1       0.768   9.218  22.714  0.00  0.00    +0.000 C 
ENDBRANCH  17  21
BRANCH  18  23
ATOM     23  O   UNL     1       2.525   6.584  19.920  0.00  0.00    +0.000 OA
ATOM     24  C   UNL     1       1.797   5.394  19.689  0.00  0.00    +0.000 C 
ENDBRANCH  18  23
ENDBRANCH   1  15
BRANCH  10  25
ATOM     25  C   UNL     1      -1.020  12.906  20.907  0.00  0.00    +0.000 C 
BRANCH  25  26
ATOM     26  C   UNL     1      -2.453  12.746  21.391  0.00  0.00    +0.000 A 
ATOM     27  C   UNL     1      -2.747  12.482  22.669  0.00  0.00    +0.000 A 
ATOM     28  C   UNL     1      -4.154  12.483  23.100  0.00  0.00    +0.000 A 
ATOM     29  O   UNL     1      -4.417  12.193  24.266  0.00  0.00    +0.000 OA
ATOM     30  N   UNL     1      -5.077  12.832  22.126  0.00  0.00    +0.000 N 
ATOM     31  C   UNL     1      -6.412  12.991  22.477  0.00  0.00    +0.000 A 
ATOM     32  C   UNL     1      -7.343  13.326  21.574  0.00  0.00    +0.000 A 
ATOM     33  C   UNL     1      -6.976  13.482  20.191  0.00  0.00    +0.000 A 
ATOM     34  C   UNL     1      -5.704  13.327  19.805  0.00  0.00    +0.000 A 
ATOM     35  C   UNL     1      -4.652  13.025  20.818  0.00  0.00    +0.000 A 
ATOM     36  N   UNL     1      -3.413  12.961  20.431  0.00  0.00    +0.000 NA
ENDBRANCH  25  26
ENDBRANCH  10  25
TORSDOF 6
ENDMDL
MODEL 9
REMARK VINA RESULT:      -8.2      4.998     11.669
REMARK  Name = 
REMARK  9 active torsions:
REMARK  status: ('A' for Active; 'I' for Inactive)
REMARK    1  A    between atoms: C_1  and  O_2
REMARK    2  A    between atoms: O_2  and  C_3
REMARK    3  A    between atoms: C_5  and  N_6
REMARK    4  A    between atoms: N_15  and  C_16
REMARK    5  A    between atoms: C_16  and  C_17
REMARK    6  A    between atoms: C_31  and  O_32
REMARK    7  A    between atoms: O_32  and  C_33
REMARK    8  A    between atoms: C_34  and  O_35
REMARK    9  A    between atoms: O_35  and  C_36
REMARK                            x       y       z     vdW  Elec       q    Type
REMARK                         _______ _______ _______ _____ _____    ______ ____
ROOT
ATOM      1  N   UNL     1      -0.457  14.582  20.583  0.00  0.00    +0.000 N 
ATOM      2  C   UNL     1      -0.337  15.577  19.607  0.00  0.00    +0.000 A 
ATOM      3  O   UNL     1      -1.193  16.373  19.233  0.00  0.00    +0.000 OA
ATOM      4  C   UNL     1       0.979  15.648  18.920  0.00  0.00    +0.000 A 
ATOM      5  C   UNL     1       1.396  16.794  18.242  0.00  0.00    +0.000 A 
ATOM      6  C   UNL     1       2.614  16.779  17.562  0.00  0.00    +0.000 A 
ATOM      7  C   UNL     1       3.391  15.617  17.531  0.00  0.00    +0.000 A 
ATOM      8  C   UNL     1       2.959  14.466  18.193  0.00  0.00    +0.000 A 
ATOM      9  C   UNL     1       1.764  14.493  18.899  0.00  0.00    +0.000 A 
ATOM     10  N   UNL     1       1.379  13.400  19.718  0.00  0.00    +0.000 N 
ATOM     11  C   UNL     1       0.686  13.828  20.872  0.00  0.00    +0.000 A 
ATOM     12  O   UNL     1       1.160  13.633  21.991  0.00  0.00    +0.000 OA
ENDROOT
BRANCH   1  15
ATOM     13  C   UNL     1      -3.814  12.958  21.241  0.00  0.00    +0.000 A 
ATOM     14  C   UNL     1      -2.733  13.559  20.559  0.00  0.00    +0.000 A 
ATOM     15  C   UNL     1      -1.703  14.228  21.227  0.00  0.00    +0.000 A 
ATOM     16  C   UNL     1      -1.871  14.396  22.606  0.00  0.00    +0.000 A 
ATOM     17  C   UNL     1      -2.969  13.870  23.303  0.00  0.00    +0.000 A 
ATOM     18  C   UNL     1      -3.953  13.127  22.633  0.00  0.00    +0.000 A 
BRANCH  13  20
ATOM     19  C   UNL     1      -4.597  12.179  19.129  0.00  0.00    +0.000 C 
ATOM     20  O   UNL     1      -4.741  12.213  20.551  0.00  0.00    +0.000 OA
ENDBRANCH  13  20
BRANCH  17  21
ATOM     21  O   UNL     1      -2.925  14.204  24.638  0.00  0.00    +0.000 OA
ATOM     22  C   UNL     1      -3.410  15.482  25.017  0.00  0.00    +0.000 C 
ENDBRANCH  17  21
BRANCH  18  23
ATOM     23  O   UNL     1      -4.958  12.649  23.424  0.00  0.00    +0.000 OA
ATOM     24  C   UNL     1      -6.204  13.306  23.531  0.00  0.00    +0.000 C 
ENDBRANCH  18  23
ENDBRANCH   1  15
BRANCH  10  25
ATOM     25  C   UNL     1       0.658  12.339  18.984  0.00  0.00    +0.000 C 
BRANCH  25  26
ATOM     26  C   UNL     1       1.099  10.955  19.433  0.00  0.00    +0.000 A 
ATOM     27  C   UNL     1       0.776  10.462  20.635  0.00  0.00    +0.000 A 
ATOM     28  C   UNL     1       1.109   9.064  20.953  0.00  0.00    +0.000 A 
ATOM     29  O   UNL     1       0.852   8.635  22.076  0.00  0.00    +0.000 OA
ATOM     30  N   UNL     1       1.688   8.339  19.923  0.00  0.00    +0.000 N 
ATOM     31  C   UNL     1       1.911   6.977  20.088  0.00  0.00    +0.000 A 
ATOM     32  C   UNL     1       2.468   6.232  19.125  0.00  0.00    +0.000 A 
ATOM     33  C   UNL     1       2.897   6.850  17.899  0.00  0.00    +0.000 A 
ATOM     34  C   UNL     1       2.714   8.161  17.700  0.00  0.00    +0.000 A 
ATOM     35  C   UNL     1       2.029   8.982  18.740  0.00  0.00    +0.000 A 
ATOM     36  N   UNL     1       1.788  10.234  18.488  0.00  0.00    +0.000 NA
ENDBRANCH  25  26
ENDBRANCH  10  25
TORSDOF 6
ENDMDL
