MODEL 1
REMARK VINA RESULT:      -6.0      0.000      0.000
REMARK  Name = 
REMARK  4 active torsions:
REMARK  status: ('A' for Active; 'I' for Inactive)
REMARK    1  A    between atoms: C_1  and  C_2
REMARK    2  A    between atoms: C_2  and  C_3
REMARK    3  A    between atoms: C_2  and  C_4
REMARK    4  A    between atoms: C_7  and  N_8
REMARK                            x       y       z     vdW  Elec       q    Type
REMARK                         _______ _______ _______ _____ _____    ______ ____
ROOT
ATOM      1  N   UNL     1      -0.282  10.864  19.481  0.00  0.00    +0.000 N 
ATOM      2  C   UNL     1      -1.470  10.930  18.745  0.00  0.00    +0.000 A 
ATOM      3  S   UNL     1      -2.440   9.673  18.197  0.00  0.00    +0.000 S 
ATOM      4  O   UNL     1      -1.990  12.215  18.587  0.00  0.00    +0.000 OA
ATOM      5  C   UNL     1      -2.340  12.658  19.861  0.00  0.00    +0.000 A 
ATOM      6  C   UNL     1      -3.586  13.246  20.035  0.00  0.00    +0.000 A 
ATOM      7  C   UNL     1      -4.140  13.222  21.310  0.00  0.00    +0.000 A 
ATOM      8  C   UNL     1      -3.434  12.627  22.360  0.00  0.00    +0.000 A 
ATOM      9  F   UNL     1      -4.060  12.423  23.526  0.00  0.00    +0.000 F 
ATOM     10  C   UNL     1      -2.119  12.188  22.204  0.00  0.00    +0.000 A 
ATOM     11  C   UNL     1      -1.550  12.271  20.939  0.00  0.00    +0.000 A 
ATOM     12  C   UNL     1      -0.207  11.762  20.557  0.00  0.00    +0.000 A 
ATOM     13  S   UNL     1       1.165  12.407  21.290  0.00  0.00    +0.000 S 
ENDROOT
BRANCH   1  17
ATOM     14  C   UNL     1       2.492   7.693  18.588  0.00  0.00    +0.000 A 
ATOM     15  C   UNL     1       2.197   8.679  17.637  0.00  0.00    +0.000 A 
ATOM     16  C   UNL     1       1.327   9.727  17.941  0.00  0.00    +0.000 A 
ATOM     17  C   UNL     1       0.695   9.841  19.208  0.00  0.00    +0.000 A 
ATOM     18  C   UNL     1       1.032   8.874  20.160  0.00  0.00    +0.000 A 
ATOM     19  C   UNL     1       1.901   7.819  19.853  0.00  0.00    +0.000 A 
BRANCH  14  21
ATOM     20  C   UNL     1       2.614   5.255  17.963  0.00  0.00    +0.000 C 
ATOM     21  C   UNL     1       3.413   6.527  18.267  0.00  0.00    +0.000 C 
ATOM     22  C   UNL     1       4.350   6.836  17.092  0.00  0.00    +0.000 C 
ENDBRANCH  14  21
ENDBRANCH   1  17
TORSDOF 2
ENDMDL
MODEL 2
REMARK VINA RESULT:      -6.0      5.161      9.128
REMARK  Name = 
REMARK  4 active torsions:
REMARK  status: ('A' for Active; 'I' for Inactive)
REMARK    1  A    between atoms: C_1  and  C_2
REMARK    2  A    between atoms: C_2  and  C_3
REMARK    3  A    between atoms: C_2  and  C_4
REMARK    4  A    between atoms: C_7  and  N_8
REMARK                            x       y       z     vdW  Elec       q    Type
REMARK                         _______ _______ _______ _____ _____    ______ ____
ROOT
ATOM      1  N   UNL     1       3.566   6.376  18.027  0.00  0.00    +0.000 N 
ATOM      2  C   UNL     1       3.228   5.019  18.058  0.00  0.00    +0.000 A 
ATOM      3  S   UNL     1       1.744   4.297  17.741  0.00  0.00    +0.000 S 
ATOM      4  O   UNL     1       4.307   4.150  18.220  0.00  0.00    +0.000 OA
ATOM      5  C   UNL     1       5.100   4.289  17.082  0.00  0.00    +0.000 A 
ATOM      6  C   UNL     1       5.544   3.138  16.444  0.00  0.00    +0.000 A 
ATOM      7  C   UNL     1       5.874   3.233  15.096  0.00  0.00    +0.000 A 
ATOM      8  C   UNL     1       5.760   4.463  14.441  0.00  0.00    +0.000 A 
ATOM      9  F   UNL     1       5.876   4.498  13.108  0.00  0.00    +0.000 F 
ATOM     10  C   UNL     1       5.470   5.639  15.133  0.00  0.00    +0.000 A 
ATOM     11  C   UNL     1       5.201   5.546  16.493  0.00  0.00    +0.000 A 
ATOM     12  C   UNL     1       4.773   6.665  17.371  0.00  0.00    +0.000 A 
ATOM     13  S   UNL     1       5.799   7.982  17.597  0.00  0.00    +0.000 S 
ENDROOT
BRANCH   1  17
ATOM     14  C   UNL     1       0.978   9.477  19.520  0.00  0.00    +0.000 A 
ATOM     15  C   UNL     1       1.371   9.454  18.176  0.00  0.00    +0.000 A 
ATOM     16  C   UNL     1       2.177   8.427  17.684  0.00  0.00    +0.000 A 
ATOM     17  C   UNL     1       2.648   7.373  18.513  0.00  0.00    +0.000 A 
ATOM     18  C   UNL     1       2.213   7.387  19.842  0.00  0.00    +0.000 A 
ATOM     19  C   UNL     1       1.406   8.420  20.336  0.00  0.00    +0.000 A 
BRANCH  14  21
ATOM     20  C   UNL     1      -1.138  10.816  19.237  0.00  0.00    +0.000 C 
ATOM     21  C   UNL     1       0.123  10.601  20.082  0.00  0.00    +0.000 C 
ATOM     22  C   UNL     1      -0.277  10.351  21.542  0.00  0.00    +0.000 C 
ENDBRANCH  14  21
ENDBRANCH   1  17
TORSDOF 2
ENDMDL
MODEL 3
REMARK VINA RESULT:      -6.0      5.195      9.211
REMARK  Name = 
REMARK  4 active torsions:
REMARK  status: ('A' for Active; 'I' for Inactive)
REMARK    1  A    between atoms: C_1  and  C_2
REMARK    2  A    between atoms: C_2  and  C_3
REMARK    3  A    between atoms: C_2  and  C_4
REMARK    4  A    between atoms: C_7  and  N_8
REMARK                            x       y       z     vdW  Elec       q    Type
REMARK                         _______ _______ _______ _____ _____    ______ ____
ROOT
ATOM      1  N   UNL     1       3.679   6.414  17.982  0.00  0.00    +0.000 N 
ATOM      2  C   UNL     1       3.262   5.080  18.022  0.00  0.00    +0.000 A 
ATOM      3  S   UNL     1       1.738   4.444  17.712  0.00  0.00    +0.000 S 
ATOM      4  O   UNL     1       4.289   4.150  18.188  0.00  0.00    +0.000 OA
ATOM      5  C   UNL     1       5.087   4.235  17.048  0.00  0.00    +0.000 A 
ATOM      6  C   UNL     1       5.461   3.057  16.417  0.00  0.00    +0.000 A 
ATOM      7  C   UNL     1       5.794   3.124  15.068  0.00  0.00    +0.000 A 
ATOM      8  C   UNL     1       5.751   4.353  14.406  0.00  0.00    +0.000 A 
ATOM      9  F   UNL     1       5.867   4.373  13.072  0.00  0.00    +0.000 F 
ATOM     10  C   UNL     1       5.531   5.549  15.090  0.00  0.00    +0.000 A 
ATOM     11  C   UNL     1       5.260   5.480  16.452  0.00  0.00    +0.000 A 
ATOM     12  C   UNL     1       4.899   6.628  17.323  0.00  0.00    +0.000 A 
ATOM     13  S   UNL     1       6.001   7.884  17.539  0.00  0.00    +0.000 S 
ENDROOT
BRANCH   1  17
ATOM     14  C   UNL     1       0.957   9.447  19.375  0.00  0.00    +0.000 A 
ATOM     15  C   UNL     1       1.398   8.429  20.231  0.00  0.00    +0.000 A 
ATOM     16  C   UNL     1       2.310   7.470  19.790  0.00  0.00    +0.000 A 
ATOM     17  C   UNL     1       2.822   7.467  18.464  0.00  0.00    +0.000 A 
ATOM     18  C   UNL     1       2.405   8.512  17.635  0.00  0.00    +0.000 A 
ATOM     19  C   UNL     1       1.486   9.473  18.077  0.00  0.00    +0.000 A 
BRANCH  14  21
ATOM     20  C   UNL     1      -1.319  10.444  18.957  0.00  0.00    +0.000 C 
ATOM     21  C   UNL     1      -0.058  10.484  19.827  0.00  0.00    +0.000 C 
ATOM     22  C   UNL     1      -0.448  10.309  21.301  0.00  0.00    +0.000 C 
ENDBRANCH  14  21
ENDBRANCH   1  17
TORSDOF 2
ENDMDL
MODEL 4
REMARK VINA RESULT:      -5.8      1.798      2.401
REMARK  Name = 
REMARK  4 active torsions:
REMARK  status: ('A' for Active; 'I' for Inactive)
REMARK    1  A    between atoms: C_1  and  C_2
REMARK    2  A    between atoms: C_2  and  C_3
REMARK    3  A    between atoms: C_2  and  C_4
REMARK    4  A    between atoms: C_7  and  N_8
REMARK                            x       y       z     vdW  Elec       q    Type
REMARK                         _______ _______ _______ _____ _____    ______ ____
ROOT
ATOM      1  N   UNL     1       0.986   9.612  20.408  0.00  0.00    +0.000 N 
ATOM      2  C   UNL     1       0.390  10.586  19.601  0.00  0.00    +0.000 A 
ATOM      3  S   UNL     1      -0.655  10.381  18.301  0.00  0.00    +0.000 S 
ATOM      4  O   UNL     1       0.568  11.898  20.039  0.00  0.00    +0.000 OA
ATOM      5  C   UNL     1      -0.094  12.000  21.261  0.00  0.00    +0.000 A 
ATOM      6  C   UNL     1      -0.927  13.091  21.470  0.00  0.00    +0.000 A 
ATOM      7  C   UNL     1      -1.944  12.958  22.409  0.00  0.00    +0.000 A 
ATOM      8  C   UNL     1      -2.086  11.756  23.108  0.00  0.00    +0.000 A 
ATOM      9  F   UNL     1      -3.185  11.565  23.849  0.00  0.00    +0.000 F 
ATOM     10  C   UNL     1      -1.146  10.730  23.004  0.00  0.00    +0.000 A 
ATOM     11  C   UNL     1      -0.098  10.896  22.107  0.00  0.00    +0.000 A 
ATOM     12  C   UNL     1       0.936   9.878  21.785  0.00  0.00    +0.000 A 
ATOM     13  S   UNL     1       1.972   9.333  22.996  0.00  0.00    +0.000 S 
ENDROOT
BRANCH   1  17
ATOM     14  C   UNL     1       2.609   5.963  18.796  0.00  0.00    +0.000 A 
ATOM     15  C   UNL     1       1.973   5.976  20.044  0.00  0.00    +0.000 A 
ATOM     16  C   UNL     1       1.413   7.151  20.548  0.00  0.00    +0.000 A 
ATOM     17  C   UNL     1       1.471   8.381  19.837  0.00  0.00    +0.000 A 
ATOM     18  C   UNL     1       2.071   8.342  18.575  0.00  0.00    +0.000 A 
ATOM     19  C   UNL     1       2.637   7.163  18.071  0.00  0.00    +0.000 A 
BRANCH  14  21
ATOM     20  C   UNL     1       2.190   3.718  17.730  0.00  0.00    +0.000 C 
ATOM     21  C   UNL     1       3.250   4.700  18.242  0.00  0.00    +0.000 C 
ATOM     22  C   UNL     1       4.251   5.003  17.119  0.00  0.00    +0.000 C 
ENDBRANCH  14  21
ENDBRANCH   1  17
TORSDOF 2
ENDMDL
MODEL 5
REMARK VINA RESULT:      -5.8      0.213      1.043
REMARK  Name = 
REMARK  4 active torsions:
REMARK  status: ('A' for Active; 'I' for Inactive)
REMARK    1  A    between atoms: C_1  and  C_2
REMARK    2  A    between atoms: C_2  and  C_3
REMARK    3  A    between atoms: C_2  and  C_4
REMARK    4  A    between atoms: C_7  and  N_8
REMARK                            x       y       z     vdW  Elec       q    Type
REMARK                         _______ _______ _______ _____ _____    ______ ____
ROOT
ATOM      1  N   UNL     1      -0.241  10.746  19.441  0.00  0.00    +0.000 N 
ATOM      2  C   UNL     1      -1.422  10.936  18.717  0.00  0.00    +0.000 A 
ATOM      3  S   UNL     1      -2.491   9.783  18.124  0.00  0.00    +0.000 S 
ATOM      4  O   UNL     1      -1.840  12.263  18.616  0.00  0.00    +0.000 OA
ATOM      5  C   UNL     1      -2.149  12.679  19.910  0.00  0.00    +0.000 A 
ATOM      6  C   UNL     1      -3.345  13.355  20.116  0.00  0.00    +0.000 A 
ATOM      7  C   UNL     1      -3.894  13.321  21.393  0.00  0.00    +0.000 A 
ATOM      8  C   UNL     1      -3.234  12.630  22.412  0.00  0.00    +0.000 A 
ATOM      9  F   UNL     1      -3.869  12.426  23.573  0.00  0.00    +0.000 F 
ATOM     10  C   UNL     1      -1.958  12.095  22.230  0.00  0.00    +0.000 A 
ATOM     11  C   UNL     1      -1.388  12.186  20.965  0.00  0.00    +0.000 A 
ATOM     12  C   UNL     1      -0.092  11.589  20.553  0.00  0.00    +0.000 A 
ATOM     13  S   UNL     1       1.330  12.093  21.303  0.00  0.00    +0.000 S 
ENDROOT
BRANCH   1  17
ATOM     14  C   UNL     1       2.578   7.613  18.555  0.00  0.00    +0.000 A 
ATOM     15  C   UNL     1       1.955   7.686  19.807  0.00  0.00    +0.000 A 
ATOM     16  C   UNL     1       1.013   8.678  20.080  0.00  0.00    +0.000 A 
ATOM     17  C   UNL     1       0.651   9.661  19.120  0.00  0.00    +0.000 A 
ATOM     18  C   UNL     1       1.249   9.550  17.861  0.00  0.00    +0.000 A 
ATOM     19  C   UNL     1       2.199   8.556  17.589  0.00  0.00    +0.000 A 
BRANCH  14  21
ATOM     20  C   UNL     1       2.980   5.199  17.953  0.00  0.00    +0.000 C 
ATOM     21  C   UNL     1       3.628   6.557  18.247  0.00  0.00    +0.000 C 
ATOM     22  C   UNL     1       4.526   6.960  17.070  0.00  0.00    +0.000 C 
ENDBRANCH  14  21
ENDBRANCH   1  17
TORSDOF 2
ENDMDL
MODEL 6
REMARK VINA RESULT:      -5.7      1.846      2.350
REMARK  Name = 
REMARK  4 active torsions:
REMARK  status: ('A' for Active; 'I' for Inactive)
REMARK    1  A    between atoms: C_1  and  C_2
REMARK    2  A    between atoms: C_2  and  C_3
REMARK    3  A    between atoms: C_2  and  C_4
REMARK    4  A    between atoms: C_7  and  N_8
REMARK                            x       y       z     vdW  Elec       q    Type
REMARK                         _______ _______ _______ _____ _____    ______ ____
ROOT
ATOM      1  N   UNL     1       1.095   9.453  20.497  0.00  0.00    +0.000 N 
ATOM      2  C   UNL     1       0.511  10.379  19.626  0.00  0.00    +0.000 A 
ATOM      3  S   UNL     1      -0.510  10.098  18.322  0.00  0.00    +0.000 S 
ATOM      4  O   UNL     1       0.678  11.714  19.993  0.00  0.00    +0.000 OA
ATOM      5  C   UNL     1      -0.007  11.881  21.196  0.00  0.00    +0.000 A 
ATOM      6  C   UNL     1      -0.846  12.980  21.328  0.00  0.00    +0.000 A 
ATOM      7  C   UNL     1      -1.879  12.896  22.255  0.00  0.00    +0.000 A 
ATOM      8  C   UNL     1      -2.031  11.734  23.018  0.00  0.00    +0.000 A 
ATOM      9  F   UNL     1      -3.143  11.581  23.748  0.00  0.00    +0.000 F 
ATOM     10  C   UNL     1      -1.087  10.707  22.988  0.00  0.00    +0.000 A 
ATOM     11  C   UNL     1      -0.023  10.826  22.102  0.00  0.00    +0.000 A 
ATOM     12  C   UNL     1       1.019   9.796  21.856  0.00  0.00    +0.000 A 
ATOM     13  S   UNL     1       2.034   9.322  23.114  0.00  0.00    +0.000 S 
ENDROOT
BRANCH   1  17
ATOM     14  C   UNL     1       2.409   5.665  18.926  0.00  0.00    +0.000 A 
ATOM     15  C   UNL     1       2.620   6.851  18.211  0.00  0.00    +0.000 A 
ATOM     16  C   UNL     1       2.229   8.082  18.739  0.00  0.00    +0.000 A 
ATOM     17  C   UNL     1       1.592   8.194  20.005  0.00  0.00    +0.000 A 
ATOM     18  C   UNL     1       1.427   7.006  20.724  0.00  0.00    +0.000 A 
ATOM     19  C   UNL     1       1.816   5.770  20.192  0.00  0.00    +0.000 A 
BRANCH  14  21
ATOM     20  C   UNL     1       1.577   3.551  17.834  0.00  0.00    +0.000 C 
ATOM     21  C   UNL     1       2.802   4.311  18.357  0.00  0.00    +0.000 C 
ATOM     22  C   UNL     1       3.843   4.434  17.236  0.00  0.00    +0.000 C 
ENDBRANCH  14  21
ENDBRANCH   1  17
TORSDOF 2
ENDMDL
MODEL 7
REMARK VINA RESULT:      -5.7      1.999      2.634
REMARK  Name = 
REMARK  4 active torsions:
REMARK  status: ('A' for Active; 'I' for Inactive)
REMARK    1  A    between atoms: C_1  and  C_2
REMARK    2  A    between atoms: C_2  and  C_3
REMARK    3  A    between atoms: C_2  and  C_4
REMARK    4  A    between atoms: C_7  and  N_8
REMARK                            x       y       z     vdW  Elec       q    Type
REMARK                         _______ _______ _______ _____ _____    ______ ____
ROOT
ATOM      1  N   UNL     1       0.727  10.784  20.786  0.00  0.00    +0.000 N 
ATOM      2  C   UNL     1       1.116  12.070  20.397  0.00  0.00    +0.000 A 
ATOM      3  S   UNL     1       1.276  12.697  18.847  0.00  0.00    +0.000 S 
ATOM      4  O   UNL     1       1.232  12.988  21.441  0.00  0.00    +0.000 OA
ATOM      5  C   UNL     1      -0.049  13.152  21.966  0.00  0.00    +0.000 A 
ATOM      6  C   UNL     1      -0.506  14.442  22.199  0.00  0.00    +0.000 A 
ATOM      7  C   UNL     1      -1.881  14.647  22.224  0.00  0.00    +0.000 A 
ATOM      8  C   UNL     1      -2.744  13.565  22.028  0.00  0.00    +0.000 A 
ATOM      9  F   UNL     1      -4.049  13.805  21.845  0.00  0.00    +0.000 F 
ATOM     10  C   UNL     1      -2.275  12.254  21.957  0.00  0.00    +0.000 A 
ATOM     11  C   UNL     1      -0.900  12.051  21.994  0.00  0.00    +0.000 A 
ATOM     12  C   UNL     1      -0.212  10.745  21.829  0.00  0.00    +0.000 A 
ATOM     13  S   UNL     1      -0.490   9.513  22.943  0.00  0.00    +0.000 S 
ENDROOT
BRANCH   1  17
ATOM     14  C   UNL     1       2.241   7.390  18.610  0.00  0.00    +0.000 A 
ATOM     15  C   UNL     1       2.100   7.346  20.003  0.00  0.00    +0.000 A 
ATOM     16  C   UNL     1       1.573   8.432  20.703  0.00  0.00    +0.000 A 
ATOM     17  C   UNL     1       1.170   9.628  20.050  0.00  0.00    +0.000 A 
ATOM     18  C   UNL     1       1.277   9.641  18.656  0.00  0.00    +0.000 A 
ATOM     19  C   UNL     1       1.810   8.552  17.954  0.00  0.00    +0.000 A 
BRANCH  14  21
ATOM     20  C   UNL     1       4.287   5.961  18.260  0.00  0.00    +0.000 C 
ATOM     21  C   UNL     1       2.839   6.229  17.833  0.00  0.00    +0.000 C 
ATOM     22  C   UNL     1       2.015   4.943  17.986  0.00  0.00    +0.000 C 
ENDBRANCH  14  21
ENDBRANCH   1  17
TORSDOF 2
ENDMDL
MODEL 8
REMARK VINA RESULT:      -5.6      2.289      3.239
REMARK  Name = 
REMARK  4 active torsions:
REMARK  status: ('A' for Active; 'I' for Inactive)
REMARK    1  A    between atoms: C_1  and  C_2
REMARK    2  A    between atoms: C_2  and  C_3
REMARK    3  A    between atoms: C_2  and  C_4
REMARK    4  A    between atoms: C_7  and  N_8
REMARK                            x       y       z     vdW  Elec       q    Type
REMARK                         _______ _______ _______ _____ _____    ______ ____
ROOT
ATOM      1  N   UNL     1       0.497   9.443  20.410  0.00  0.00    +0.000 N 
ATOM      2  C   UNL     1       0.512   9.461  21.808  0.00  0.00    +0.000 A 
ATOM      3  S   UNL     1       1.822   9.306  22.849  0.00  0.00    +0.000 S 
ATOM      4  O   UNL     1      -0.701   9.810  22.402  0.00  0.00    +0.000 OA
ATOM      5  C   UNL     1      -0.953  11.132  22.036  0.00  0.00    +0.000 A 
ATOM      6  C   UNL     1      -1.346  12.025  23.023  0.00  0.00    +0.000 A 
ATOM      7  C   UNL     1      -1.110  13.378  22.802  0.00  0.00    +0.000 A 
ATOM      8  C   UNL     1      -0.506  13.788  21.610  0.00  0.00    +0.000 A 
ATOM      9  F   UNL     1      -0.094  15.058  21.498  0.00  0.00    +0.000 F 
ATOM     10  C   UNL     1      -0.266  12.898  20.563  0.00  0.00    +0.000 A 
ATOM     11  C   UNL     1      -0.561  11.555  20.770  0.00  0.00    +0.000 A 
ATOM     12  C   UNL     1      -0.281  10.450  19.818  0.00  0.00    +0.000 A 
ATOM     13  S   UNL     1      -1.022  10.449  18.305  0.00  0.00    +0.000 S 
ENDROOT
BRANCH   1  17
ATOM     14  C   UNL     1       3.186   6.803  18.324  0.00  0.00    +0.000 A 
ATOM     15  C   UNL     1       2.599   6.419  19.537  0.00  0.00    +0.000 A 
ATOM     16  C   UNL     1       1.698   7.260  20.192  0.00  0.00    +0.000 A 
ATOM     17  C   UNL     1       1.344   8.536  19.677  0.00  0.00    +0.000 A 
ATOM     18  C   UNL     1       1.905   8.887  18.446  0.00  0.00    +0.000 A 
ATOM     19  C   UNL     1       2.813   8.045  17.790  0.00  0.00    +0.000 A 
BRANCH  14  21
ATOM     20  C   UNL     1       4.916   6.680  16.496  0.00  0.00    +0.000 C 
ATOM     21  C   UNL     1       4.191   5.915  17.609  0.00  0.00    +0.000 C 
ATOM     22  C   UNL     1       5.224   5.316  18.574  0.00  0.00    +0.000 C 
ENDBRANCH  14  21
ENDBRANCH   1  17
TORSDOF 2
ENDMDL
MODEL 9
REMARK VINA RESULT:      -5.5      2.278      3.092
REMARK  Name = 
REMARK  4 active torsions:
REMARK  status: ('A' for Active; 'I' for Inactive)
REMARK    1  A    between atoms: C_1  and  C_2
REMARK    2  A    between atoms: C_2  and  C_3
REMARK    3  A    between atoms: C_2  and  C_4
REMARK    4  A    between atoms: C_7  and  N_8
REMARK                            x       y       z     vdW  Elec       q    Type
REMARK                         _______ _______ _______ _____ _____    ______ ____
ROOT
ATOM      1  N   UNL     1       0.555   9.379  20.496  0.00  0.00    +0.000 N 
ATOM      2  C   UNL     1       0.521   9.379  21.894  0.00  0.00    +0.000 A 
ATOM      3  S   UNL     1       1.800   9.257  22.977  0.00  0.00    +0.000 S 
ATOM      4  O   UNL     1      -0.722   9.679  22.449  0.00  0.00    +0.000 OA
ATOM      5  C   UNL     1      -1.008  10.995  22.090  0.00  0.00    +0.000 A 
ATOM      6  C   UNL     1      -1.465  11.862  23.074  0.00  0.00    +0.000 A 
ATOM      7  C   UNL     1      -1.269  13.225  22.876  0.00  0.00    +0.000 A 
ATOM      8  C   UNL     1      -0.640  13.671  21.711  0.00  0.00    +0.000 A 
ATOM      9  F   UNL     1      -0.269  14.955  21.627  0.00  0.00    +0.000 F 
ATOM     10  C   UNL     1      -0.333  12.803  20.663  0.00  0.00    +0.000 A 
ATOM     11  C   UNL     1      -0.588  11.448  20.843  0.00  0.00    +0.000 A 
ATOM     12  C   UNL     1      -0.237  10.365  19.889  0.00  0.00    +0.000 A 
ATOM     13  S   UNL     1      -0.925  10.358  18.351  0.00  0.00    +0.000 S 
ENDROOT
BRANCH   1  17
ATOM     14  C   UNL     1       3.097   6.718  18.259  0.00  0.00    +0.000 A 
ATOM     15  C   UNL     1       2.812   8.005  17.786  0.00  0.00    +0.000 A 
ATOM     16  C   UNL     1       2.020   8.880  18.531  0.00  0.00    +0.000 A 
ATOM     17  C   UNL     1       1.458   8.511  19.783  0.00  0.00    +0.000 A 
ATOM     18  C   UNL     1       1.786   7.239  20.261  0.00  0.00    +0.000 A 
ATOM     19  C   UNL     1       2.578   6.359  19.511  0.00  0.00    +0.000 A 
BRANCH  14  21
ATOM     20  C   UNL     1       5.041   6.463  16.675  0.00  0.00    +0.000 C 
ATOM     21  C   UNL     1       3.934   5.739  17.451  0.00  0.00    +0.000 C 
ATOM     22  C   UNL     1       4.558   4.646  18.329  0.00  0.00    +0.000 C 
ENDBRANCH  14  21
ENDBRANCH   1  17
TORSDOF 2
ENDMDL
