MODEL 1
REMARK VINA RESULT:      -7.5      0.000      0.000
REMARK  Name = 
REMARK  8 active torsions:
REMARK  status: ('A' for Active; 'I' for Inactive)
REMARK    1  A    between atoms: C_1  and  C_2
REMARK    2  A    between atoms: C_2  and  C_3
REMARK    3  A    between atoms: C_10  and  C_11
REMARK    4  A    between atoms: C_11  and  O_12
REMARK    5  A    between atoms: C_11  and  C_13
REMARK    6  A    between atoms: C_15  and  C_16
REMARK    7  A    between atoms: C_26  and  O_27
REMARK    8  A    between atoms: O_27  and  C_28
REMARK                            x       y       z     vdW  Elec       q    Type
REMARK                         _______ _______ _______ _____ _____    ______ ____
ROOT
ATOM      1  C   UNL     1       0.408   9.866  18.957  0.00  0.00    +0.000 A 
ATOM      2  C   UNL     1       1.289   9.008  18.276  0.00  0.00    +0.000 A 
ATOM      3  C   UNL     1       2.011   8.011  18.938  0.00  0.00    +0.000 A 
ATOM      4  N   UNL     1       1.898   7.904  20.285  0.00  0.00    +0.000 NA
ATOM      5  C   UNL     1       1.139   8.755  21.021  0.00  0.00    +0.000 A 
ATOM      6  C   UNL     1       1.150   8.630  22.415  0.00  0.00    +0.000 A 
ATOM      7  C   UNL     1       0.411   9.502  23.210  0.00  0.00    +0.000 A 
ATOM      8  C   UNL     1      -0.374  10.504  22.616  0.00  0.00    +0.000 A 
ATOM      9  C   UNL     1      -0.413  10.612  21.219  0.00  0.00    +0.000 A 
ATOM     10  C   UNL     1       0.355   9.762  20.387  0.00  0.00    +0.000 A 
ENDROOT
BRANCH   3  11
ATOM     11  C   UNL     1       2.842   7.039  18.175  0.00  0.00    +0.000 A 
ATOM     12  C   UNL     1       3.924   7.489  17.399  0.00  0.00    +0.000 A 
ATOM     13  C   UNL     1       4.742   6.573  16.733  0.00  0.00    +0.000 A 
ATOM     14  C   UNL     1       4.461   5.214  16.823  0.00  0.00    +0.000 A 
ATOM     15  N   UNL     1       3.401   4.783  17.558  0.00  0.00    +0.000 NA
ATOM     16  C   UNL     1       2.602   5.652  18.231  0.00  0.00    +0.000 A 
ENDBRANCH   3  11
BRANCH   8  17
ATOM     17  O   UNL     1      -1.093  11.397  23.347  0.00  0.00    +0.000 OA
ATOM     18  C   UNL     1      -2.338  11.897  23.022  0.00  0.00    +0.000 C 
ENDBRANCH   8  17
BRANCH   1  19
ATOM     19  C   UNL     1      -0.401  10.838  18.069  0.00  0.00    +0.000 C 
BRANCH  19  27
ATOM     20  C   UNL     1      -2.968  10.151  15.849  0.00  0.00    +0.000 C 
ATOM     21  C   UNL     1      -2.586  11.631  16.135  0.00  0.00    +0.000 C 
ATOM     22  N   UNL     1      -2.661  11.916  17.595  0.00  0.00    +0.000 NA
ATOM     23  C   UNL     1      -4.106  11.930  17.965  0.00  0.00    +0.000 C 
ATOM     24  C   UNL     1      -4.804  10.605  17.554  0.00  0.00    +0.000 C 
ATOM     25  C   UNL     1      -3.732   9.606  17.086  0.00  0.00    +0.000 C 
ATOM     26  C   UNL     1      -2.695   9.495  18.232  0.00  0.00    +0.000 C 
ATOM     27  C   UNL     1      -1.951  10.873  18.402  0.00  0.00    +0.000 C 
BRANCH  20  29
ATOM     28  C   UNL     1      -2.722   9.595  13.374  0.00  0.00    +0.000 C 
ATOM     29  C   UNL     1      -3.695   9.970  14.499  0.00  0.00    +0.000 C 
ENDBRANCH  20  29
ENDBRANCH  19  27
BRANCH  19  30
ATOM     30  O   UNL     1       0.181  12.120  18.036  0.00  0.00    +0.000 OA
ATOM     31  H   UNL     1       1.158  12.030  17.880  0.00  0.00    +0.000 HD
ENDBRANCH  19  30
ENDBRANCH   1  19
TORSDOF 6
ENDMDL
MODEL 2
REMARK VINA RESULT:      -7.2      3.994      8.808
REMARK  Name = 
REMARK  8 active torsions:
REMARK  status: ('A' for Active; 'I' for Inactive)
REMARK    1  A    between atoms: C_1  and  C_2
REMARK    2  A    between atoms: C_2  and  C_3
REMARK    3  A    between atoms: C_10  and  C_11
REMARK    4  A    between atoms: C_11  and  O_12
REMARK    5  A    between atoms: C_11  and  C_13
REMARK    6  A    between atoms: C_15  and  C_16
REMARK    7  A    between atoms: C_26  and  O_27
REMARK    8  A    between atoms: O_27  and  C_28
REMARK                            x       y       z     vdW  Elec       q    Type
REMARK                         _______ _______ _______ _____ _____    ______ ____
ROOT
ATOM      1  C   UNL     1       2.869   6.455  18.908  0.00  0.00    +0.000 A 
ATOM      2  C   UNL     1       2.264   7.586  19.484  0.00  0.00    +0.000 A 
ATOM      3  C   UNL     1       1.313   7.477  20.502  0.00  0.00    +0.000 A 
ATOM      4  N   UNL     1       0.923   6.244  20.908  0.00  0.00    +0.000 NA
ATOM      5  C   UNL     1       1.395   5.107  20.335  0.00  0.00    +0.000 A 
ATOM      6  C   UNL     1       0.872   3.878  20.753  0.00  0.00    +0.000 A 
ATOM      7  C   UNL     1       1.304   2.690  20.170  0.00  0.00    +0.000 A 
ATOM      8  C   UNL     1       2.290   2.713  19.169  0.00  0.00    +0.000 A 
ATOM      9  C   UNL     1       2.839   3.940  18.771  0.00  0.00    +0.000 A 
ATOM     10  C   UNL     1       2.395   5.166  19.321  0.00  0.00    +0.000 A 
ENDROOT
BRANCH   3  11
ATOM     11  C   UNL     1       0.779   8.693  21.178  0.00  0.00    +0.000 A 
ATOM     12  C   UNL     1       0.048   9.645  20.448  0.00  0.00    +0.000 A 
ATOM     13  C   UNL     1      -0.505  10.753  21.092  0.00  0.00    +0.000 A 
ATOM     14  C   UNL     1      -0.305  10.921  22.459  0.00  0.00    +0.000 A 
ATOM     15  N   UNL     1       0.420  10.007  23.159  0.00  0.00    +0.000 NA
ATOM     16  C   UNL     1       0.953   8.911  22.558  0.00  0.00    +0.000 A 
ENDBRANCH   3  11
BRANCH   8  17
ATOM     17  O   UNL     1       2.728   1.585  18.549  0.00  0.00    +0.000 OA
ATOM     18  C   UNL     1       4.017   1.092  18.575  0.00  0.00    +0.000 C 
ENDBRANCH   8  17
BRANCH   1  19
ATOM     19  C   UNL     1       3.984   6.745  17.877  0.00  0.00    +0.000 C 
BRANCH  19  27
ATOM     20  C   UNL     1       7.368   7.256  18.400  0.00  0.00    +0.000 C 
ATOM     21  C   UNL     1       6.826   7.181  16.945  0.00  0.00    +0.000 C 
ATOM     22  N   UNL     1       6.095   5.903  16.724  0.00  0.00    +0.000 NA
ATOM     23  C   UNL     1       7.114   4.815  16.692  0.00  0.00    +0.000 C 
ATOM     24  C   UNL     1       7.982   4.820  17.979  0.00  0.00    +0.000 C 
ATOM     25  C   UNL     1       7.373   5.815  18.982  0.00  0.00    +0.000 C 
ATOM     26  C   UNL     1       5.891   5.409  19.169  0.00  0.00    +0.000 C 
ATOM     27  C   UNL     1       5.111   5.631  17.819  0.00  0.00    +0.000 C 
BRANCH  20  29
ATOM     28  C   UNL     1       8.546   9.509  18.234  0.00  0.00    +0.000 C 
ATOM     29  C   UNL     1       8.713   8.008  18.503  0.00  0.00    +0.000 C 
ENDBRANCH  20  29
ENDBRANCH  19  27
BRANCH  19  30
ATOM     30  O   UNL     1       3.452   7.052  16.609  0.00  0.00    +0.000 OA
ATOM     31  H   UNL     1       3.979   7.789  16.204  0.00  0.00    +0.000 HD
ENDBRANCH  19  30
ENDBRANCH   1  19
TORSDOF 6
ENDMDL
MODEL 3
REMARK VINA RESULT:      -6.8      2.586      4.352
REMARK  Name = 
REMARK  8 active torsions:
REMARK  status: ('A' for Active; 'I' for Inactive)
REMARK    1  A    between atoms: C_1  and  C_2
REMARK    2  A    between atoms: C_2  and  C_3
REMARK    3  A    between atoms: C_10  and  C_11
REMARK    4  A    between atoms: C_11  and  O_12
REMARK    5  A    between atoms: C_11  and  C_13
REMARK    6  A    between atoms: C_15  and  C_16
REMARK    7  A    between atoms: C_26  and  O_27
REMARK    8  A    between atoms: O_27  and  C_28
REMARK                            x       y       z     vdW  Elec       q    Type
REMARK                         _______ _______ _______ _____ _____    ______ ____
ROOT
ATOM      1  C   UNL     1       0.107  10.714  19.492  0.00  0.00    +0.000 A 
ATOM      2  C   UNL     1       1.009   9.829  18.876  0.00  0.00    +0.000 A 
ATOM      3  C   UNL     1       1.487   8.688  19.527  0.00  0.00    +0.000 A 
ATOM      4  N   UNL     1       1.112   8.458  20.809  0.00  0.00    +0.000 NA
ATOM      5  C   UNL     1       0.319   9.316  21.499  0.00  0.00    +0.000 A 
ATOM      6  C   UNL     1       0.054   9.048  22.847  0.00  0.00    +0.000 A 
ATOM      7  C   UNL     1      -0.729   9.918  23.602  0.00  0.00    +0.000 A 
ATOM      8  C   UNL     1      -1.282  11.064  23.007  0.00  0.00    +0.000 A 
ATOM      9  C   UNL     1      -1.045  11.319  21.648  0.00  0.00    +0.000 A 
ATOM     10  C   UNL     1      -0.225  10.472  20.866  0.00  0.00    +0.000 A 
ENDROOT
BRANCH   3  11
ATOM     11  C   UNL     1       2.344   7.704  18.807  0.00  0.00    +0.000 A 
ATOM     12  C   UNL     1       3.131   8.114  17.718  0.00  0.00    +0.000 A 
ATOM     13  C   UNL     1       3.981   7.207  17.082  0.00  0.00    +0.000 A 
ATOM     14  C   UNL     1       4.023   5.887  17.520  0.00  0.00    +0.000 A 
ATOM     15  N   UNL     1       3.246   5.489  18.562  0.00  0.00    +0.000 NA
ATOM     16  C   UNL     1       2.424   6.356  19.209  0.00  0.00    +0.000 A 
ENDBRANCH   3  11
BRANCH   8  17
ATOM     17  O   UNL     1      -2.031  11.960  23.704  0.00  0.00    +0.000 OA
ATOM     18  C   UNL     1      -3.311  12.369  23.387  0.00  0.00    +0.000 C 
ENDBRANCH   8  17
BRANCH   1  19
ATOM     19  C   UNL     1      -0.417  11.863  18.601  0.00  0.00    +0.000 C 
BRANCH  19  27
ATOM     20  C   UNL     1       0.470  14.148  21.047  0.00  0.00    +0.000 C 
ATOM     21  C   UNL     1      -0.601  14.542  19.991  0.00  0.00    +0.000 C 
ATOM     22  N   UNL     1      -0.058  14.386  18.613  0.00  0.00    +0.000 NA
ATOM     23  C   UNL     1       0.939  15.476  18.409  0.00  0.00    +0.000 C 
ATOM     24  C   UNL     1       2.031  15.452  19.513  0.00  0.00    +0.000 C 
ATOM     25  C   UNL     1       1.859  14.173  20.351  0.00  0.00    +0.000 C 
ATOM     26  C   UNL     1       1.877  12.984  19.359  0.00  0.00    +0.000 C 
ATOM     27  C   UNL     1       0.610  13.059  18.426  0.00  0.00    +0.000 C 
BRANCH  20  29
ATOM     28  C   UNL     1      -1.063  15.459  22.603  0.00  0.00    +0.000 C 
ATOM     29  C   UNL     1       0.371  14.984  22.341  0.00  0.00    +0.000 C 
ENDBRANCH  20  29
ENDBRANCH  19  27
BRANCH  19  30
ATOM     30  O   UNL     1      -0.914  11.384  17.374  0.00  0.00    +0.000 OA
ATOM     31  H   UNL     1      -0.305  11.668  16.642  0.00  0.00    +0.000 HD
ENDBRANCH  19  30
ENDBRANCH   1  19
TORSDOF 6
ENDMDL
MODEL 4
REMARK VINA RESULT:      -6.6      3.268      5.145
REMARK  Name = 
REMARK  8 active torsions:
REMARK  status: ('A' for Active; 'I' for Inactive)
REMARK    1  A    between atoms: C_1  and  C_2
REMARK    2  A    between atoms: C_2  and  C_3
REMARK    3  A    between atoms: C_10  and  C_11
REMARK    4  A    between atoms: C_11  and  O_12
REMARK    5  A    between atoms: C_11  and  C_13
REMARK    6  A    between atoms: C_15  and  C_16
REMARK    7  A    between atoms: C_26  and  O_27
REMARK    8  A    between atoms: O_27  and  C_28
REMARK                            x       y       z     vdW  Elec       q    Type
REMARK                         _______ _______ _______ _____ _____    ______ ____
ROOT
ATOM      1  C   UNL     1      -0.355  12.017  19.558  0.00  0.00    +0.000 A 
ATOM      2  C   UNL     1       0.546  11.072  19.038  0.00  0.00    +0.000 A 
ATOM      3  C   UNL     1       0.848   9.887  19.717  0.00  0.00    +0.000 A 
ATOM      4  N   UNL     1       0.297   9.671  20.936  0.00  0.00    +0.000 NA
ATOM      5  C   UNL     1      -0.509  10.580  21.542  0.00  0.00    +0.000 A 
ATOM      6  C   UNL     1      -0.963  10.316  22.839  0.00  0.00    +0.000 A 
ATOM      7  C   UNL     1      -1.765  11.235  23.510  0.00  0.00    +0.000 A 
ATOM      8  C   UNL     1      -2.148  12.430  22.877  0.00  0.00    +0.000 A 
ATOM      9  C   UNL     1      -1.722  12.683  21.566  0.00  0.00    +0.000 A 
ATOM     10  C   UNL     1      -0.877  11.784  20.873  0.00  0.00    +0.000 A 
ENDROOT
BRANCH   3  11
ATOM     11  C   UNL     1       1.711   8.848  19.088  0.00  0.00    +0.000 A 
ATOM     12  C   UNL     1       1.993   7.655  19.773  0.00  0.00    +0.000 A 
ATOM     13  C   UNL     1       2.750   6.653  19.160  0.00  0.00    +0.000 A 
ATOM     14  C   UNL     1       3.244   6.859  17.876  0.00  0.00    +0.000 A 
ATOM     15  N   UNL     1       2.984   8.023  17.223  0.00  0.00    +0.000 NA
ATOM     16  C   UNL     1       2.235   9.005  17.791  0.00  0.00    +0.000 A 
ENDBRANCH   3  11
BRANCH   8  17
ATOM     17  O   UNL     1      -2.908  13.372  23.496  0.00  0.00    +0.000 OA
ATOM     18  C   UNL     1      -4.089  13.147  24.173  0.00  0.00    +0.000 C 
ENDBRANCH   8  17
BRANCH   1  19
ATOM     19  C   UNL     1      -0.671  13.217  18.636  0.00  0.00    +0.000 C 
BRANCH  19  27
ATOM     20  C   UNL     1      -0.305  15.708  21.012  0.00  0.00    +0.000 C 
ATOM     21  C   UNL     1      -1.026  16.034  19.674  0.00  0.00    +0.000 C 
ATOM     22  N   UNL     1      -0.150  15.708  18.515  0.00  0.00    +0.000 NA
ATOM     23  C   UNL     1       0.941  16.725  18.491  0.00  0.00    +0.000 C 
ATOM     24  C   UNL     1       1.696  16.771  19.847  0.00  0.00    +0.000 C 
ATOM     25  C   UNL     1       1.217  15.597  20.720  0.00  0.00    +0.000 C 
ATOM     26  C   UNL     1       1.413  14.310  19.882  0.00  0.00    +0.000 C 
ATOM     27  C   UNL     1       0.447  14.341  18.637  0.00  0.00    +0.000 C 
BRANCH  20  29
ATOM     28  C   UNL     1       0.130  16.411  23.422  0.00  0.00    +0.000 C 
ATOM     29  C   UNL     1      -0.683  16.681  22.150  0.00  0.00    +0.000 C 
ENDBRANCH  20  29
ENDBRANCH  19  27
BRANCH  19  30
ATOM     30  O   UNL     1      -1.023  12.797  17.338  0.00  0.00    +0.000 OA
ATOM     31  H   UNL     1      -1.338  11.856  17.375  0.00  0.00    +0.000 HD
ENDBRANCH  19  30
ENDBRANCH   1  19
TORSDOF 6
ENDMDL
MODEL 5
REMARK VINA RESULT:      -6.6      3.532      5.339
REMARK  Name = 
REMARK  8 active torsions:
REMARK  status: ('A' for Active; 'I' for Inactive)
REMARK    1  A    between atoms: C_1  and  C_2
REMARK    2  A    between atoms: C_2  and  C_3
REMARK    3  A    between atoms: C_10  and  C_11
REMARK    4  A    between atoms: C_11  and  O_12
REMARK    5  A    between atoms: C_11  and  C_13
REMARK    6  A    between atoms: C_15  and  C_16
REMARK    7  A    between atoms: C_26  and  O_27
REMARK    8  A    between atoms: O_27  and  C_28
REMARK                            x       y       z     vdW  Elec       q    Type
REMARK                         _______ _______ _______ _____ _____    ______ ____
ROOT
ATOM      1  C   UNL     1      -0.347  12.290  19.615  0.00  0.00    +0.000 A 
ATOM      2  C   UNL     1       0.491  11.243  19.194  0.00  0.00    +0.000 A 
ATOM      3  C   UNL     1       0.650  10.075  19.945  0.00  0.00    +0.000 A 
ATOM      4  N   UNL     1       0.019   9.973  21.140  0.00  0.00    +0.000 NA
ATOM      5  C   UNL     1      -0.733  10.980  21.655  0.00  0.00    +0.000 A 
ATOM      6  C   UNL     1      -1.274  10.825  22.936  0.00  0.00    +0.000 A 
ATOM      7  C   UNL     1      -2.025  11.846  23.515  0.00  0.00    +0.000 A 
ATOM      8  C   UNL     1      -2.265  13.034  22.804  0.00  0.00    +0.000 A 
ATOM      9  C   UNL     1      -1.750  13.179  21.508  0.00  0.00    +0.000 A 
ATOM     10  C   UNL     1      -0.955  12.174  20.908  0.00  0.00    +0.000 A 
ENDROOT
BRANCH   3  11
ATOM     11  C   UNL     1       1.447   8.932  19.417  0.00  0.00    +0.000 A 
ATOM     12  C   UNL     1       1.971   8.979  18.114  0.00  0.00    +0.000 A 
ATOM     13  C   UNL     1       2.770   7.936  17.640  0.00  0.00    +0.000 A 
ATOM     14  C   UNL     1       3.020   6.839  18.458  0.00  0.00    +0.000 A 
ATOM     15  N   UNL     1       2.494   6.789  19.711  0.00  0.00    +0.000 NA
ATOM     16  C   UNL     1       1.729   7.799  20.203  0.00  0.00    +0.000 A 
ENDBRANCH   3  11
BRANCH   8  17
ATOM     17  O   UNL     1      -2.968  14.071  23.333  0.00  0.00    +0.000 OA
ATOM     18  C   UNL     1      -2.451  15.100  24.094  0.00  0.00    +0.000 C 
ENDBRANCH   8  17
BRANCH   1  19
ATOM     19  C   UNL     1      -0.506  13.462  18.619  0.00  0.00    +0.000 C 
BRANCH  19  27
ATOM     20  C   UNL     1       0.255  15.929  20.927  0.00  0.00    +0.000 C 
ATOM     21  C   UNL     1      -0.461  16.320  19.603  0.00  0.00    +0.000 C 
ATOM     22  N   UNL     1       0.328  15.862  18.427  0.00  0.00    +0.000 NA
ATOM     23  C   UNL     1       1.539  16.729  18.348  0.00  0.00    +0.000 C 
ATOM     24  C   UNL     1       2.337  16.701  19.680  0.00  0.00    +0.000 C 
ATOM     25  C   UNL     1       1.739  15.616  20.593  0.00  0.00    +0.000 C 
ATOM     26  C   UNL     1       1.741  14.299  19.779  0.00  0.00    +0.000 C 
ATOM     27  C   UNL     1       0.748  14.431  18.563  0.00  0.00    +0.000 C 
BRANCH  20  29
ATOM     28  C   UNL     1      -0.578  18.262  21.523  0.00  0.00    +0.000 C 
ATOM     29  C   UNL     1       0.041  16.963  22.053  0.00  0.00    +0.000 C 
ENDBRANCH  20  29
ENDBRANCH  19  27
BRANCH  19  30
ATOM     30  O   UNL     1      -0.908  13.012  17.347  0.00  0.00    +0.000 OA
ATOM     31  H   UNL     1      -0.319  12.263  17.065  0.00  0.00    +0.000 HD
ENDBRANCH  19  30
ENDBRANCH   1  19
TORSDOF 6
ENDMDL
MODEL 6
REMARK VINA RESULT:      -6.6      4.441      8.814
REMARK  Name = 
REMARK  8 active torsions:
REMARK  status: ('A' for Active; 'I' for Inactive)
REMARK    1  A    between atoms: C_1  and  C_2
REMARK    2  A    between atoms: C_2  and  C_3
REMARK    3  A    between atoms: C_10  and  C_11
REMARK    4  A    between atoms: C_11  and  O_12
REMARK    5  A    between atoms: C_11  and  C_13
REMARK    6  A    between atoms: C_15  and  C_16
REMARK    7  A    between atoms: C_26  and  O_27
REMARK    8  A    between atoms: O_27  and  C_28
REMARK                            x       y       z     vdW  Elec       q    Type
REMARK                         _______ _______ _______ _____ _____    ______ ____
ROOT
ATOM      1  C   UNL     1      -2.484  12.231  19.880  0.00  0.00    +0.000 A 
ATOM      2  C   UNL     1      -3.298  12.759  20.898  0.00  0.00    +0.000 A 
ATOM      3  C   UNL     1      -4.693  12.752  20.807  0.00  0.00    +0.000 A 
ATOM      4  N   UNL     1      -5.275  12.272  19.681  0.00  0.00    +0.000 NA
ATOM      5  C   UNL     1      -4.552  11.831  18.620  0.00  0.00    +0.000 A 
ATOM      6  C   UNL     1      -5.233  11.436  17.463  0.00  0.00    +0.000 A 
ATOM      7  C   UNL     1      -4.529  11.008  16.339  0.00  0.00    +0.000 A 
ATOM      8  C   UNL     1      -3.126  10.946  16.368  0.00  0.00    +0.000 A 
ATOM      9  C   UNL     1      -2.443  11.310  17.537  0.00  0.00    +0.000 A 
ATOM     10  C   UNL     1      -3.129  11.782  18.681  0.00  0.00    +0.000 A 
ENDROOT
BRANCH   3  11
ATOM     11  C   UNL     1      -5.532  13.205  21.952  0.00  0.00    +0.000 A 
ATOM     12  C   UNL     1      -6.770  12.591  22.207  0.00  0.00    +0.000 A 
ATOM     13  C   UNL     1      -7.529  12.972  23.316  0.00  0.00    +0.000 A 
ATOM     14  C   UNL     1      -7.062  13.984  24.149  0.00  0.00    +0.000 A 
ATOM     15  N   UNL     1      -5.873  14.589  23.888  0.00  0.00    +0.000 NA
ATOM     16  C   UNL     1      -5.107  14.223  22.826  0.00  0.00    +0.000 A 
ENDBRANCH   3  11
BRANCH   8  17
ATOM     17  O   UNL     1      -2.391  10.560  15.291  0.00  0.00    +0.000 OA
ATOM     18  C   UNL     1      -2.884  10.005  14.127  0.00  0.00    +0.000 C 
ENDBRANCH   8  17
BRANCH   1  19
ATOM     19  C   UNL     1      -0.967  12.208  20.181  0.00  0.00    +0.000 C 
BRANCH  19  27
ATOM     20  C   UNL     1       1.860  13.860  19.057  0.00  0.00    +0.000 C 
ATOM     21  C   UNL     1       1.955  12.968  20.328  0.00  0.00    +0.000 C 
ATOM     22  N   UNL     1       0.958  13.402  21.346  0.00  0.00    +0.000 NA
ATOM     23  C   UNL     1       1.431  14.707  21.892  0.00  0.00    +0.000 C 
ATOM     24  C   UNL     1       1.652  15.744  20.758  0.00  0.00    +0.000 C 
ATOM     25  C   UNL     1       1.106  15.162  19.442  0.00  0.00    +0.000 C 
ATOM     26  C   UNL     1      -0.365  14.758  19.709  0.00  0.00    +0.000 C 
ATOM     27  C   UNL     1      -0.404  13.576  20.750  0.00  0.00    +0.000 C 
BRANCH  20  29
ATOM     28  C   UNL     1       3.263  15.380  17.569  0.00  0.00    +0.000 C 
ATOM     29  C   UNL     1       3.227  14.073  18.371  0.00  0.00    +0.000 C 
ENDBRANCH  20  29
ENDBRANCH  19  27
BRANCH  19  30
ATOM     30  O   UNL     1      -0.612  11.098  20.972  0.00  0.00    +0.000 OA
ATOM     31  H   UNL     1      -1.325  10.935  21.644  0.00  0.00    +0.000 HD
ENDBRANCH  19  30
ENDBRANCH   1  19
TORSDOF 6
ENDMDL
MODEL 7
REMARK VINA RESULT:      -6.6      3.080      4.966
REMARK  Name = 
REMARK  8 active torsions:
REMARK  status: ('A' for Active; 'I' for Inactive)
REMARK    1  A    between atoms: C_1  and  C_2
REMARK    2  A    between atoms: C_2  and  C_3
REMARK    3  A    between atoms: C_10  and  C_11
REMARK    4  A    between atoms: C_11  and  O_12
REMARK    5  A    between atoms: C_11  and  C_13
REMARK    6  A    between atoms: C_15  and  C_16
REMARK    7  A    between atoms: C_26  and  O_27
REMARK    8  A    between atoms: O_27  and  C_28
REMARK                            x       y       z     vdW  Elec       q    Type
REMARK                         _______ _______ _______ _____ _____    ______ ____
ROOT
ATOM      1  C   UNL     1       0.157  11.378  19.554  0.00  0.00    +0.000 A 
ATOM      2  C   UNL     1       1.019  10.396  19.033  0.00  0.00    +0.000 A 
ATOM      3  C   UNL     1       1.258   9.192  19.701  0.00  0.00    +0.000 A 
ATOM      4  N   UNL     1       0.685   8.988  20.912  0.00  0.00    +0.000 NA
ATOM      5  C   UNL     1      -0.084   9.927  21.521  0.00  0.00    +0.000 A 
ATOM      6  C   UNL     1      -0.562   9.670  22.810  0.00  0.00    +0.000 A 
ATOM      7  C   UNL     1      -1.327  10.619  23.484  0.00  0.00    +0.000 A 
ATOM      8  C   UNL     1      -1.647  11.837  22.862  0.00  0.00    +0.000 A 
ATOM      9  C   UNL     1      -1.197  12.084  21.557  0.00  0.00    +0.000 A 
ATOM     10  C   UNL     1      -0.388  11.154  20.862  0.00  0.00    +0.000 A 
ENDROOT
BRANCH   3  11
ATOM     11  C   UNL     1       2.078   8.121  19.068  0.00  0.00    +0.000 A 
ATOM     12  C   UNL     1       2.682   8.338  17.819  0.00  0.00    +0.000 A 
ATOM     13  C   UNL     1       3.501   7.357  17.253  0.00  0.00    +0.000 A 
ATOM     14  C   UNL     1       3.692   6.154  17.925  0.00  0.00    +0.000 A 
ATOM     15  N   UNL     1       3.089   5.940  19.126  0.00  0.00    +0.000 NA
ATOM     16  C   UNL     1       2.303   6.885  19.705  0.00  0.00    +0.000 A 
ENDBRANCH   3  11
BRANCH   8  17
ATOM     17  O   UNL     1      -2.369  12.807  23.484  0.00  0.00    +0.000 OA
ATOM     18  C   UNL     1      -3.665  12.687  23.943  0.00  0.00    +0.000 C 
ENDBRANCH   8  17
BRANCH   1  19
ATOM     19  C   UNL     1      -0.094  12.601  18.643  0.00  0.00    +0.000 C 
BRANCH  19  27
ATOM     20  C   UNL     1       1.658  14.566  20.892  0.00  0.00    +0.000 C 
ATOM     21  C   UNL     1       0.647  15.239  19.921  0.00  0.00    +0.000 C 
ATOM     22  N   UNL     1       0.980  14.908  18.507  0.00  0.00    +0.000 NA
ATOM     23  C   UNL     1       2.225  15.654  18.165  0.00  0.00    +0.000 C 
ATOM     24  C   UNL     1       3.368  15.330  19.165  0.00  0.00    +0.000 C 
ATOM     25  C   UNL     1       2.917  14.171  20.072  0.00  0.00    +0.000 C 
ATOM     26  C   UNL     1       2.490  13.013  19.137  0.00  0.00    +0.000 C 
ATOM     27  C   UNL     1       1.212  13.440  18.321  0.00  0.00    +0.000 C 
BRANCH  20  29
ATOM     28  C   UNL     1       3.409  15.339  22.574  0.00  0.00    +0.000 C 
ATOM     29  C   UNL     1       1.936  15.416  22.151  0.00  0.00    +0.000 C 
ENDBRANCH  20  29
ENDBRANCH  19  27
BRANCH  19  30
ATOM     30  O   UNL     1      -0.816  12.248  17.487  0.00  0.00    +0.000 OA
ATOM     31  H   UNL     1      -1.120  13.074  17.027  0.00  0.00    +0.000 HD
ENDBRANCH  19  30
ENDBRANCH   1  19
TORSDOF 6
ENDMDL
MODEL 8
REMARK VINA RESULT:      -6.5      5.986      7.780
REMARK  Name = 
REMARK  8 active torsions:
REMARK  status: ('A' for Active; 'I' for Inactive)
REMARK    1  A    between atoms: C_1  and  C_2
REMARK    2  A    between atoms: C_2  and  C_3
REMARK    3  A    between atoms: C_10  and  C_11
REMARK    4  A    between atoms: C_11  and  O_12
REMARK    5  A    between atoms: C_11  and  C_13
REMARK    6  A    between atoms: C_15  and  C_16
REMARK    7  A    between atoms: C_26  and  O_27
REMARK    8  A    between atoms: O_27  and  C_28
REMARK                            x       y       z     vdW  Elec       q    Type
REMARK                         _______ _______ _______ _____ _____    ______ ____
ROOT
ATOM      1  C   UNL     1       1.803  15.398  19.919  0.00  0.00    +0.000 A 
ATOM      2  C   UNL     1       3.160  15.203  19.604  0.00  0.00    +0.000 A 
ATOM      3  C   UNL     1       3.827  16.007  18.676  0.00  0.00    +0.000 A 
ATOM      4  N   UNL     1       3.132  16.969  18.021  0.00  0.00    +0.000 NA
ATOM      5  C   UNL     1       1.799  17.155  18.204  0.00  0.00    +0.000 A 
ATOM      6  C   UNL     1       1.142  18.109  17.420  0.00  0.00    +0.000 A 
ATOM      7  C   UNL     1      -0.230  18.311  17.552  0.00  0.00    +0.000 A 
ATOM      8  C   UNL     1      -0.963  17.571  18.495  0.00  0.00    +0.000 A 
ATOM      9  C   UNL     1      -0.302  16.636  19.304  0.00  0.00    +0.000 A 
ATOM     10  C   UNL     1       1.084  16.386  19.168  0.00  0.00    +0.000 A 
ENDROOT
BRANCH   3  11
ATOM     11  C   UNL     1       5.293  15.857  18.453  0.00  0.00    +0.000 A 
ATOM     12  C   UNL     1       5.807  14.670  17.906  0.00  0.00    +0.000 A 
ATOM     13  C   UNL     1       7.172  14.552  17.639  0.00  0.00    +0.000 A 
ATOM     14  C   UNL     1       8.023  15.609  17.944  0.00  0.00    +0.000 A 
ATOM     15  N   UNL     1       7.525  16.750  18.492  0.00  0.00    +0.000 NA
ATOM     16  C   UNL     1       6.197  16.896  18.744  0.00  0.00    +0.000 A 
ENDBRANCH   3  11
BRANCH   8  17
ATOM     17  O   UNL     1      -2.307  17.710  18.646  0.00  0.00    +0.000 OA
ATOM     18  C   UNL     1      -2.942  18.556  19.534  0.00  0.00    +0.000 C 
ENDBRANCH   8  17
BRANCH   1  19
ATOM     19  C   UNL     1       1.242  14.503  21.047  0.00  0.00    +0.000 C 
BRANCH  19  27
ATOM     20  C   UNL     1      -1.750  12.908  20.347  0.00  0.00    +0.000 C 
ATOM     21  C   UNL     1      -1.116  12.749  21.758  0.00  0.00    +0.000 C 
ATOM     22  N   UNL     1       0.274  12.224  21.650  0.00  0.00    +0.000 NA
ATOM     23  C   UNL     1       0.171  10.796  21.235  0.00  0.00    +0.000 C 
ATOM     24  C   UNL     1      -0.652  10.648  19.927  0.00  0.00    +0.000 C 
ATOM     25  C   UNL     1      -0.922  12.050  19.351  0.00  0.00    +0.000 C 
ATOM     26  C   UNL     1       0.455  12.745  19.208  0.00  0.00    +0.000 C 
ATOM     27  C   UNL     1       1.076  12.980  20.637  0.00  0.00    +0.000 C 
BRANCH  20  29
ATOM     28  C   UNL     1      -4.052  13.755  21.036  0.00  0.00    +0.000 C 
ATOM     29  C   UNL     1      -3.270  12.635  20.338  0.00  0.00    +0.000 C 
ENDBRANCH  20  29
ENDBRANCH  19  27
BRANCH  19  30
ATOM     30  O   UNL     1       1.958  14.671  22.248  0.00  0.00    +0.000 OA
ATOM     31  H   UNL     1       1.362  14.465  23.015  0.00  0.00    +0.000 HD
ENDBRANCH  19  30
ENDBRANCH   1  19
TORSDOF 6
ENDMDL
MODEL 9
REMARK VINA RESULT:      -6.5      3.498      5.073
REMARK  Name = 
REMARK  8 active torsions:
REMARK  status: ('A' for Active; 'I' for Inactive)
REMARK    1  A    between atoms: C_1  and  C_2
REMARK    2  A    between atoms: C_2  and  C_3
REMARK    3  A    between atoms: C_10  and  C_11
REMARK    4  A    between atoms: C_11  and  O_12
REMARK    5  A    between atoms: C_11  and  C_13
REMARK    6  A    between atoms: C_15  and  C_16
REMARK    7  A    between atoms: C_26  and  O_27
REMARK    8  A    between atoms: O_27  and  C_28
REMARK                            x       y       z     vdW  Elec       q    Type
REMARK                         _______ _______ _______ _____ _____    ______ ____
ROOT
ATOM      1  C   UNL     1       0.737  11.313  19.701  0.00  0.00    +0.000 A 
ATOM      2  C   UNL     1       1.506  10.285  19.128  0.00  0.00    +0.000 A 
ATOM      3  C   UNL     1       1.531   8.994  19.664  0.00  0.00    +0.000 A 
ATOM      4  N   UNL     1       0.836   8.740  20.800  0.00  0.00    +0.000 NA
ATOM      5  C   UNL     1       0.146   9.705  21.460  0.00  0.00    +0.000 A 
ATOM      6  C   UNL     1      -0.469   9.378  22.674  0.00  0.00    +0.000 A 
ATOM      7  C   UNL     1      -1.161  10.344  23.400  0.00  0.00    +0.000 A 
ATOM      8  C   UNL     1      -1.268  11.655  22.906  0.00  0.00    +0.000 A 
ATOM      9  C   UNL     1      -0.680  11.978  21.675  0.00  0.00    +0.000 A 
ATOM     10  C   UNL     1       0.058  11.026  20.932  0.00  0.00    +0.000 A 
ENDROOT
BRANCH   3  11
ATOM     11  C   UNL     1       2.257   7.895  18.967  0.00  0.00    +0.000 A 
ATOM     12  C   UNL     1       2.924   8.145  17.756  0.00  0.00    +0.000 A 
ATOM     13  C   UNL     1       3.656   7.131  17.134  0.00  0.00    +0.000 A 
ATOM     14  C   UNL     1       3.697   5.865  17.709  0.00  0.00    +0.000 A 
ATOM     15  N   UNL     1       3.034   5.622  18.871  0.00  0.00    +0.000 NA
ATOM     16  C   UNL     1       2.330   6.596  19.505  0.00  0.00    +0.000 A 
ENDBRANCH   3  11
BRANCH   8  17
ATOM     17  O   UNL     1      -1.908  12.642  23.587  0.00  0.00    +0.000 OA
ATOM     18  C   UNL     1      -1.795  13.997  23.353  0.00  0.00    +0.000 C 
ENDBRANCH   8  17
BRANCH   1  19
ATOM     19  C   UNL     1       0.724  12.650  18.927  0.00  0.00    +0.000 C 
BRANCH  19  27
ATOM     20  C   UNL     1       1.449  15.655  20.486  0.00  0.00    +0.000 C 
ATOM     21  C   UNL     1       1.112  15.648  18.968  0.00  0.00    +0.000 C 
ATOM     22  N   UNL     1       2.025  14.729  18.234  0.00  0.00    +0.000 NA
ATOM     23  C   UNL     1       3.370  15.373  18.212  0.00  0.00    +0.000 C 
ATOM     24  C   UNL     1       3.854  15.714  19.647  0.00  0.00    +0.000 C 
ATOM     25  C   UNL     1       2.882  15.082  20.660  0.00  0.00    +0.000 C 
ATOM     26  C   UNL     1       2.799  13.574  20.316  0.00  0.00    +0.000 C 
ATOM     27  C   UNL     1       2.124  13.393  18.904  0.00  0.00    +0.000 C 
BRANCH  20  29
ATOM     28  C   UNL     1       1.011  18.136  20.103  0.00  0.00    +0.000 C 
ATOM     29  C   UNL     1       1.210  17.030  21.147  0.00  0.00    +0.000 C 
ENDBRANCH  20  29
ENDBRANCH  19  27
BRANCH  19  30
ATOM     30  O   UNL     1       0.162  12.502  17.644  0.00  0.00    +0.000 OA
ATOM     31  H   UNL     1      -0.750  12.895  17.640  0.00  0.00    +0.000 HD
ENDBRANCH  19  30
ENDBRANCH   1  19
TORSDOF 6
ENDMDL
