MODEL 1
REMARK VINA RESULT:      -9.9      0.000      0.000
REMARK  Name = 
REMARK  6 active torsions:
REMARK  status: ('A' for Active; 'I' for Inactive)
REMARK    1  A    between atoms: C_2  and  C_5
REMARK    2  A    between atoms: C_9  and  C_10
REMARK    3  A    between atoms: C_14  and  C_15
REMARK    4  A    between atoms: N_17  and  C_18
REMARK    5  A    between atoms: C_18  and  C_19
REMARK    6  A    between atoms: C_19  and  C_20
REMARK                            x       y       z     vdW  Elec       q    Type
REMARK                         _______ _______ _______ _____ _____    ______ ____
ROOT
ATOM      1  C   UNL     1       2.177   7.314  19.089  0.00  0.00    +0.000 A 
ATOM      2  C   UNL     1       1.995   8.386  18.240  0.00  0.00    +0.000 A 
ATOM      3  N   UNL     1       1.459   9.378  19.015  0.00  0.00    +0.000 N 
ATOM      4  C   UNL     1       1.308   8.869  20.274  0.00  0.00    +0.000 A 
ATOM      5  N   UNL     1       1.745   7.633  20.358  0.00  0.00    +0.000 NA
ENDROOT
BRANCH   1  10
ATOM      6  C   UNL     1       4.590   4.679  17.964  0.00  0.00    +0.000 A 
ATOM      7  C   UNL     1       3.745   3.574  18.035  0.00  0.00    +0.000 A 
ATOM      8  C   UNL     1       2.429   3.760  18.425  0.00  0.00    +0.000 A 
ATOM      9  N   UNL     1       1.913   4.958  18.760  0.00  0.00    +0.000 NA
ATOM     10  C   UNL     1       2.748   6.026  18.722  0.00  0.00    +0.000 A 
ATOM     11  C   UNL     1       4.083   5.930  18.338  0.00  0.00    +0.000 A 
BRANCH   6  16
ATOM     12  C   UNL     1       6.476   4.732  16.260  0.00  0.00    +0.000 A 
ATOM     13  N   UNL     1       7.818   4.544  16.416  0.00  0.00    +0.000 N 
ATOM     14  N   UNL     1       8.135   4.291  17.691  0.00  0.00    +0.000 NA
ATOM     15  N   UNL     1       7.008   4.312  18.391  0.00  0.00    +0.000 NA
ATOM     16  C   UNL     1       5.969   4.566  17.531  0.00  0.00    +0.000 A 
ATOM     17  H   UNL     1       8.562   4.586  15.725  0.00  0.00    +0.000 HD
BRANCH  12  19
ATOM     18  F   UNL     1       5.016   4.142  14.549  0.00  0.00    +0.000 F 
ATOM     19  C   UNL     1       5.918   5.072  14.957  0.00  0.00    +0.000 C 
ATOM     20  F   UNL     1       6.866   5.148  13.994  0.00  0.00    +0.000 F 
ATOM     21  F   UNL     1       5.262   6.258  14.972  0.00  0.00    +0.000 F 
ENDBRANCH  12  19
ENDBRANCH   6  16
ENDBRANCH   1  10
BRANCH   3  22
ATOM     22  C   UNL     1       1.112  10.712  18.558  0.00  0.00    +0.000 C 
BRANCH  22  23
ATOM     23  C   UNL     1      -0.101  11.303  19.274  0.00  0.00    +0.000 C 
BRANCH  23  24
ATOM     24  C   UNL     1      -1.420  10.994  18.600  0.00  0.00    +0.000 A 
ATOM     25  C   UNL     1      -1.397  10.133  17.489  0.00  0.00    +0.000 A 
ATOM     26  C   UNL     1      -2.551   9.897  16.751  0.00  0.00    +0.000 A 
ATOM     27  C   UNL     1      -3.740  10.528  17.104  0.00  0.00    +0.000 A 
ATOM     28  C   UNL     1      -3.803  11.377  18.219  0.00  0.00    +0.000 A 
ATOM     29  C   UNL     1      -5.008  12.021  18.543  0.00  0.00    +0.000 A 
ATOM     30  C   UNL     1      -5.100  12.858  19.654  0.00  0.00    +0.000 A 
ATOM     31  C   UNL     1      -3.991  13.045  20.466  0.00  0.00    +0.000 A 
ATOM     32  C   UNL     1      -2.781  12.422  20.149  0.00  0.00    +0.000 A 
ATOM     33  C   UNL     1      -2.646  11.596  19.007  0.00  0.00    +0.000 A 
ENDBRANCH  23  24
ENDBRANCH  22  23
ENDBRANCH   3  22
TORSDOF 6
ENDMDL
MODEL 2
REMARK VINA RESULT:      -9.8      0.839      2.172
REMARK  Name = 
REMARK  6 active torsions:
REMARK  status: ('A' for Active; 'I' for Inactive)
REMARK    1  A    between atoms: C_2  and  C_5
REMARK    2  A    between atoms: C_9  and  C_10
REMARK    3  A    between atoms: C_14  and  C_15
REMARK    4  A    between atoms: N_17  and  C_18
REMARK    5  A    between atoms: C_18  and  C_19
REMARK    6  A    between atoms: C_19  and  C_20
REMARK                            x       y       z     vdW  Elec       q    Type
REMARK                         _______ _______ _______ _____ _____    ______ ____
ROOT
ATOM      1  C   UNL     1       2.152   7.840  18.399  0.00  0.00    +0.000 A 
ATOM      2  C   UNL     1       1.521   8.278  19.546  0.00  0.00    +0.000 A 
ATOM      3  N   UNL     1       1.188   9.583  19.302  0.00  0.00    +0.000 N 
ATOM      4  C   UNL     1       1.649   9.891  18.053  0.00  0.00    +0.000 A 
ATOM      5  N   UNL     1       2.221   8.858  17.475  0.00  0.00    +0.000 NA
ENDROOT
BRANCH   1  10
ATOM      6  C   UNL     1       4.493   4.984  17.772  0.00  0.00    +0.000 A 
ATOM      7  C   UNL     1       3.561   3.949  17.743  0.00  0.00    +0.000 A 
ATOM      8  C   UNL     1       2.220   4.250  17.908  0.00  0.00    +0.000 A 
ATOM      9  N   UNL     1       1.755   5.497  18.113  0.00  0.00    +0.000 NA
ATOM     10  C   UNL     1       2.669   6.497  18.174  0.00  0.00    +0.000 A 
ATOM     11  C   UNL     1       4.035   6.285  18.015  0.00  0.00    +0.000 A 
BRANCH   6  16
ATOM     12  C   UNL     1       6.606   4.719  16.382  0.00  0.00    +0.000 A 
ATOM     13  N   UNL     1       7.895   4.490  16.764  0.00  0.00    +0.000 N 
ATOM     14  N   UNL     1       8.006   4.395  18.094  0.00  0.00    +0.000 NA
ATOM     15  N   UNL     1       6.794   4.563  18.606  0.00  0.00    +0.000 NA
ATOM     16  C   UNL     1       5.910   4.748  17.572  0.00  0.00    +0.000 A 
ATOM     17  H   UNL     1       8.733   4.404  16.195  0.00  0.00    +0.000 HD
BRANCH  12  19
ATOM     18  F   UNL     1       7.382   5.078  14.220  0.00  0.00    +0.000 F 
ATOM     19  C   UNL     1       6.267   4.908  14.978  0.00  0.00    +0.000 C 
ATOM     20  F   UNL     1       5.487   5.995  14.777  0.00  0.00    +0.000 F 
ATOM     21  F   UNL     1       5.613   3.840  14.458  0.00  0.00    +0.000 F 
ENDBRANCH  12  19
ENDBRANCH   6  16
ENDBRANCH   1  10
BRANCH   3  22
ATOM     22  C   UNL     1       0.485  10.460  20.221  0.00  0.00    +0.000 C 
BRANCH  22  23
ATOM     23  C   UNL     1       0.103  11.804  19.605  0.00  0.00    +0.000 C 
BRANCH  23  24
ATOM     24  C   UNL     1      -1.382  12.092  19.639  0.00  0.00    +0.000 A 
ATOM     25  C   UNL     1      -1.909  12.657  20.813  0.00  0.00    +0.000 A 
ATOM     26  C   UNL     1      -3.279  12.841  20.960  0.00  0.00    +0.000 A 
ATOM     27  C   UNL     1      -4.142  12.451  19.941  0.00  0.00    +0.000 A 
ATOM     28  C   UNL     1      -3.649  11.903  18.746  0.00  0.00    +0.000 A 
ATOM     29  C   UNL     1      -4.541  11.496  17.740  0.00  0.00    +0.000 A 
ATOM     30  C   UNL     1      -4.075  10.962  16.541  0.00  0.00    +0.000 A 
ATOM     31  C   UNL     1      -2.709  10.848  16.324  0.00  0.00    +0.000 A 
ATOM     32  C   UNL     1      -1.810  11.236  17.320  0.00  0.00    +0.000 A 
ATOM     33  C   UNL     1      -2.252  11.747  18.564  0.00  0.00    +0.000 A 
ENDBRANCH  23  24
ENDBRANCH  22  23
ENDBRANCH   3  22
TORSDOF 6
ENDMDL
MODEL 3
REMARK VINA RESULT:      -9.6      0.685      1.746
REMARK  Name = 
REMARK  6 active torsions:
REMARK  status: ('A' for Active; 'I' for Inactive)
REMARK    1  A    between atoms: C_2  and  C_5
REMARK    2  A    between atoms: C_9  and  C_10
REMARK    3  A    between atoms: C_14  and  C_15
REMARK    4  A    between atoms: N_17  and  C_18
REMARK    5  A    between atoms: C_18  and  C_19
REMARK    6  A    between atoms: C_19  and  C_20
REMARK                            x       y       z     vdW  Elec       q    Type
REMARK                         _______ _______ _______ _____ _____    ______ ____
ROOT
ATOM      1  C   UNL     1       2.064   7.074  19.408  0.00  0.00    +0.000 A 
ATOM      2  C   UNL     1       1.847   8.278  18.768  0.00  0.00    +0.000 A 
ATOM      3  N   UNL     1       1.333   9.111  19.724  0.00  0.00    +0.000 N 
ATOM      4  C   UNL     1       1.228   8.387  20.878  0.00  0.00    +0.000 A 
ATOM      5  N   UNL     1       1.675   7.160  20.727  0.00  0.00    +0.000 NA
ENDROOT
BRANCH   1  10
ATOM      6  C   UNL     1       4.490   4.657  17.891  0.00  0.00    +0.000 A 
ATOM      7  C   UNL     1       3.613   3.602  17.650  0.00  0.00    +0.000 A 
ATOM      8  C   UNL     1       2.277   3.752  17.976  0.00  0.00    +0.000 A 
ATOM      9  N   UNL     1       1.767   4.866  18.536  0.00  0.00    +0.000 NA
ATOM     10  C   UNL     1       2.629   5.878  18.800  0.00  0.00    +0.000 A 
ATOM     11  C   UNL     1       3.987   5.813  18.502  0.00  0.00    +0.000 A 
BRANCH   6  16
ATOM     12  C   UNL     1       6.473   4.749  16.303  0.00  0.00    +0.000 A 
ATOM     13  N   UNL     1       7.808   4.609  16.543  0.00  0.00    +0.000 N 
ATOM     14  N   UNL     1       8.056   4.385  17.838  0.00  0.00    +0.000 NA
ATOM     15  N   UNL     1       6.889   4.377  18.469  0.00  0.00    +0.000 NA
ATOM     16  C   UNL     1       5.896   4.584  17.544  0.00  0.00    +0.000 A 
ATOM     17  H   UNL     1       8.591   4.666  15.897  0.00  0.00    +0.000 HD
BRANCH  12  19
ATOM     18  F   UNL     1       5.109   4.107  14.533  0.00  0.00    +0.000 F 
ATOM     19  C   UNL     1       5.984   5.052  14.964  0.00  0.00    +0.000 C 
ATOM     20  F   UNL     1       6.982   5.107  14.052  0.00  0.00    +0.000 F 
ATOM     21  F   UNL     1       5.324   6.234  14.913  0.00  0.00    +0.000 F 
ENDBRANCH  12  19
ENDBRANCH   6  16
ENDBRANCH   1  10
BRANCH   3  22
ATOM     22  C   UNL     1       0.963  10.500  19.520  0.00  0.00    +0.000 C 
BRANCH  22  23
ATOM     23  C   UNL     1      -0.181  10.684  18.524  0.00  0.00    +0.000 C 
BRANCH  23  24
ATOM     24  C   UNL     1      -1.376  11.417  19.093  0.00  0.00    +0.000 A 
ATOM     25  C   UNL     1      -1.250  11.965  20.381  0.00  0.00    +0.000 A 
ATOM     26  C   UNL     1      -2.341  12.550  21.013  0.00  0.00    +0.000 A 
ATOM     27  C   UNL     1      -3.575  12.584  20.372  0.00  0.00    +0.000 A 
ATOM     28  C   UNL     1      -3.732  12.066  19.078  0.00  0.00    +0.000 A 
ATOM     29  C   UNL     1      -4.992  12.091  18.459  0.00  0.00    +0.000 A 
ATOM     30  C   UNL     1      -5.170  11.595  17.169  0.00  0.00    +0.000 A 
ATOM     31  C   UNL     1      -4.082  11.086  16.474  0.00  0.00    +0.000 A 
ATOM     32  C   UNL     1      -2.825  11.041  17.080  0.00  0.00    +0.000 A 
ATOM     33  C   UNL     1      -2.620  11.503  18.403  0.00  0.00    +0.000 A 
ENDBRANCH  23  24
ENDBRANCH  22  23
ENDBRANCH   3  22
TORSDOF 6
ENDMDL
MODEL 4
REMARK VINA RESULT:      -9.6      0.696      1.048
REMARK  Name = 
REMARK  6 active torsions:
REMARK  status: ('A' for Active; 'I' for Inactive)
REMARK    1  A    between atoms: C_2  and  C_5
REMARK    2  A    between atoms: C_9  and  C_10
REMARK    3  A    between atoms: C_14  and  C_15
REMARK    4  A    between atoms: N_17  and  C_18
REMARK    5  A    between atoms: C_18  and  C_19
REMARK    6  A    between atoms: C_19  and  C_20
REMARK                            x       y       z     vdW  Elec       q    Type
REMARK                         _______ _______ _______ _____ _____    ______ ____
ROOT
ATOM      1  C   UNL     1       2.052   6.959  19.473  0.00  0.00    +0.000 A 
ATOM      2  C   UNL     1       1.793   8.219  18.974  0.00  0.00    +0.000 A 
ATOM      3  N   UNL     1       1.293   8.933  20.030  0.00  0.00    +0.000 N 
ATOM      4  C   UNL     1       1.238   8.085  21.100  0.00  0.00    +0.000 A 
ATOM      5  N   UNL     1       1.703   6.892  20.804  0.00  0.00    +0.000 NA
ENDROOT
BRANCH   1  10
ATOM      6  C   UNL     1       4.505   4.692  17.777  0.00  0.00    +0.000 A 
ATOM      7  C   UNL     1       3.611   3.740  17.292  0.00  0.00    +0.000 A 
ATOM      8  C   UNL     1       2.258   3.908  17.528  0.00  0.00    +0.000 A 
ATOM      9  N   UNL     1       1.745   4.942  18.222  0.00  0.00    +0.000 NA
ATOM     10  C   UNL     1       2.621   5.849  18.722  0.00  0.00    +0.000 A 
ATOM     11  C   UNL     1       3.996   5.758  18.529  0.00  0.00    +0.000 A 
BRANCH   6  16
ATOM     12  C   UNL     1       6.597   4.666  16.333  0.00  0.00    +0.000 A 
ATOM     13  N   UNL     1       7.912   4.554  16.679  0.00  0.00    +0.000 N 
ATOM     14  N   UNL     1       8.065   4.438  18.003  0.00  0.00    +0.000 NA
ATOM     15  N   UNL     1       6.856   4.475  18.547  0.00  0.00    +0.000 NA
ATOM     16  C   UNL     1       5.932   4.599  17.539  0.00  0.00    +0.000 A 
ATOM     17  H   UNL     1       8.739   4.562  16.088  0.00  0.00    +0.000 HD
BRANCH  12  19
ATOM     18  F   UNL     1       7.274   5.186  14.171  0.00  0.00    +0.000 F 
ATOM     19  C   UNL     1       6.206   4.855  14.942  0.00  0.00    +0.000 C 
ATOM     20  F   UNL     1       5.293   5.843  14.793  0.00  0.00    +0.000 F 
ATOM     21  F   UNL     1       5.677   3.731  14.399  0.00  0.00    +0.000 F 
ENDBRANCH  12  19
ENDBRANCH   6  16
ENDBRANCH   1  10
BRANCH   3  22
ATOM     22  C   UNL     1       0.891  10.327  19.990  0.00  0.00    +0.000 C 
BRANCH  22  23
ATOM     23  C   UNL     1       0.458  10.794  18.601  0.00  0.00    +0.000 C 
BRANCH  23  24
ATOM     24  C   UNL     1      -1.033  10.704  18.361  0.00  0.00    +0.000 A 
ATOM     25  C   UNL     1      -1.477   9.855  17.333  0.00  0.00    +0.000 A 
ATOM     26  C   UNL     1      -2.820   9.811  16.980  0.00  0.00    +0.000 A 
ATOM     27  C   UNL     1      -3.736  10.624  17.640  0.00  0.00    +0.000 A 
ATOM     28  C   UNL     1      -3.331  11.468  18.686  0.00  0.00    +0.000 A 
ATOM     29  C   UNL     1      -4.270  12.295  19.324  0.00  0.00    +0.000 A 
ATOM     30  C   UNL     1      -3.895  13.131  20.373  0.00  0.00    +0.000 A 
ATOM     31  C   UNL     1      -2.578  13.134  20.811  0.00  0.00    +0.000 A 
ATOM     32  C   UNL     1      -1.630  12.327  20.179  0.00  0.00    +0.000 A 
ATOM     33  C   UNL     1      -1.972  11.494  19.086  0.00  0.00    +0.000 A 
ENDBRANCH  23  24
ENDBRANCH  22  23
ENDBRANCH   3  22
TORSDOF 6
ENDMDL
MODEL 5
REMARK VINA RESULT:      -9.6      1.032      1.108
REMARK  Name = 
REMARK  6 active torsions:
REMARK  status: ('A' for Active; 'I' for Inactive)
REMARK    1  A    between atoms: C_2  and  C_5
REMARK    2  A    between atoms: C_9  and  C_10
REMARK    3  A    between atoms: C_14  and  C_15
REMARK    4  A    between atoms: N_17  and  C_18
REMARK    5  A    between atoms: C_18  and  C_19
REMARK    6  A    between atoms: C_19  and  C_20
REMARK                            x       y       z     vdW  Elec       q    Type
REMARK                         _______ _______ _______ _____ _____    ______ ____
ROOT
ATOM      1  C   UNL     1       1.869   7.513  20.022  0.00  0.00    +0.000 A 
ATOM      2  C   UNL     1       1.705   8.442  19.015  0.00  0.00    +0.000 A 
ATOM      3  N   UNL     1       1.097   9.516  19.606  0.00  0.00    +0.000 N 
ATOM      4  C   UNL     1       0.889   9.192  20.917  0.00  0.00    +0.000 A 
ATOM      5  N   UNL     1       1.357   7.998  21.205  0.00  0.00    +0.000 NA
ENDROOT
BRANCH   1  10
ATOM      6  C   UNL     1       4.344   4.823  19.205  0.00  0.00    +0.000 A 
ATOM      7  C   UNL     1       3.606   3.721  19.632  0.00  0.00    +0.000 A 
ATOM      8  C   UNL     1       2.334   3.921  20.140  0.00  0.00    +0.000 A 
ATOM      9  N   UNL     1       1.764   5.135  20.264  0.00  0.00    +0.000 NA
ATOM     10  C   UNL     1       2.498   6.208  19.879  0.00  0.00    +0.000 A 
ATOM     11  C   UNL     1       3.782   6.097  19.354  0.00  0.00    +0.000 A 
BRANCH   6  16
ATOM     12  C   UNL     1       6.001   4.445  17.314  0.00  0.00    +0.000 A 
ATOM     13  N   UNL     1       7.365   4.439  17.318  0.00  0.00    +0.000 N 
ATOM     14  N   UNL     1       7.855   4.672  18.541  0.00  0.00    +0.000 NA
ATOM     15  N   UNL     1       6.822   4.836  19.358  0.00  0.00    +0.000 NA
ATOM     16  C   UNL     1       5.668   4.686  18.630  0.00  0.00    +0.000 A 
ATOM     17  H   UNL     1       8.014   4.303  16.548  0.00  0.00    +0.000 HD
BRANCH  12  19
ATOM     18  F   UNL     1       4.060   3.667  16.298  0.00  0.00    +0.000 F 
ATOM     19  C   UNL     1       5.259   4.263  16.073  0.00  0.00    +0.000 C 
ATOM     20  F   UNL     1       5.922   3.487  15.185  0.00  0.00    +0.000 F 
ATOM     21  F   UNL     1       4.990   5.441  15.458  0.00  0.00    +0.000 F 
ENDBRANCH  12  19
ENDBRANCH   6  16
ENDBRANCH   1  10
BRANCH   3  22
ATOM     22  C   UNL     1       0.737  10.755  18.939  0.00  0.00    +0.000 C 
BRANCH  22  23
ATOM     23  C   UNL     1      -0.601  11.328  19.403  0.00  0.00    +0.000 C 
BRANCH  23  24
ATOM     24  C   UNL     1      -1.757  11.008  18.480  0.00  0.00    +0.000 A 
ATOM     25  C   UNL     1      -1.491  10.200  17.361  0.00  0.00    +0.000 A 
ATOM     26  C   UNL     1      -2.475   9.961  16.409  0.00  0.00    +0.000 A 
ATOM     27  C   UNL     1      -3.734  10.536  16.556  0.00  0.00    +0.000 A 
ATOM     28  C   UNL     1      -4.039  11.331  17.671  0.00  0.00    +0.000 A 
ATOM     29  C   UNL     1      -5.310  11.919  17.787  0.00  0.00    +0.000 A 
ATOM     30  C   UNL     1      -5.641  12.701  18.892  0.00  0.00    +0.000 A 
ATOM     31  C   UNL     1      -4.713  12.886  19.905  0.00  0.00    +0.000 A 
ATOM     32  C   UNL     1      -3.441  12.318  19.799  0.00  0.00    +0.000 A 
ATOM     33  C   UNL     1      -3.061  11.550  18.672  0.00  0.00    +0.000 A 
ENDBRANCH  23  24
ENDBRANCH  22  23
ENDBRANCH   3  22
TORSDOF 6
ENDMDL
MODEL 6
REMARK VINA RESULT:      -9.6      1.867      2.135
REMARK  Name = 
REMARK  6 active torsions:
REMARK  status: ('A' for Active; 'I' for Inactive)
REMARK    1  A    between atoms: C_2  and  C_5
REMARK    2  A    between atoms: C_9  and  C_10
REMARK    3  A    between atoms: C_14  and  C_15
REMARK    4  A    between atoms: N_17  and  C_18
REMARK    5  A    between atoms: C_18  and  C_19
REMARK    6  A    between atoms: C_19  and  C_20
REMARK                            x       y       z     vdW  Elec       q    Type
REMARK                         _______ _______ _______ _____ _____    ______ ____
ROOT
ATOM      1  C   UNL     1       1.928   7.874  19.200  0.00  0.00    +0.000 A 
ATOM      2  C   UNL     1       1.521   8.910  18.383  0.00  0.00    +0.000 A 
ATOM      3  N   UNL     1       0.941   9.826  19.219  0.00  0.00    +0.000 N 
ATOM      4  C   UNL     1       0.987   9.306  20.482  0.00  0.00    +0.000 A 
ATOM      5  N   UNL     1       1.590   8.138  20.508  0.00  0.00    +0.000 NA
ENDROOT
BRANCH   1  10
ATOM      6  C   UNL     1       4.394   5.586  17.552  0.00  0.00    +0.000 A 
ATOM      7  C   UNL     1       3.866   4.368  17.975  0.00  0.00    +0.000 A 
ATOM      8  C   UNL     1       2.722   4.367  18.754  0.00  0.00    +0.000 A 
ATOM      9  N   UNL     1       2.088   5.487  19.149  0.00  0.00    +0.000 NA
ATOM     10  C   UNL     1       2.623   6.672  18.763  0.00  0.00    +0.000 A 
ATOM     11  C   UNL     1       3.768   6.764  17.977  0.00  0.00    +0.000 A 
BRANCH   6  16
ATOM     12  C   UNL     1       6.890   5.744  17.094  0.00  0.00    +0.000 A 
ATOM     13  N   UNL     1       7.575   5.762  15.915  0.00  0.00    +0.000 N 
ATOM     14  N   UNL     1       6.751   5.685  14.864  0.00  0.00    +0.000 NA
ATOM     15  N   UNL     1       5.513   5.613  15.336  0.00  0.00    +0.000 NA
ATOM     16  C   UNL     1       5.569   5.663  16.706  0.00  0.00    +0.000 A 
ATOM     17  H   UNL     1       8.577   5.808  15.750  0.00  0.00    +0.000 HD
BRANCH  12  19
ATOM     18  F   UNL     1       6.734   5.687  19.413  0.00  0.00    +0.000 F 
ATOM     19  C   UNL     1       7.597   5.765  18.368  0.00  0.00    +0.000 C 
ATOM     20  F   UNL     1       8.317   6.899  18.538  0.00  0.00    +0.000 F 
ATOM     21  F   UNL     1       8.451   4.721  18.500  0.00  0.00    +0.000 F 
ENDBRANCH  12  19
ENDBRANCH   6  16
ENDBRANCH   1  10
BRANCH   3  22
ATOM     22  C   UNL     1       0.377  11.100  18.812  0.00  0.00    +0.000 C 
BRANCH  22  23
ATOM     23  C   UNL     1      -1.046  11.324  19.321  0.00  0.00    +0.000 C 
BRANCH  23  24
ATOM     24  C   UNL     1      -2.114  11.077  18.278  0.00  0.00    +0.000 A 
ATOM     25  C   UNL     1      -1.748  10.357  17.128  0.00  0.00    +0.000 A 
ATOM     26  C   UNL     1      -2.643  10.193  16.078  0.00  0.00    +0.000 A 
ATOM     27  C   UNL     1      -3.913  10.757  16.157  0.00  0.00    +0.000 A 
ATOM     28  C   UNL     1      -4.319  11.464  17.298  0.00  0.00    +0.000 A 
ATOM     29  C   UNL     1      -5.598  12.044  17.347  0.00  0.00    +0.000 A 
ATOM     30  C   UNL     1      -6.029  12.739  18.474  0.00  0.00    +0.000 A 
ATOM     31  C   UNL     1      -5.194  12.845  19.577  0.00  0.00    +0.000 A 
ATOM     32  C   UNL     1      -3.914  12.286  19.540  0.00  0.00    +0.000 A 
ATOM     33  C   UNL     1      -3.433  11.605  18.395  0.00  0.00    +0.000 A 
ENDBRANCH  23  24
ENDBRANCH  22  23
ENDBRANCH   3  22
TORSDOF 6
ENDMDL
MODEL 7
REMARK VINA RESULT:      -9.4      1.175      2.405
REMARK  Name = 
REMARK  6 active torsions:
REMARK  status: ('A' for Active; 'I' for Inactive)
REMARK    1  A    between atoms: C_2  and  C_5
REMARK    2  A    between atoms: C_9  and  C_10
REMARK    3  A    between atoms: C_14  and  C_15
REMARK    4  A    between atoms: N_17  and  C_18
REMARK    5  A    between atoms: C_18  and  C_19
REMARK    6  A    between atoms: C_19  and  C_20
REMARK                            x       y       z     vdW  Elec       q    Type
REMARK                         _______ _______ _______ _____ _____    ______ ____
ROOT
ATOM      1  C   UNL     1       2.129   7.515  18.650  0.00  0.00    +0.000 A 
ATOM      2  C   UNL     1       1.816   7.891  19.940  0.00  0.00    +0.000 A 
ATOM      3  N   UNL     1       1.308   9.158  19.836  0.00  0.00    +0.000 N 
ATOM      4  C   UNL     1       1.361   9.508  18.517  0.00  0.00    +0.000 A 
ATOM      5  N   UNL     1       1.836   8.535  17.772  0.00  0.00    +0.000 NA
ENDROOT
BRANCH   1  10
ATOM      6  C   UNL     1       4.547   4.820  17.691  0.00  0.00    +0.000 A 
ATOM      7  C   UNL     1       3.639   3.784  17.487  0.00  0.00    +0.000 A 
ATOM      8  C   UNL     1       2.287   4.034  17.653  0.00  0.00    +0.000 A 
ATOM      9  N   UNL     1       1.790   5.231  18.021  0.00  0.00    +0.000 NA
ATOM     10  C   UNL     1       2.680   6.228  18.250  0.00  0.00    +0.000 A 
ATOM     11  C   UNL     1       4.055   6.064  18.103  0.00  0.00    +0.000 A 
BRANCH   6  16
ATOM     12  C   UNL     1       6.672   4.590  16.314  0.00  0.00    +0.000 A 
ATOM     13  N   UNL     1       7.970   4.437  16.705  0.00  0.00    +0.000 N 
ATOM     14  N   UNL     1       8.083   4.408  18.038  0.00  0.00    +0.000 NA
ATOM     15  N   UNL     1       6.863   4.542  18.542  0.00  0.00    +0.000 NA
ATOM     16  C   UNL     1       5.974   4.641  17.501  0.00  0.00    +0.000 A 
ATOM     17  H   UNL     1       8.812   4.364  16.140  0.00  0.00    +0.000 HD
BRANCH  12  19
ATOM     18  F   UNL     1       5.369   5.641  14.701  0.00  0.00    +0.000 F 
ATOM     19  C   UNL     1       6.328   4.699  14.902  0.00  0.00    +0.000 C 
ATOM     20  F   UNL     1       5.850   3.539  14.397  0.00  0.00    +0.000 F 
ATOM     21  F   UNL     1       7.388   5.066  14.141  0.00  0.00    +0.000 F 
ENDBRANCH  12  19
ENDBRANCH   6  16
ENDBRANCH   1  10
BRANCH   3  22
ATOM     22  C   UNL     1       0.821   9.964  20.941  0.00  0.00    +0.000 C 
BRANCH  22  23
ATOM     23  C   UNL     1       0.717  11.452  20.608  0.00  0.00    +0.000 C 
BRANCH  23  24
ATOM     24  C   UNL     1      -0.593  12.083  21.025  0.00  0.00    +0.000 A 
ATOM     25  C   UNL     1      -0.664  12.646  22.311  0.00  0.00    +0.000 A 
ATOM     26  C   UNL     1      -1.866  13.138  22.805  0.00  0.00    +0.000 A 
ATOM     27  C   UNL     1      -3.016  13.062  22.027  0.00  0.00    +0.000 A 
ATOM     28  C   UNL     1      -2.978  12.525  20.731  0.00  0.00    +0.000 A 
ATOM     29  C   UNL     1      -4.156  12.439  19.971  0.00  0.00    +0.000 A 
ATOM     30  C   UNL     1      -4.141  11.923  18.678  0.00  0.00    +0.000 A 
ATOM     31  C   UNL     1      -2.941  11.506  18.119  0.00  0.00    +0.000 A 
ATOM     32  C   UNL     1      -1.763  11.572  18.866  0.00  0.00    +0.000 A 
ATOM     33  C   UNL     1      -1.752  12.057  20.196  0.00  0.00    +0.000 A 
ENDBRANCH  23  24
ENDBRANCH  22  23
ENDBRANCH   3  22
TORSDOF 6
ENDMDL
MODEL 8
REMARK VINA RESULT:      -9.4      1.779      2.591
REMARK  Name = 
REMARK  6 active torsions:
REMARK  status: ('A' for Active; 'I' for Inactive)
REMARK    1  A    between atoms: C_2  and  C_5
REMARK    2  A    between atoms: C_9  and  C_10
REMARK    3  A    between atoms: C_14  and  C_15
REMARK    4  A    between atoms: N_17  and  C_18
REMARK    5  A    between atoms: C_18  and  C_19
REMARK    6  A    between atoms: C_19  and  C_20
REMARK                            x       y       z     vdW  Elec       q    Type
REMARK                         _______ _______ _______ _____ _____    ______ ____
ROOT
ATOM      1  C   UNL     1       2.086   7.282  19.240  0.00  0.00    +0.000 A 
ATOM      2  C   UNL     1       1.775   8.507  18.684  0.00  0.00    +0.000 A 
ATOM      3  N   UNL     1       1.301   9.266  19.719  0.00  0.00    +0.000 N 
ATOM      4  C   UNL     1       1.311   8.479  20.836  0.00  0.00    +0.000 A 
ATOM      5  N   UNL     1       1.794   7.282  20.586  0.00  0.00    +0.000 NA
ENDROOT
BRANCH   1  10
ATOM      6  C   UNL     1       4.326   5.174  17.102  0.00  0.00    +0.000 A 
ATOM      7  C   UNL     1       3.642   3.965  17.209  0.00  0.00    +0.000 A 
ATOM      8  C   UNL     1       2.478   3.916  17.955  0.00  0.00    +0.000 A 
ATOM      9  N   UNL     1       1.965   4.977  18.607  0.00  0.00    +0.000 NA
ATOM     10  C   UNL     1       2.651   6.145  18.528  0.00  0.00    +0.000 A 
ATOM     11  C   UNL     1       3.827   6.283  17.797  0.00  0.00    +0.000 A 
BRANCH   6  16
ATOM     12  C   UNL     1       6.839   5.320  16.750  0.00  0.00    +0.000 A 
ATOM     13  N   UNL     1       7.568   5.439  15.604  0.00  0.00    +0.000 N 
ATOM     14  N   UNL     1       6.783   5.487  14.522  0.00  0.00    +0.000 NA
ATOM     15  N   UNL     1       5.527   5.396  14.940  0.00  0.00    +0.000 NA
ATOM     16  C   UNL     1       5.533   5.308  16.310  0.00  0.00    +0.000 A 
ATOM     17  H   UNL     1       8.576   5.479  15.479  0.00  0.00    +0.000 HD
BRANCH  12  19
ATOM     18  F   UNL     1       8.463   4.241  18.017  0.00  0.00    +0.000 F 
ATOM     19  C   UNL     1       7.499   5.198  18.043  0.00  0.00    +0.000 C 
ATOM     20  F   UNL     1       6.639   4.860  19.031  0.00  0.00    +0.000 F 
ATOM     21  F   UNL     1       8.114   6.347  18.418  0.00  0.00    +0.000 F 
ENDBRANCH  12  19
ENDBRANCH   6  16
ENDBRANCH   1  10
BRANCH   3  22
ATOM     22  C   UNL     1       0.863  10.647  19.620  0.00  0.00    +0.000 C 
BRANCH  22  23
ATOM     23  C   UNL     1      -0.277  10.851  18.622  0.00  0.00    +0.000 C 
BRANCH  23  24
ATOM     24  C   UNL     1      -1.480  11.560  19.204  0.00  0.00    +0.000 A 
ATOM     25  C   UNL     1      -1.349  12.115  20.490  0.00  0.00    +0.000 A 
ATOM     26  C   UNL     1      -2.445  12.678  21.134  0.00  0.00    +0.000 A 
ATOM     27  C   UNL     1      -3.688  12.683  20.509  0.00  0.00    +0.000 A 
ATOM     28  C   UNL     1      -3.849  12.156  19.218  0.00  0.00    +0.000 A 
ATOM     29  C   UNL     1      -5.118  12.152  18.616  0.00  0.00    +0.000 A 
ATOM     30  C   UNL     1      -5.301  11.648  17.330  0.00  0.00    +0.000 A 
ATOM     31  C   UNL     1      -4.212  11.160  16.622  0.00  0.00    +0.000 A 
ATOM     32  C   UNL     1      -2.946  11.145  17.212  0.00  0.00    +0.000 A 
ATOM     33  C   UNL     1      -2.734  11.616  18.530  0.00  0.00    +0.000 A 
ENDBRANCH  23  24
ENDBRANCH  22  23
ENDBRANCH   3  22
TORSDOF 6
ENDMDL
MODEL 9
REMARK VINA RESULT:      -9.4      1.078      2.073
REMARK  Name = 
REMARK  6 active torsions:
REMARK  status: ('A' for Active; 'I' for Inactive)
REMARK    1  A    between atoms: C_2  and  C_5
REMARK    2  A    between atoms: C_9  and  C_10
REMARK    3  A    between atoms: C_14  and  C_15
REMARK    4  A    between atoms: N_17  and  C_18
REMARK    5  A    between atoms: C_18  and  C_19
REMARK    6  A    between atoms: C_19  and  C_20
REMARK                            x       y       z     vdW  Elec       q    Type
REMARK                         _______ _______ _______ _____ _____    ______ ____
ROOT
ATOM      1  C   UNL     1       1.978   7.265  19.999  0.00  0.00    +0.000 A 
ATOM      2  C   UNL     1       1.905   8.268  19.055  0.00  0.00    +0.000 A 
ATOM      3  N   UNL     1       1.192   9.274  19.647  0.00  0.00    +0.000 N 
ATOM      4  C   UNL     1       0.837   8.839  20.893  0.00  0.00    +0.000 A 
ATOM      5  N   UNL     1       1.309   7.637  21.143  0.00  0.00    +0.000 NA
ENDROOT
BRANCH   1  10
ATOM      6  C   UNL     1       4.562   4.701  19.112  0.00  0.00    +0.000 A 
ATOM      7  C   UNL     1       3.888   3.563  19.548  0.00  0.00    +0.000 A 
ATOM      8  C   UNL     1       2.619   3.699  20.084  0.00  0.00    +0.000 A 
ATOM      9  N   UNL     1       1.993   4.882  20.228  0.00  0.00    +0.000 NA
ATOM     10  C   UNL     1       2.666   5.992  19.834  0.00  0.00    +0.000 A 
ATOM     11  C   UNL     1       3.943   5.946  19.281  0.00  0.00    +0.000 A 
BRANCH   6  16
ATOM     12  C   UNL     1       6.195   4.408  17.186  0.00  0.00    +0.000 A 
ATOM     13  N   UNL     1       7.557   4.472  17.161  0.00  0.00    +0.000 N 
ATOM     14  N   UNL     1       8.061   4.729  18.373  0.00  0.00    +0.000 NA
ATOM     15  N   UNL     1       7.039   4.841  19.212  0.00  0.00    +0.000 NA
ATOM     16  C   UNL     1       5.879   4.632  18.509  0.00  0.00    +0.000 A 
ATOM     17  H   UNL     1       8.195   4.369  16.376  0.00  0.00    +0.000 HD
BRANCH  12  19
ATOM     18  F   UNL     1       5.254   5.350  15.280  0.00  0.00    +0.000 F 
ATOM     19  C   UNL     1       5.436   4.189  15.961  0.00  0.00    +0.000 C 
ATOM     20  F   UNL     1       4.207   3.678  16.201  0.00  0.00    +0.000 F 
ATOM     21  F   UNL     1       6.067   3.343  15.110  0.00  0.00    +0.000 F 
ENDBRANCH  12  19
ENDBRANCH   6  16
ENDBRANCH   1  10
BRANCH   3  22
ATOM     22  C   UNL     1       0.872  10.553  19.039  0.00  0.00    +0.000 C 
BRANCH  22  23
ATOM     23  C   UNL     1      -0.457  10.552  18.286  0.00  0.00    +0.000 C 
BRANCH  23  24
ATOM     24  C   UNL     1      -1.541  11.367  18.957  0.00  0.00    +0.000 A 
ATOM     25  C   UNL     1      -1.256  11.915  20.220  0.00  0.00    +0.000 A 
ATOM     26  C   UNL     1      -2.241  12.575  20.945  0.00  0.00    +0.000 A 
ATOM     27  C   UNL     1      -3.526  12.686  20.425  0.00  0.00    +0.000 A 
ATOM     28  C   UNL     1      -3.840  12.169  19.158  0.00  0.00    +0.000 A 
ATOM     29  C   UNL     1      -5.150  12.274  18.663  0.00  0.00    +0.000 A 
ATOM     30  C   UNL     1      -5.483  11.781  17.403  0.00  0.00    +0.000 A 
ATOM     31  C   UNL     1      -4.504  11.196  16.613  0.00  0.00    +0.000 A 
ATOM     32  C   UNL     1      -3.199  11.073  17.097  0.00  0.00    +0.000 A 
ATOM     33  C   UNL     1      -2.838  11.530  18.388  0.00  0.00    +0.000 A 
ENDBRANCH  23  24
ENDBRANCH  22  23
ENDBRANCH   3  22
TORSDOF 6
ENDMDL
