MODEL 1
REMARK VINA RESULT:      -8.5      0.000      0.000
REMARK  Name = 
REMARK  4 active torsions:
REMARK  status: ('A' for Active; 'I' for Inactive)
REMARK    1  A    between atoms: C_7  and  N_8
REMARK    2  A    between atoms: C_13  and  C_14
REMARK    3  A    between atoms: C_13  and  C_19
REMARK    4  A    between atoms: C_15  and  C_16
REMARK                            x       y       z     vdW  Elec       q    Type
REMARK                         _______ _______ _______ _____ _____    ______ ____
ROOT
ATOM      1  O   UNL     1       0.130   2.028  18.326  0.00  0.00    +0.000 OA
ATOM      2  C   UNL     1       1.055   2.801  18.542  0.00  0.00    +0.000 C 
ATOM      3  N   UNL     1       2.238   2.693  17.868  0.00  0.00    +0.000 N 
ATOM      4  C   UNL     1       3.341   3.503  18.086  0.00  0.00    +0.000 A 
ATOM      5  C   UNL     1       4.455   3.411  17.251  0.00  0.00    +0.000 A 
ATOM      6  C   UNL     1       5.601   4.157  17.539  0.00  0.00    +0.000 A 
ATOM      7  C   UNL     1       5.621   4.980  18.671  0.00  0.00    +0.000 A 
ATOM      8  C   UNL     1       4.489   5.087  19.491  0.00  0.00    +0.000 A 
ATOM      9  C   UNL     1       3.327   4.352  19.190  0.00  0.00    +0.000 A 
ATOM     10  C   UNL     1       2.095   4.342  20.089  0.00  0.00    +0.000 C 
ATOM     11  O   UNL     1       0.929   3.863  19.373  0.00  0.00    +0.000 OA
ATOM     12  H   UNL     1       2.249   1.985  17.144  0.00  0.00    +0.000 HD
ENDROOT
BRANCH  10  13
ATOM     13  C   UNL     1       2.335   3.438  21.347  0.00  0.00    +0.000 C 
ATOM     14  F   UNL     1       2.671   4.162  22.446  0.00  0.00    +0.000 F 
ATOM     15  F   UNL     1       1.244   2.710  21.691  0.00  0.00    +0.000 F 
ATOM     16  F   UNL     1       3.347   2.555  21.157  0.00  0.00    +0.000 F 
ENDBRANCH  10  13
BRANCH   7  17
ATOM     17  N   UNL     1       6.844   5.712  19.029  0.00  0.00    +0.000 N 
ATOM     18  O   UNL     1       7.376   5.446  20.116  0.00  0.00    +0.000 OA
ATOM     19  O   UNL     1       7.265   6.555  18.225  0.00  0.00    +0.000 OA
ENDBRANCH   7  17
BRANCH  10  20
ATOM     20  C   UNL     1       1.783   5.745  20.485  0.00  0.00    +0.000 C 
ATOM     21  C   UNL     1       1.544   6.907  20.683  0.00  0.00    +0.000 C 
BRANCH  21  22
ATOM     22  C   UNL     1       1.256   8.308  20.786  0.00  0.00    +0.000 C 
ATOM     23  C   UNL     1      -0.030   8.786  21.411  0.00  0.00    +0.000 C 
ATOM     24  C   UNL     1       1.256   8.906  22.175  0.00  0.00    +0.000 C 
ENDBRANCH  21  22
ENDBRANCH  10  20
TORSDOF 4
ENDMDL
MODEL 2
REMARK VINA RESULT:      -8.0      3.564      5.432
REMARK  Name = 
REMARK  4 active torsions:
REMARK  status: ('A' for Active; 'I' for Inactive)
REMARK    1  A    between atoms: C_7  and  N_8
REMARK    2  A    between atoms: C_13  and  C_14
REMARK    3  A    between atoms: C_13  and  C_19
REMARK    4  A    between atoms: C_15  and  C_16
REMARK                            x       y       z     vdW  Elec       q    Type
REMARK                         _______ _______ _______ _____ _____    ______ ____
ROOT
ATOM      1  O   UNL     1       4.815   1.814  20.037  0.00  0.00    +0.000 OA
ATOM      2  C   UNL     1       4.587   2.981  19.744  0.00  0.00    +0.000 C 
ATOM      3  N   UNL     1       3.466   3.617  20.196  0.00  0.00    +0.000 N 
ATOM      4  C   UNL     1       3.120   4.920  19.875  0.00  0.00    +0.000 A 
ATOM      5  C   UNL     1       2.032   5.532  20.498  0.00  0.00    +0.000 A 
ATOM      6  C   UNL     1       1.629   6.807  20.095  0.00  0.00    +0.000 A 
ATOM      7  C   UNL     1       2.317   7.452  19.061  0.00  0.00    +0.000 A 
ATOM      8  C   UNL     1       3.426   6.843  18.457  0.00  0.00    +0.000 A 
ATOM      9  C   UNL     1       3.845   5.567  18.877  0.00  0.00    +0.000 A 
ATOM     10  C   UNL     1       4.979   4.802  18.201  0.00  0.00    +0.000 C 
ATOM     11  O   UNL     1       5.473   3.738  19.053  0.00  0.00    +0.000 OA
ATOM     12  H   UNL     1       2.900   3.073  20.836  0.00  0.00    +0.000 HD
ENDROOT
BRANCH  10  13
ATOM     13  C   UNL     1       4.500   4.191  16.839  0.00  0.00    +0.000 C 
ATOM     14  F   UNL     1       3.195   3.813  16.874  0.00  0.00    +0.000 F 
ATOM     15  F   UNL     1       4.616   5.057  15.802  0.00  0.00    +0.000 F 
ATOM     16  F   UNL     1       5.203   3.082  16.501  0.00  0.00    +0.000 F 
ENDBRANCH  10  13
BRANCH   7  17
ATOM     17  N   UNL     1       1.859   8.761  18.575  0.00  0.00    +0.000 N 
ATOM     18  O   UNL     1       2.249   9.129  17.459  0.00  0.00    +0.000 OA
ATOM     19  O   UNL     1       1.115   9.421  19.315  0.00  0.00    +0.000 OA
ENDBRANCH   7  17
BRANCH  10  20
ATOM     20  C   UNL     1       6.127   5.731  18.001  0.00  0.00    +0.000 C 
ATOM     21  C   UNL     1       6.979   6.548  17.766  0.00  0.00    +0.000 C 
BRANCH  21  22
ATOM     22  C   UNL     1       7.899   7.592  17.423  0.00  0.00    +0.000 C 
ATOM     23  C   UNL     1       7.542   9.039  17.650  0.00  0.00    +0.000 C 
ATOM     24  C   UNL     1       8.518   8.362  18.567  0.00  0.00    +0.000 C 
ENDBRANCH  21  22
ENDBRANCH  10  20
TORSDOF 4
ENDMDL
MODEL 3
REMARK VINA RESULT:      -7.9      3.312      5.622
REMARK  Name = 
REMARK  4 active torsions:
REMARK  status: ('A' for Active; 'I' for Inactive)
REMARK    1  A    between atoms: C_7  and  N_8
REMARK    2  A    between atoms: C_13  and  C_14
REMARK    3  A    between atoms: C_13  and  C_19
REMARK    4  A    between atoms: C_15  and  C_16
REMARK                            x       y       z     vdW  Elec       q    Type
REMARK                         _______ _______ _______ _____ _____    ______ ____
ROOT
ATOM      1  O   UNL     1       2.916   2.739  21.351  0.00  0.00    +0.000 OA
ATOM      2  C   UNL     1       2.871   3.749  20.660  0.00  0.00    +0.000 C 
ATOM      3  N   UNL     1       2.286   4.894  21.120  0.00  0.00    +0.000 N 
ATOM      4  C   UNL     1       2.160   6.062  20.384  0.00  0.00    +0.000 A 
ATOM      5  C   UNL     1       1.677   7.224  20.986  0.00  0.00    +0.000 A 
ATOM      6  C   UNL     1       1.458   8.367  20.213  0.00  0.00    +0.000 A 
ATOM      7  C   UNL     1       1.716   8.327  18.838  0.00  0.00    +0.000 A 
ATOM      8  C   UNL     1       2.226   7.164  18.243  0.00  0.00    +0.000 A 
ATOM      9  C   UNL     1       2.466   6.019  19.026  0.00  0.00    +0.000 A 
ATOM     10  C   UNL     1       2.925   4.691  18.433  0.00  0.00    +0.000 C 
ATOM     11  O   UNL     1       3.484   3.828  19.455  0.00  0.00    +0.000 OA
ATOM     12  H   UNL     1       1.971   4.852  22.082  0.00  0.00    +0.000 HD
ENDROOT
BRANCH  10  13
ATOM     13  C   UNL     1       1.732   3.955  17.732  0.00  0.00    +0.000 C 
ATOM     14  F   UNL     1       0.953   3.278  18.615  0.00  0.00    +0.000 F 
ATOM     15  F   UNL     1       0.906   4.802  17.069  0.00  0.00    +0.000 F 
ATOM     16  F   UNL     1       2.157   3.039  16.827  0.00  0.00    +0.000 F 
ENDBRANCH  10  13
BRANCH   7  17
ATOM     17  N   UNL     1       1.419   9.497  17.999  0.00  0.00    +0.000 N 
ATOM     18  O   UNL     1       0.228   9.791  17.824  0.00  0.00    +0.000 OA
ATOM     19  O   UNL     1       2.377  10.113  17.512  0.00  0.00    +0.000 OA
ENDBRANCH   7  17
BRANCH  10  20
ATOM     20  C   UNL     1       4.035   4.957  17.473  0.00  0.00    +0.000 C 
ATOM     21  C   UNL     1       4.847   5.151  16.606  0.00  0.00    +0.000 C 
BRANCH  21  22
ATOM     22  C   UNL     1       5.713   5.376  15.487  0.00  0.00    +0.000 C 
ATOM     23  C   UNL     1       7.022   4.639  15.365  0.00  0.00    +0.000 C 
ATOM     24  C   UNL     1       5.863   4.241  14.499  0.00  0.00    +0.000 C 
ENDBRANCH  21  22
ENDBRANCH  10  20
TORSDOF 4
ENDMDL
MODEL 4
REMARK VINA RESULT:      -7.9      3.584      5.435
REMARK  Name = 
REMARK  4 active torsions:
REMARK  status: ('A' for Active; 'I' for Inactive)
REMARK    1  A    between atoms: C_7  and  N_8
REMARK    2  A    between atoms: C_13  and  C_14
REMARK    3  A    between atoms: C_13  and  C_19
REMARK    4  A    between atoms: C_15  and  C_16
REMARK                            x       y       z     vdW  Elec       q    Type
REMARK                         _______ _______ _______ _____ _____    ______ ____
ROOT
ATOM      1  O   UNL     1       4.800   1.839  19.993  0.00  0.00    +0.000 OA
ATOM      2  C   UNL     1       4.558   3.011  19.734  0.00  0.00    +0.000 C 
ATOM      3  N   UNL     1       3.416   3.613  20.181  0.00  0.00    +0.000 N 
ATOM      4  C   UNL     1       3.053   4.919  19.896  0.00  0.00    +0.000 A 
ATOM      5  C   UNL     1       1.941   5.491  20.515  0.00  0.00    +0.000 A 
ATOM      6  C   UNL     1       1.524   6.772  20.146  0.00  0.00    +0.000 A 
ATOM      7  C   UNL     1       2.222   7.463  19.149  0.00  0.00    +0.000 A 
ATOM      8  C   UNL     1       3.354   6.893  18.549  0.00  0.00    +0.000 A 
ATOM      9  C   UNL     1       3.787   5.611  18.936  0.00  0.00    +0.000 A 
ATOM     10  C   UNL     1       4.949   4.889  18.260  0.00  0.00    +0.000 C 
ATOM     11  O   UNL     1       5.444   3.807  19.087  0.00  0.00    +0.000 OA
ATOM     12  H   UNL     1       2.846   3.037  20.790  0.00  0.00    +0.000 HD
ENDROOT
BRANCH  10  13
ATOM     13  C   UNL     1       4.510   4.316  16.869  0.00  0.00    +0.000 C 
ATOM     14  F   UNL     1       5.246   3.235  16.501  0.00  0.00    +0.000 F 
ATOM     15  F   UNL     1       3.214   3.918  16.846  0.00  0.00    +0.000 F 
ATOM     16  F   UNL     1       4.655   5.225  15.873  0.00  0.00    +0.000 F 
ENDBRANCH  10  13
BRANCH   7  17
ATOM     17  N   UNL     1       1.750   8.779  18.697  0.00  0.00    +0.000 N 
ATOM     18  O   UNL     1       1.047   9.437  19.476  0.00  0.00    +0.000 OA
ATOM     19  O   UNL     1       2.079   9.149  17.561  0.00  0.00    +0.000 OA
ENDBRANCH   7  17
BRANCH  10  20
ATOM     20  C   UNL     1       6.084   5.845  18.117  0.00  0.00    +0.000 C 
ATOM     21  C   UNL     1       6.964   6.632  17.883  0.00  0.00    +0.000 C 
BRANCH  21  22
ATOM     22  C   UNL     1       7.951   7.592  17.486  0.00  0.00    +0.000 C 
ATOM     23  C   UNL     1       7.693   9.069  17.635  0.00  0.00    +0.000 C 
ATOM     24  C   UNL     1       8.623   8.379  18.588  0.00  0.00    +0.000 C 
ENDBRANCH  21  22
ENDBRANCH  10  20
TORSDOF 4
ENDMDL
MODEL 5
REMARK VINA RESULT:      -7.9      2.951      5.022
REMARK  Name = 
REMARK  4 active torsions:
REMARK  status: ('A' for Active; 'I' for Inactive)
REMARK    1  A    between atoms: C_7  and  N_8
REMARK    2  A    between atoms: C_13  and  C_14
REMARK    3  A    between atoms: C_13  and  C_19
REMARK    4  A    between atoms: C_15  and  C_16
REMARK                            x       y       z     vdW  Elec       q    Type
REMARK                         _______ _______ _______ _____ _____    ______ ____
ROOT
ATOM      1  O   UNL     1       2.271   2.138  21.885  0.00  0.00    +0.000 OA
ATOM      2  C   UNL     1       2.512   3.126  21.203  0.00  0.00    +0.000 C 
ATOM      3  N   UNL     1       1.824   4.292  21.380  0.00  0.00    +0.000 N 
ATOM      4  C   UNL     1       2.012   5.437  20.621  0.00  0.00    +0.000 A 
ATOM      5  C   UNL     1       1.365   6.624  20.968  0.00  0.00    +0.000 A 
ATOM      6  C   UNL     1       1.480   7.743  20.140  0.00  0.00    +0.000 A 
ATOM      7  C   UNL     1       2.234   7.657  18.965  0.00  0.00    +0.000 A 
ATOM      8  C   UNL     1       2.902   6.469  18.635  0.00  0.00    +0.000 A 
ATOM      9  C   UNL     1       2.804   5.347  19.479  0.00  0.00    +0.000 A 
ATOM     10  C   UNL     1       3.421   3.994  19.137  0.00  0.00    +0.000 C 
ATOM     11  O   UNL     1       3.535   3.158  20.315  0.00  0.00    +0.000 OA
ATOM     12  H   UNL     1       1.171   4.285  22.154  0.00  0.00    +0.000 HD
ENDROOT
BRANCH  10  13
ATOM     13  C   UNL     1       2.561   3.251  18.057  0.00  0.00    +0.000 C 
ATOM     14  F   UNL     1       1.240   3.556  18.151  0.00  0.00    +0.000 F 
ATOM     15  F   UNL     1       2.931   3.552  16.788  0.00  0.00    +0.000 F 
ATOM     16  F   UNL     1       2.644   1.903  18.177  0.00  0.00    +0.000 F 
ENDBRANCH  10  13
BRANCH   7  17
ATOM     17  N   UNL     1       2.301   8.802  18.046  0.00  0.00    +0.000 N 
ATOM     18  O   UNL     1       1.663   9.819  18.349  0.00  0.00    +0.000 OA
ATOM     19  O   UNL     1       2.987   8.678  17.022  0.00  0.00    +0.000 OA
ENDBRANCH   7  17
BRANCH  10  20
ATOM     20  C   UNL     1       4.816   4.215  18.657  0.00  0.00    +0.000 C 
ATOM     21  C   UNL     1       5.918   4.516  18.280  0.00  0.00    +0.000 C 
BRANCH  21  22
ATOM     22  C   UNL     1       7.200   5.001  17.863  0.00  0.00    +0.000 C 
ATOM     23  C   UNL     1       7.387   6.443  17.466  0.00  0.00    +0.000 C 
ATOM     24  C   UNL     1       7.903   5.966  18.792  0.00  0.00    +0.000 C 
ENDBRANCH  21  22
ENDBRANCH  10  20
TORSDOF 4
ENDMDL
MODEL 6
REMARK VINA RESULT:      -7.9      3.004      5.332
REMARK  Name = 
REMARK  4 active torsions:
REMARK  status: ('A' for Active; 'I' for Inactive)
REMARK    1  A    between atoms: C_7  and  N_8
REMARK    2  A    between atoms: C_13  and  C_14
REMARK    3  A    between atoms: C_13  and  C_19
REMARK    4  A    between atoms: C_15  and  C_16
REMARK                            x       y       z     vdW  Elec       q    Type
REMARK                         _______ _______ _______ _____ _____    ______ ____
ROOT
ATOM      1  O   UNL     1       2.707   2.295  21.910  0.00  0.00    +0.000 OA
ATOM      2  C   UNL     1       2.788   3.235  21.131  0.00  0.00    +0.000 C 
ATOM      3  N   UNL     1       2.212   4.441  21.414  0.00  0.00    +0.000 N 
ATOM      4  C   UNL     1       2.227   5.537  20.566  0.00  0.00    +0.000 A 
ATOM      5  C   UNL     1       1.737   6.768  21.001  0.00  0.00    +0.000 A 
ATOM      6  C   UNL     1       1.661   7.840  20.108  0.00  0.00    +0.000 A 
ATOM      7  C   UNL     1       2.068   7.660  18.781  0.00  0.00    +0.000 A 
ATOM      8  C   UNL     1       2.584   6.427  18.357  0.00  0.00    +0.000 A 
ATOM      9  C   UNL     1       2.680   5.354  19.262  0.00  0.00    +0.000 A 
ATOM     10  C   UNL     1       3.137   3.958  18.849  0.00  0.00    +0.000 C 
ATOM     11  O   UNL     1       3.535   3.176  20.002  0.00  0.00    +0.000 OA
ATOM     12  H   UNL     1       1.790   4.502  22.333  0.00  0.00    +0.000 HD
ENDROOT
BRANCH  10  13
ATOM     13  C   UNL     1       1.995   3.205  18.084  0.00  0.00    +0.000 C 
ATOM     14  F   UNL     1       0.759   3.621  18.463  0.00  0.00    +0.000 F 
ATOM     15  F   UNL     1       2.057   3.376  16.741  0.00  0.00    +0.000 F 
ATOM     16  F   UNL     1       2.025   1.868  18.308  0.00  0.00    +0.000 F 
ENDBRANCH  10  13
BRANCH   7  17
ATOM     17  N   UNL     1       1.924   8.754  17.811  0.00  0.00    +0.000 N 
ATOM     18  O   UNL     1       0.908   9.459  17.886  0.00  0.00    +0.000 OA
ATOM     19  O   UNL     1       2.825   8.902  16.973  0.00  0.00    +0.000 OA
ENDBRANCH   7  17
BRANCH  10  20
ATOM     20  C   UNL     1       4.358   4.088  18.003  0.00  0.00    +0.000 C 
ATOM     21  C   UNL     1       5.267   4.218  17.225  0.00  0.00    +0.000 C 
BRANCH  21  22
ATOM     22  C   UNL     1       6.258   4.414  16.209  0.00  0.00    +0.000 C 
ATOM     23  C   UNL     1       6.059   3.862  14.821  0.00  0.00    +0.000 C 
ATOM     24  C   UNL     1       5.893   5.333  15.065  0.00  0.00    +0.000 C 
ENDBRANCH  21  22
ENDBRANCH  10  20
TORSDOF 4
ENDMDL
MODEL 7
REMARK VINA RESULT:      -7.8      3.017      5.324
REMARK  Name = 
REMARK  4 active torsions:
REMARK  status: ('A' for Active; 'I' for Inactive)
REMARK    1  A    between atoms: C_7  and  N_8
REMARK    2  A    between atoms: C_13  and  C_14
REMARK    3  A    between atoms: C_13  and  C_19
REMARK    4  A    between atoms: C_15  and  C_16
REMARK                            x       y       z     vdW  Elec       q    Type
REMARK                         _______ _______ _______ _____ _____    ______ ____
ROOT
ATOM      1  O   UNL     1       2.628   2.298  21.915  0.00  0.00    +0.000 OA
ATOM      2  C   UNL     1       2.701   3.232  21.126  0.00  0.00    +0.000 C 
ATOM      3  N   UNL     1       2.190   4.460  21.436  0.00  0.00    +0.000 N 
ATOM      4  C   UNL     1       2.198   5.551  20.582  0.00  0.00    +0.000 A 
ATOM      5  C   UNL     1       1.782   6.803  21.037  0.00  0.00    +0.000 A 
ATOM      6  C   UNL     1       1.697   7.873  20.144  0.00  0.00    +0.000 A 
ATOM      7  C   UNL     1       2.020   7.673  18.797  0.00  0.00    +0.000 A 
ATOM      8  C   UNL     1       2.463   6.420  18.351  0.00  0.00    +0.000 A 
ATOM      9  C   UNL     1       2.568   5.346  19.255  0.00  0.00    +0.000 A 
ATOM     10  C   UNL     1       2.947   3.933  18.824  0.00  0.00    +0.000 C 
ATOM     11  O   UNL     1       3.380   3.139  19.957  0.00  0.00    +0.000 OA
ATOM     12  H   UNL     1       1.824   4.541  22.377  0.00  0.00    +0.000 HD
ENDROOT
BRANCH  10  13
ATOM     13  C   UNL     1       1.734   3.222  18.130  0.00  0.00    +0.000 C 
ATOM     14  F   UNL     1       2.036   1.960  17.730  0.00  0.00    +0.000 F 
ATOM     15  F   UNL     1       0.652   3.115  18.939  0.00  0.00    +0.000 F 
ATOM     16  F   UNL     1       1.325   3.880  17.017  0.00  0.00    +0.000 F 
ENDBRANCH  10  13
BRANCH   7  17
ATOM     17  N   UNL     1       1.864   8.769  17.830  0.00  0.00    +0.000 N 
ATOM     18  O   UNL     1       2.763   8.932  16.995  0.00  0.00    +0.000 OA
ATOM     19  O   UNL     1       0.844   9.469  17.915  0.00  0.00    +0.000 OA
ENDBRANCH   7  17
BRANCH  10  20
ATOM     20  C   UNL     1       4.122   4.012  17.909  0.00  0.00    +0.000 C 
ATOM     21  C   UNL     1       5.023   4.186  17.132  0.00  0.00    +0.000 C 
BRANCH  21  22
ATOM     22  C   UNL     1       6.047   4.516  16.185  0.00  0.00    +0.000 C 
ATOM     23  C   UNL     1       5.970   4.021  14.763  0.00  0.00    +0.000 C 
ATOM     24  C   UNL     1       5.667   5.459  15.066  0.00  0.00    +0.000 C 
ENDBRANCH  21  22
ENDBRANCH  10  20
TORSDOF 4
ENDMDL
MODEL 8
REMARK VINA RESULT:      -7.8      2.964      5.058
REMARK  Name = 
REMARK  4 active torsions:
REMARK  status: ('A' for Active; 'I' for Inactive)
REMARK    1  A    between atoms: C_7  and  N_8
REMARK    2  A    between atoms: C_13  and  C_14
REMARK    3  A    between atoms: C_13  and  C_19
REMARK    4  A    between atoms: C_15  and  C_16
REMARK                            x       y       z     vdW  Elec       q    Type
REMARK                         _______ _______ _______ _____ _____    ______ ____
ROOT
ATOM      1  O   UNL     1       2.335   2.216  21.896  0.00  0.00    +0.000 OA
ATOM      2  C   UNL     1       2.543   3.198  21.196  0.00  0.00    +0.000 C 
ATOM      3  N   UNL     1       1.858   4.363  21.391  0.00  0.00    +0.000 N 
ATOM      4  C   UNL     1       2.008   5.502  20.615  0.00  0.00    +0.000 A 
ATOM      5  C   UNL     1       1.371   6.689  20.979  0.00  0.00    +0.000 A 
ATOM      6  C   UNL     1       1.446   7.802  20.138  0.00  0.00    +0.000 A 
ATOM      7  C   UNL     1       2.151   7.708  18.932  0.00  0.00    +0.000 A 
ATOM      8  C   UNL     1       2.810   6.520  18.586  0.00  0.00    +0.000 A 
ATOM      9  C   UNL     1       2.753   5.405  19.443  0.00  0.00    +0.000 A 
ATOM     10  C   UNL     1       3.361   4.053  19.086  0.00  0.00    +0.000 C 
ATOM     11  O   UNL     1       3.528   3.227  20.266  0.00  0.00    +0.000 OA
ATOM     12  H   UNL     1       1.237   4.360  22.192  0.00  0.00    +0.000 HD
ENDROOT
BRANCH  10  13
ATOM     13  C   UNL     1       2.460   3.296  18.050  0.00  0.00    +0.000 C 
ATOM     14  F   UNL     1       2.471   1.952  18.242  0.00  0.00    +0.000 F 
ATOM     15  F   UNL     1       1.160   3.677  18.104  0.00  0.00    +0.000 F 
ATOM     16  F   UNL     1       2.872   3.496  16.773  0.00  0.00    +0.000 F 
ENDBRANCH  10  13
BRANCH   7  17
ATOM     17  N   UNL     1       2.175   8.846  18.002  0.00  0.00    +0.000 N 
ATOM     18  O   UNL     1       3.010   8.823  17.088  0.00  0.00    +0.000 OA
ATOM     19  O   UNL     1       1.362   9.761  18.193  0.00  0.00    +0.000 OA
ENDBRANCH   7  17
BRANCH  10  20
ATOM     20  C   UNL     1       4.734   4.275  18.547  0.00  0.00    +0.000 C 
ATOM     21  C   UNL     1       5.837   4.568  18.167  0.00  0.00    +0.000 C 
BRANCH  21  22
ATOM     22  C   UNL     1       7.142   5.025  17.790  0.00  0.00    +0.000 C 
ATOM     23  C   UNL     1       7.430   6.497  17.642  0.00  0.00    +0.000 C 
ATOM     24  C   UNL     1       7.940   5.758  18.844  0.00  0.00    +0.000 C 
ENDBRANCH  21  22
ENDBRANCH  10  20
TORSDOF 4
ENDMDL
MODEL 9
REMARK VINA RESULT:      -7.6      2.039      2.458
REMARK  Name = 
REMARK  4 active torsions:
REMARK  status: ('A' for Active; 'I' for Inactive)
REMARK    1  A    between atoms: C_7  and  N_8
REMARK    2  A    between atoms: C_13  and  C_14
REMARK    3  A    between atoms: C_13  and  C_19
REMARK    4  A    between atoms: C_15  and  C_16
REMARK                            x       y       z     vdW  Elec       q    Type
REMARK                         _______ _______ _______ _____ _____    ______ ____
ROOT
ATOM      1  O   UNL     1       0.761   2.853  17.816  0.00  0.00    +0.000 OA
ATOM      2  C   UNL     1       1.677   3.664  17.764  0.00  0.00    +0.000 C 
ATOM      3  N   UNL     1       2.936   3.285  17.394  0.00  0.00    +0.000 N 
ATOM      4  C   UNL     1       4.031   4.134  17.350  0.00  0.00    +0.000 A 
ATOM      5  C   UNL     1       5.244   3.690  16.822  0.00  0.00    +0.000 A 
ATOM      6  C   UNL     1       6.368   4.518  16.876  0.00  0.00    +0.000 A 
ATOM      7  C   UNL     1       6.265   5.781  17.469  0.00  0.00    +0.000 A 
ATOM      8  C   UNL     1       5.037   6.231  17.974  0.00  0.00    +0.000 A 
ATOM      9  C   UNL     1       3.900   5.406  17.902  0.00  0.00    +0.000 A 
ATOM     10  C   UNL     1       2.557   5.788  18.517  0.00  0.00    +0.000 C 
ATOM     11  O   UNL     1       1.482   4.990  17.962  0.00  0.00    +0.000 OA
ATOM     12  H   UNL     1       3.019   2.318  17.104  0.00  0.00    +0.000 HD
ENDROOT
BRANCH  10  13
ATOM     13  C   UNL     1       2.587   5.601  20.073  0.00  0.00    +0.000 C 
ATOM     14  F   UNL     1       3.588   4.774  20.474  0.00  0.00    +0.000 F 
ATOM     15  F   UNL     1       2.768   6.767  20.741  0.00  0.00    +0.000 F 
ATOM     16  F   UNL     1       1.439   5.055  20.545  0.00  0.00    +0.000 F 
ENDBRANCH  10  13
BRANCH   7  17
ATOM     17  N   UNL     1       7.456   6.633  17.601  0.00  0.00    +0.000 N 
ATOM     18  O   UNL     1       7.855   7.223  16.587  0.00  0.00    +0.000 OA
ATOM     19  O   UNL     1       7.992   6.703  18.716  0.00  0.00    +0.000 OA
ENDBRANCH   7  17
BRANCH  10  20
ATOM     20  C   UNL     1       2.249   7.199  18.149  0.00  0.00    +0.000 C 
ATOM     21  C   UNL     1       1.920   8.339  17.947  0.00  0.00    +0.000 C 
BRANCH  21  22
ATOM     22  C   UNL     1       1.458   9.690  17.822  0.00  0.00    +0.000 C 
ATOM     23  C   UNL     1       0.033  10.051  18.150  0.00  0.00    +0.000 C 
ATOM     24  C   UNL     1       1.131  10.423  19.102  0.00  0.00    +0.000 C 
ENDBRANCH  21  22
ENDBRANCH  10  20
TORSDOF 4
ENDMDL
