MODEL 1
REMARK VINA RESULT:      -7.7      0.000      0.000
REMARK  Name = 
REMARK  6 active torsions:
REMARK  status: ('A' for Active; 'I' for Inactive)
REMARK    1  A    between atoms: C_1  and  C_2
REMARK    2  A    between atoms: C_5  and  N_6
REMARK    3  A    between atoms: C_7  and  C_9
REMARK    4  A    between atoms: C_9  and  O_10
REMARK    5  A    between atoms: O_10  and  C_11
REMARK    6  A    between atoms: C_20  and  C_21
REMARK                            x       y       z     vdW  Elec       q    Type
REMARK                         _______ _______ _______ _____ _____    ______ ____
ROOT
ATOM      1  N   UNL     1       2.459   6.020  20.605  0.00  0.00    +0.000 N 
ATOM      2  C   UNL     1       1.775   4.809  20.657  0.00  0.00    +0.000 C 
ATOM      3  O   UNL     1       0.597   4.616  20.366  0.00  0.00    +0.000 OA
ATOM      4  H   UNL     1       3.429   5.988  20.881  0.00  0.00    +0.000 HD
ENDROOT
BRANCH   1   9
ATOM      5  C   UNL     1       0.374  11.104  18.885  0.00  0.00    +0.000 C 
ATOM      6  C   UNL     1       0.921   9.782  19.332  0.00  0.00    +0.000 A 
ATOM      7  C   UNL     1       0.627   9.285  20.596  0.00  0.00    +0.000 A 
ATOM      8  C   UNL     1       1.139   8.052  21.008  0.00  0.00    +0.000 A 
ATOM      9  C   UNL     1       1.956   7.274  20.177  0.00  0.00    +0.000 A 
ATOM     10  C   UNL     1       2.260   7.769  18.887  0.00  0.00    +0.000 A 
ATOM     11  C   UNL     1       3.130   7.076  17.872  0.00  0.00    +0.000 C 
ATOM     12  C   UNL     1       1.736   9.022  18.488  0.00  0.00    +0.000 A 
ENDBRANCH   1   9
BRANCH   2  13
ATOM     13  C   UNL     1       2.637   3.648  21.144  0.00  0.00    +0.000 C 
BRANCH  13  14
ATOM     14  O   UNL     1       2.832   2.764  20.048  0.00  0.00    +0.000 OA
BRANCH  14  15
ATOM     15  C   UNL     1       3.575   3.222  18.995  0.00  0.00    +0.000 A 
ATOM     16  C   UNL     1       3.160   3.263  17.650  0.00  0.00    +0.000 A 
ATOM     17  C   UNL     1       4.030   3.715  16.649  0.00  0.00    +0.000 A 
ATOM     18  C   UNL     1       5.294   4.111  17.024  0.00  0.00    +0.000 A 
ATOM     19  C   UNL     1       5.698   4.085  18.338  0.00  0.00    +0.000 A 
ATOM     20  C   UNL     1       4.860   3.652  19.343  0.00  0.00    +0.000 A 
ATOM     21  O   UNL     1       6.979   4.511  18.496  0.00  0.00    +0.000 OA
ATOM     22  C   UNL     1       7.353   4.758  17.125  0.00  0.00    +0.000 C 
ATOM     23  O   UNL     1       6.273   4.551  16.189  0.00  0.00    +0.000 OA
ENDBRANCH  14  15
ENDBRANCH  13  14
ENDBRANCH   2  13
TORSDOF 4
ENDMDL
MODEL 2
REMARK VINA RESULT:      -7.6      1.127      1.800
REMARK  Name = 
REMARK  6 active torsions:
REMARK  status: ('A' for Active; 'I' for Inactive)
REMARK    1  A    between atoms: C_1  and  C_2
REMARK    2  A    between atoms: C_5  and  N_6
REMARK    3  A    between atoms: C_7  and  C_9
REMARK    4  A    between atoms: C_9  and  O_10
REMARK    5  A    between atoms: O_10  and  C_11
REMARK    6  A    between atoms: C_20  and  C_21
REMARK                            x       y       z     vdW  Elec       q    Type
REMARK                         _______ _______ _______ _____ _____    ______ ____
ROOT
ATOM      1  N   UNL     1       2.694   6.340  20.145  0.00  0.00    +0.000 N 
ATOM      2  C   UNL     1       2.195   5.045  20.238  0.00  0.00    +0.000 C 
ATOM      3  O   UNL     1       1.014   4.715  20.316  0.00  0.00    +0.000 OA
ATOM      4  H   UNL     1       3.699   6.420  20.086  0.00  0.00    +0.000 HD
ENDROOT
BRANCH   1   9
ATOM      5  C   UNL     1      -0.359  11.218  19.932  0.00  0.00    +0.000 C 
ATOM      6  C   UNL     1       0.440   9.950  19.987  0.00  0.00    +0.000 A 
ATOM      7  C   UNL     1       0.450   9.169  21.136  0.00  0.00    +0.000 A 
ATOM      8  C   UNL     1       1.196   7.988  21.181  0.00  0.00    +0.000 A 
ATOM      9  C   UNL     1       1.951   7.546  20.087  0.00  0.00    +0.000 A 
ATOM     10  C   UNL     1       1.947   8.333  18.911  0.00  0.00    +0.000 A 
ATOM     11  C   UNL     1       2.709   8.019  17.651  0.00  0.00    +0.000 C 
ATOM     12  C   UNL     1       1.188   9.528  18.884  0.00  0.00    +0.000 A 
ENDBRANCH   1   9
BRANCH   2  13
ATOM     13  C   UNL     1       3.284   3.976  20.249  0.00  0.00    +0.000 C 
BRANCH  13  14
ATOM     14  O   UNL     1       3.435   3.498  18.919  0.00  0.00    +0.000 OA
BRANCH  14  15
ATOM     15  C   UNL     1       4.551   3.892  18.233  0.00  0.00    +0.000 A 
ATOM     16  C   UNL     1       5.725   4.421  18.804  0.00  0.00    +0.000 A 
ATOM     17  C   UNL     1       6.790   4.832  17.992  0.00  0.00    +0.000 A 
ATOM     18  C   UNL     1       6.647   4.705  16.628  0.00  0.00    +0.000 A 
ATOM     19  C   UNL     1       5.509   4.177  16.068  0.00  0.00    +0.000 A 
ATOM     20  C   UNL     1       4.450   3.758  16.844  0.00  0.00    +0.000 A 
ATOM     21  O   UNL     1       5.566   4.142  14.711  0.00  0.00    +0.000 OA
ATOM     22  C   UNL     1       6.850   4.757  14.478  0.00  0.00    +0.000 C 
ATOM     23  O   UNL     1       7.563   5.075  15.693  0.00  0.00    +0.000 OA
ENDBRANCH  14  15
ENDBRANCH  13  14
ENDBRANCH   2  13
TORSDOF 4
ENDMDL
MODEL 3
REMARK VINA RESULT:      -7.5      1.428      2.257
REMARK  Name = 
REMARK  6 active torsions:
REMARK  status: ('A' for Active; 'I' for Inactive)
REMARK    1  A    between atoms: C_1  and  C_2
REMARK    2  A    between atoms: C_5  and  N_6
REMARK    3  A    between atoms: C_7  and  C_9
REMARK    4  A    between atoms: C_9  and  O_10
REMARK    5  A    between atoms: O_10  and  C_11
REMARK    6  A    between atoms: C_20  and  C_21
REMARK                            x       y       z     vdW  Elec       q    Type
REMARK                         _______ _______ _______ _____ _____    ______ ____
ROOT
ATOM      1  N   UNL     1       2.893   6.194  19.942  0.00  0.00    +0.000 N 
ATOM      2  C   UNL     1       2.640   5.014  19.249  0.00  0.00    +0.000 C 
ATOM      3  O   UNL     1       1.656   4.763  18.557  0.00  0.00    +0.000 OA
ATOM      4  H   UNL     1       3.758   6.222  20.460  0.00  0.00    +0.000 HD
ENDROOT
BRANCH   1   9
ATOM      5  C   UNL     1      -0.397  10.919  20.074  0.00  0.00    +0.000 C 
ATOM      6  C   UNL     1       0.464   9.691  20.039  0.00  0.00    +0.000 A 
ATOM      7  C   UNL     1       0.492   8.815  21.118  0.00  0.00    +0.000 A 
ATOM      8  C   UNL     1       1.294   7.673  21.080  0.00  0.00    +0.000 A 
ATOM      9  C   UNL     1       2.091   7.363  19.970  0.00  0.00    +0.000 A 
ATOM     10  C   UNL     1       2.069   8.247  18.864  0.00  0.00    +0.000 A 
ATOM     11  C   UNL     1       2.869   8.078  17.600  0.00  0.00    +0.000 C 
ATOM     12  C   UNL     1       1.252   9.401  18.922  0.00  0.00    +0.000 A 
ENDBRANCH   1   9
BRANCH   2  13
ATOM     13  C   UNL     1       3.735   3.965  19.422  0.00  0.00    +0.000 C 
BRANCH  13  14
ATOM     14  O   UNL     1       4.968   4.651  19.596  0.00  0.00    +0.000 OA
BRANCH  14  15
ATOM     15  C   UNL     1       5.681   4.957  18.470  0.00  0.00    +0.000 A 
ATOM     16  C   UNL     1       6.567   6.042  18.326  0.00  0.00    +0.000 A 
ATOM     17  C   UNL     1       7.209   6.281  17.103  0.00  0.00    +0.000 A 
ATOM     18  C   UNL     1       6.941   5.426  16.057  0.00  0.00    +0.000 A 
ATOM     19  C   UNL     1       6.087   4.358  16.198  0.00  0.00    +0.000 A 
ATOM     20  C   UNL     1       5.449   4.097  17.391  0.00  0.00    +0.000 A 
ATOM     21  O   UNL     1       5.956   3.643  15.050  0.00  0.00    +0.000 OA
ATOM     22  C   UNL     1       6.785   4.412  14.155  0.00  0.00    +0.000 C 
ATOM     23  O   UNL     1       7.451   5.520  14.800  0.00  0.00    +0.000 OA
ENDBRANCH  14  15
ENDBRANCH  13  14
ENDBRANCH   2  13
TORSDOF 4
ENDMDL
MODEL 4
REMARK VINA RESULT:      -7.4      1.620      2.354
REMARK  Name = 
REMARK  6 active torsions:
REMARK  status: ('A' for Active; 'I' for Inactive)
REMARK    1  A    between atoms: C_1  and  C_2
REMARK    2  A    between atoms: C_5  and  N_6
REMARK    3  A    between atoms: C_7  and  C_9
REMARK    4  A    between atoms: C_9  and  O_10
REMARK    5  A    between atoms: O_10  and  C_11
REMARK    6  A    between atoms: C_20  and  C_21
REMARK                            x       y       z     vdW  Elec       q    Type
REMARK                         _______ _______ _______ _____ _____    ______ ____
ROOT
ATOM      1  N   UNL     1       2.486   7.004  20.023  0.00  0.00    +0.000 N 
ATOM      2  C   UNL     1       2.160   5.655  20.131  0.00  0.00    +0.000 C 
ATOM      3  O   UNL     1       1.085   5.185  20.495  0.00  0.00    +0.000 OA
ATOM      4  H   UNL     1       3.422   7.205  19.704  0.00  0.00    +0.000 HD
ENDROOT
BRANCH   1   9
ATOM      5  C   UNL     1      -0.967  11.491  21.070  0.00  0.00    +0.000 C 
ATOM      6  C   UNL     1      -0.064  10.326  20.796  0.00  0.00    +0.000 A 
ATOM      7  C   UNL     1       0.278   9.441  21.811  0.00  0.00    +0.000 A 
ATOM      8  C   UNL     1       1.119   8.356  21.551  0.00  0.00    +0.000 A 
ATOM      9  C   UNL     1       1.642   8.115  20.274  0.00  0.00    +0.000 A 
ATOM     10  C   UNL     1       1.299   9.008  19.231  0.00  0.00    +0.000 A 
ATOM     11  C   UNL     1       1.779   8.909  17.807  0.00  0.00    +0.000 C 
ATOM     12  C   UNL     1       0.448  10.103  19.515  0.00  0.00    +0.000 A 
ENDBRANCH   1   9
BRANCH   2  13
ATOM     13  C   UNL     1       3.308   4.723  19.754  0.00  0.00    +0.000 C 
BRANCH  13  14
ATOM     14  O   UNL     1       4.501   5.496  19.724  0.00  0.00    +0.000 OA
BRANCH  14  15
ATOM     15  C   UNL     1       5.386   5.245  18.711  0.00  0.00    +0.000 A 
ATOM     16  C   UNL     1       6.786   5.175  18.841  0.00  0.00    +0.000 A 
ATOM     17  C   UNL     1       7.596   4.955  17.718  0.00  0.00    +0.000 A 
ATOM     18  C   UNL     1       6.977   4.817  16.495  0.00  0.00    +0.000 A 
ATOM     19  C   UNL     1       5.611   4.871  16.367  0.00  0.00    +0.000 A 
ATOM     20  C   UNL     1       4.791   5.079  17.456  0.00  0.00    +0.000 A 
ATOM     21  O   UNL     1       5.202   4.716  15.080  0.00  0.00    +0.000 OA
ATOM     22  C   UNL     1       6.472   4.609  14.405  0.00  0.00    +0.000 C 
ATOM     23  O   UNL     1       7.603   4.625  15.303  0.00  0.00    +0.000 OA
ENDBRANCH  14  15
ENDBRANCH  13  14
ENDBRANCH   2  13
TORSDOF 4
ENDMDL
MODEL 5
REMARK VINA RESULT:      -7.3      5.886      8.166
REMARK  Name = 
REMARK  6 active torsions:
REMARK  status: ('A' for Active; 'I' for Inactive)
REMARK    1  A    between atoms: C_1  and  C_2
REMARK    2  A    between atoms: C_5  and  N_6
REMARK    3  A    between atoms: C_7  and  C_9
REMARK    4  A    between atoms: C_9  and  O_10
REMARK    5  A    between atoms: O_10  and  C_11
REMARK    6  A    between atoms: C_20  and  C_21
REMARK                            x       y       z     vdW  Elec       q    Type
REMARK                         _______ _______ _______ _____ _____    ______ ____
ROOT
ATOM      1  N   UNL     1       6.324   7.362  17.259  0.00  0.00    +0.000 N 
ATOM      2  C   UNL     1       7.520   7.440  17.966  0.00  0.00    +0.000 C 
ATOM      3  O   UNL     1       7.996   6.581  18.705  0.00  0.00    +0.000 OA
ATOM      4  H   UNL     1       6.092   8.168  16.698  0.00  0.00    +0.000 HD
ENDROOT
BRANCH   1   9
ATOM      5  C   UNL     1       2.657   2.923  17.118  0.00  0.00    +0.000 C 
ATOM      6  C   UNL     1       3.611   4.080  17.150  0.00  0.00    +0.000 A 
ATOM      7  C   UNL     1       3.365   5.179  17.964  0.00  0.00    +0.000 A 
ATOM      8  C   UNL     1       4.257   6.254  17.991  0.00  0.00    +0.000 A 
ATOM      9  C   UNL     1       5.422   6.269  17.213  0.00  0.00    +0.000 A 
ATOM     10  C   UNL     1       5.685   5.154  16.382  0.00  0.00    +0.000 A 
ATOM     11  C   UNL     1       6.877   5.008  15.473  0.00  0.00    +0.000 C 
ATOM     12  C   UNL     1       4.768   4.076  16.365  0.00  0.00    +0.000 A 
ENDBRANCH   1   9
BRANCH   2  13
ATOM     13  C   UNL     1       8.256   8.762  17.764  0.00  0.00    +0.000 C 
BRANCH  13  14
ATOM     14  O   UNL     1       8.967   9.049  18.961  0.00  0.00    +0.000 OA
BRANCH  14  15
ATOM     15  C   UNL     1       9.329  10.349  19.180  0.00  0.00    +0.000 A 
ATOM     16  C   UNL     1       9.382  10.989  20.433  0.00  0.00    +0.000 A 
ATOM     17  C   UNL     1       9.726  12.345  20.527  0.00  0.00    +0.000 A 
ATOM     18  C   UNL     1      10.004  13.022  19.360  0.00  0.00    +0.000 A 
ATOM     19  C   UNL     1       9.967  12.396  18.138  0.00  0.00    +0.000 A 
ATOM     20  C   UNL     1       9.638  11.063  18.017  0.00  0.00    +0.000 A 
ATOM     21  O   UNL     1      10.268  13.239  17.114  0.00  0.00    +0.000 OA
ATOM     22  C   UNL     1      10.450  14.479  17.829  0.00  0.00    +0.000 C 
ATOM     23  O   UNL     1      10.329  14.338  19.261  0.00  0.00    +0.000 OA
ENDBRANCH  14  15
ENDBRANCH  13  14
ENDBRANCH   2  13
TORSDOF 4
ENDMDL
MODEL 6
REMARK VINA RESULT:      -7.2      1.256      1.464
REMARK  Name = 
REMARK  6 active torsions:
REMARK  status: ('A' for Active; 'I' for Inactive)
REMARK    1  A    between atoms: C_1  and  C_2
REMARK    2  A    between atoms: C_5  and  N_6
REMARK    3  A    between atoms: C_7  and  C_9
REMARK    4  A    between atoms: C_9  and  O_10
REMARK    5  A    between atoms: O_10  and  C_11
REMARK    6  A    between atoms: C_20  and  C_21
REMARK                            x       y       z     vdW  Elec       q    Type
REMARK                         _______ _______ _______ _____ _____    ______ ____
ROOT
ATOM      1  N   UNL     1       2.823   5.831  20.161  0.00  0.00    +0.000 N 
ATOM      2  C   UNL     1       2.446   4.600  19.632  0.00  0.00    +0.000 C 
ATOM      3  O   UNL     1       1.442   4.363  18.964  0.00  0.00    +0.000 OA
ATOM      4  H   UNL     1       3.685   5.838  20.686  0.00  0.00    +0.000 HD
ENDROOT
BRANCH   1   9
ATOM      5  C   UNL     1       0.066  10.853  19.574  0.00  0.00    +0.000 C 
ATOM      6  C   UNL     1       0.788   9.547  19.727  0.00  0.00    +0.000 A 
ATOM      7  C   UNL     1       0.633   8.782  20.876  0.00  0.00    +0.000 A 
ATOM      8  C   UNL     1       1.307   7.566  21.012  0.00  0.00    +0.000 A 
ATOM      9  C   UNL     1       2.153   7.072  20.012  0.00  0.00    +0.000 A 
ATOM     10  C   UNL     1       2.318   7.842  18.836  0.00  0.00    +0.000 A 
ATOM     11  C   UNL     1       3.196   7.472  17.669  0.00  0.00    +0.000 C 
ATOM     12  C   UNL     1       1.630   9.073  18.716  0.00  0.00    +0.000 A 
ENDBRANCH   1   9
BRANCH   2  13
ATOM     13  C   UNL     1       3.419   3.474  19.969  0.00  0.00    +0.000 C 
BRANCH  13  14
ATOM     14  O   UNL     1       4.002   3.028  18.751  0.00  0.00    +0.000 OA
BRANCH  14  15
ATOM     15  C   UNL     1       4.742   3.933  18.042  0.00  0.00    +0.000 A 
ATOM     16  C   UNL     1       4.698   4.119  16.647  0.00  0.00    +0.000 A 
ATOM     17  C   UNL     1       5.541   5.051  16.024  0.00  0.00    +0.000 A 
ATOM     18  C   UNL     1       6.408   5.767  16.820  0.00  0.00    +0.000 A 
ATOM     19  C   UNL     1       6.444   5.597  18.183  0.00  0.00    +0.000 A 
ATOM     20  C   UNL     1       5.621   4.694  18.821  0.00  0.00    +0.000 A 
ATOM     21  O   UNL     1       7.368   6.394  18.781  0.00  0.00    +0.000 OA
ATOM     22  C   UNL     1       7.946   7.048  17.632  0.00  0.00    +0.000 C 
ATOM     23  O   UNL     1       7.309   6.689  16.387  0.00  0.00    +0.000 OA
ENDBRANCH  14  15
ENDBRANCH  13  14
ENDBRANCH   2  13
TORSDOF 4
ENDMDL
MODEL 7
REMARK VINA RESULT:      -7.1      2.973      6.770
REMARK  Name = 
REMARK  6 active torsions:
REMARK  status: ('A' for Active; 'I' for Inactive)
REMARK    1  A    between atoms: C_1  and  C_2
REMARK    2  A    between atoms: C_5  and  N_6
REMARK    3  A    between atoms: C_7  and  C_9
REMARK    4  A    between atoms: C_9  and  O_10
REMARK    5  A    between atoms: O_10  and  C_11
REMARK    6  A    between atoms: C_20  and  C_21
REMARK                            x       y       z     vdW  Elec       q    Type
REMARK                         _______ _______ _______ _____ _____    ______ ____
ROOT
ATOM      1  N   UNL     1       6.802   5.566  16.570  0.00  0.00    +0.000 N 
ATOM      2  C   UNL     1       7.506   5.076  17.666  0.00  0.00    +0.000 C 
ATOM      3  O   UNL     1       8.237   4.089  17.690  0.00  0.00    +0.000 OA
ATOM      4  H   UNL     1       6.250   6.394  16.736  0.00  0.00    +0.000 HD
ENDROOT
BRANCH   1   9
ATOM      5  C   UNL     1       6.828   3.528  11.183  0.00  0.00    +0.000 C 
ATOM      6  C   UNL     1       6.822   4.055  12.588  0.00  0.00    +0.000 A 
ATOM      7  C   UNL     1       7.778   4.973  13.004  0.00  0.00    +0.000 A 
ATOM      8  C   UNL     1       7.767   5.461  14.313  0.00  0.00    +0.000 A 
ATOM      9  C   UNL     1       6.806   5.054  15.248  0.00  0.00    +0.000 A 
ATOM     10  C   UNL     1       5.827   4.119  14.835  0.00  0.00    +0.000 A 
ATOM     11  C   UNL     1       4.732   3.564  15.707  0.00  0.00    +0.000 C 
ATOM     12  C   UNL     1       5.855   3.634  13.505  0.00  0.00    +0.000 A 
ENDBRANCH   1   9
BRANCH   2  13
ATOM     13  C   UNL     1       7.290   5.893  18.937  0.00  0.00    +0.000 C 
BRANCH  13  14
ATOM     14  O   UNL     1       6.445   5.141  19.797  0.00  0.00    +0.000 OA
BRANCH  14  15
ATOM     15  C   UNL     1       5.159   4.926  19.383  0.00  0.00    +0.000 A 
ATOM     16  C   UNL     1       4.250   5.919  18.971  0.00  0.00    +0.000 A 
ATOM     17  C   UNL     1       2.938   5.580  18.611  0.00  0.00    +0.000 A 
ATOM     18  C   UNL     1       2.574   4.253  18.677  0.00  0.00    +0.000 A 
ATOM     19  C   UNL     1       3.463   3.280  19.066  0.00  0.00    +0.000 A 
ATOM     20  C   UNL     1       4.760   3.585  19.419  0.00  0.00    +0.000 A 
ATOM     21  O   UNL     1       2.907   2.040  19.068  0.00  0.00    +0.000 OA
ATOM     22  C   UNL     1       1.551   2.350  18.686  0.00  0.00    +0.000 C 
ATOM     23  O   UNL     1       1.344   3.749  18.391  0.00  0.00    +0.000 OA
ENDBRANCH  14  15
ENDBRANCH  13  14
ENDBRANCH   2  13
TORSDOF 4
ENDMDL
MODEL 8
REMARK VINA RESULT:      -7.0      5.774      8.092
REMARK  Name = 
REMARK  6 active torsions:
REMARK  status: ('A' for Active; 'I' for Inactive)
REMARK    1  A    between atoms: C_1  and  C_2
REMARK    2  A    between atoms: C_5  and  N_6
REMARK    3  A    between atoms: C_7  and  C_9
REMARK    4  A    between atoms: C_9  and  O_10
REMARK    5  A    between atoms: O_10  and  C_11
REMARK    6  A    between atoms: C_20  and  C_21
REMARK                            x       y       z     vdW  Elec       q    Type
REMARK                         _______ _______ _______ _____ _____    ______ ____
ROOT
ATOM      1  N   UNL     1       6.095   6.940  17.453  0.00  0.00    +0.000 N 
ATOM      2  C   UNL     1       7.375   7.199  17.935  0.00  0.00    +0.000 C 
ATOM      3  O   UNL     1       8.074   6.447  18.609  0.00  0.00    +0.000 OA
ATOM      4  H   UNL     1       5.672   7.679  16.912  0.00  0.00    +0.000 HD
ENDROOT
BRANCH   1   9
ATOM      5  C   UNL     1       3.064   2.089  18.119  0.00  0.00    +0.000 C 
ATOM      6  C   UNL     1       3.850   3.354  17.942  0.00  0.00    +0.000 A 
ATOM      7  C   UNL     1       4.071   4.207  19.017  0.00  0.00    +0.000 A 
ATOM      8  C   UNL     1       4.805   5.383  18.847  0.00  0.00    +0.000 A 
ATOM      9  C   UNL     1       5.344   5.748  17.607  0.00  0.00    +0.000 A 
ATOM     10  C   UNL     1       5.128   4.886  16.505  0.00  0.00    +0.000 A 
ATOM     11  C   UNL     1       5.621   5.126  15.103  0.00  0.00    +0.000 C 
ATOM     12  C   UNL     1       4.379   3.700  16.695  0.00  0.00    +0.000 A 
ENDBRANCH   1   9
BRANCH   2  13
ATOM     13  C   UNL     1       7.894   8.584  17.557  0.00  0.00    +0.000 C 
BRANCH  13  14
ATOM     14  O   UNL     1       8.624   9.090  18.667  0.00  0.00    +0.000 OA
BRANCH  14  15
ATOM     15  C   UNL     1       9.023  10.397  18.613  0.00  0.00    +0.000 A 
ATOM     16  C   UNL     1       8.516  11.377  17.739  0.00  0.00    +0.000 A 
ATOM     17  C   UNL     1       9.039  12.678  17.745  0.00  0.00    +0.000 A 
ATOM     18  C   UNL     1      10.059  12.957  18.627  0.00  0.00    +0.000 A 
ATOM     19  C   UNL     1      10.547  12.007  19.491  0.00  0.00    +0.000 A 
ATOM     20  C   UNL     1      10.046  10.723  19.510  0.00  0.00    +0.000 A 
ATOM     21  O   UNL     1      11.551  12.482  20.273  0.00  0.00    +0.000 OA
ATOM     22  C   UNL     1      11.675  13.827  19.767  0.00  0.00    +0.000 C 
ATOM     23  O   UNL     1      10.699  14.151  18.753  0.00  0.00    +0.000 OA
ENDBRANCH  14  15
ENDBRANCH  13  14
ENDBRANCH   2  13
TORSDOF 4
ENDMDL
MODEL 9
REMARK VINA RESULT:      -7.0      1.557      2.709
REMARK  Name = 
REMARK  6 active torsions:
REMARK  status: ('A' for Active; 'I' for Inactive)
REMARK    1  A    between atoms: C_1  and  C_2
REMARK    2  A    between atoms: C_5  and  N_6
REMARK    3  A    between atoms: C_7  and  C_9
REMARK    4  A    between atoms: C_9  and  O_10
REMARK    5  A    between atoms: O_10  and  C_11
REMARK    6  A    between atoms: C_20  and  C_21
REMARK                            x       y       z     vdW  Elec       q    Type
REMARK                         _______ _______ _______ _____ _____    ______ ____
ROOT
ATOM      1  N   UNL     1       2.833   6.493  19.341  0.00  0.00    +0.000 N 
ATOM      2  C   UNL     1       2.535   5.309  18.674  0.00  0.00    +0.000 C 
ATOM      3  O   UNL     1       1.655   5.139  17.834  0.00  0.00    +0.000 OA
ATOM      4  H   UNL     1       3.595   6.446  20.001  0.00  0.00    +0.000 HD
ENDROOT
BRANCH   1   9
ATOM      5  C   UNL     1       0.346  11.638  18.628  0.00  0.00    +0.000 C 
ATOM      6  C   UNL     1       0.989  10.296  18.814  0.00  0.00    +0.000 A 
ATOM      7  C   UNL     1       1.790   9.750  17.818  0.00  0.00    +0.000 A 
ATOM      8  C   UNL     1       2.387   8.500  17.997  0.00  0.00    +0.000 A 
ATOM      9  C   UNL     1       2.211   7.756  19.170  0.00  0.00    +0.000 A 
ATOM     10  C   UNL     1       1.399   8.303  20.193  0.00  0.00    +0.000 A 
ATOM     11  C   UNL     1       1.091   7.638  21.508  0.00  0.00    +0.000 C 
ATOM     12  C   UNL     1       0.799   9.569  19.993  0.00  0.00    +0.000 A 
ENDBRANCH   1   9
BRANCH   2  13
ATOM     13  C   UNL     1       3.427   4.141  19.087  0.00  0.00    +0.000 C 
BRANCH  13  14
ATOM     14  O   UNL     1       4.721   4.661  19.361  0.00  0.00    +0.000 OA
BRANCH  14  15
ATOM     15  C   UNL     1       5.523   4.946  18.291  0.00  0.00    +0.000 A 
ATOM     16  C   UNL     1       6.482   5.975  18.232  0.00  0.00    +0.000 A 
ATOM     17  C   UNL     1       7.216   6.200  17.059  0.00  0.00    +0.000 A 
ATOM     18  C   UNL     1       6.963   5.389  15.975  0.00  0.00    +0.000 A 
ATOM     19  C   UNL     1       6.037   4.375  16.034  0.00  0.00    +0.000 A 
ATOM     20  C   UNL     1       5.307   4.128  17.177  0.00  0.00    +0.000 A 
ATOM     21  O   UNL     1       5.936   3.696  14.861  0.00  0.00    +0.000 OA
ATOM     22  C   UNL     1       6.867   4.431  14.041  0.00  0.00    +0.000 C 
ATOM     23  O   UNL     1       7.558   5.479  14.756  0.00  0.00    +0.000 OA
ENDBRANCH  14  15
ENDBRANCH  13  14
ENDBRANCH   2  13
TORSDOF 4
ENDMDL
