MODEL 1
REMARK VINA RESULT:      -8.5      0.000      0.000
REMARK  Name = 
REMARK  12 active torsions:
REMARK  status: ('A' for Active; 'I' for Inactive)
REMARK    1  A    between atoms: C_1  and  C_2
REMARK    2  A    between atoms: C_2  and  C_3
REMARK    3  A    between atoms: C_3  and  N_4
REMARK    4  A    between atoms: N_4  and  C_5
REMARK    5  A    between atoms: N_4  and  C_19
REMARK    6  A    between atoms: C_5  and  C_6
REMARK    7  A    between atoms: C_6  and  C_7
REMARK    8  A    between atoms: C_7  and  C_8
REMARK    9  A    between atoms: C_8  and  N_9
REMARK   10  A    between atoms: C_13  and  C_14
REMARK   11  A    between atoms: C_13  and  C_15
REMARK   12  A    between atoms: C_28  and  C_29
REMARK                            x       y       z     vdW  Elec       q    Type
REMARK                         _______ _______ _______ _____ _____    ______ ____
ROOT
ATOM      1  N   UNL     1       0.931   8.724  20.063  0.00  0.00    +0.000 NA
ENDROOT
BRANCH   1   2
ATOM      2  C   UNL     1       2.129   8.095  19.422  0.00  0.00    +0.000 C 
ATOM      3  C   UNL     1       2.279   8.327  17.912  0.00  0.00    +0.000 C 
ATOM      4  C   UNL     1       3.662   7.836  17.460  0.00  0.00    +0.000 C 
ATOM      5  C   UNL     1       3.986   6.429  17.914  0.00  0.00    +0.000 A 
ATOM      6  C   UNL     1       5.018   5.733  17.274  0.00  0.00    +0.000 A 
ATOM      7  C   UNL     1       5.370   4.438  17.659  0.00  0.00    +0.000 A 
ATOM      8  C   UNL     1       4.657   3.847  18.701  0.00  0.00    +0.000 A 
ATOM      9  N   UNL     1       4.788   2.594  19.257  0.00  0.00    +0.000 N 
ATOM     10  C   UNL     1       3.868   2.415  20.238  0.00  0.00    +0.000 A 
ATOM     11  C   UNL     1       3.115   3.563  20.362  0.00  0.00    +0.000 A 
ATOM     12  C   UNL     1       3.624   4.495  19.383  0.00  0.00    +0.000 A 
ATOM     13  C   UNL     1       3.308   5.831  19.000  0.00  0.00    +0.000 A 
ATOM     14  C   UNL     1       2.236   6.590  19.720  0.00  0.00    +0.000 C 
ATOM     15  H   UNL     1       5.468   1.911  18.957  0.00  0.00    +0.000 HD
BRANCH  11  16
ATOM     16  C   UNL     1       2.026   3.694  21.314  0.00  0.00    +0.000 C 
ATOM     17  O   UNL     1       1.952   3.055  22.362  0.00  0.00    +0.000 OA
ENDBRANCH  11  16
ENDBRANCH   1   2
BRANCH   1  18
ATOM     18  C   UNL     1       1.056   8.778  21.539  0.00  0.00    +0.000 C 
BRANCH  18  20
ATOM     19  C   UNL     1      -0.511  10.037  23.128  0.00  0.00    +0.000 C 
ATOM     20  C   UNL     1      -0.229   8.747  22.380  0.00  0.00    +0.000 C 
ENDBRANCH  18  20
ENDBRANCH   1  18
BRANCH   1  21
ATOM     21  C   UNL     1       0.674  10.071  19.490  0.00  0.00    +0.000 C 
BRANCH  21  22
ATOM     22  C   UNL     1      -0.793  10.333  19.084  0.00  0.00    +0.000 C 
BRANCH  22  23
ATOM     23  C   UNL     1      -1.453  11.445  19.891  0.00  0.00    +0.000 C 
BRANCH  23  24
ATOM     24  C   UNL     1      -2.303  12.362  19.003  0.00  0.00    +0.000 C 
BRANCH  24  25
ATOM     25  N   UNL     1      -3.706  12.147  19.279  0.00  0.00    +0.000 N 
ATOM     26  C   UNL     1      -4.463  11.546  18.289  0.00  0.00    +0.000 C 
ATOM     27  O   UNL     1      -4.092  11.419  17.123  0.00  0.00    +0.000 OA
ATOM     28  C   UNL     1      -5.765  10.949  18.754  0.00  0.00    +0.000 C 
ATOM     29  C   UNL     1      -6.521  11.834  19.746  0.00  0.00    +0.000 C 
ATOM     30  C   UNL     1      -7.621  10.989  20.405  0.00  0.00    +0.000 C 
ATOM     31  C   UNL     1      -7.160  13.030  19.022  0.00  0.00    +0.000 C 
ATOM     32  C   UNL     1      -5.572  12.319  20.841  0.00  0.00    +0.000 C 
ATOM     33  C   UNL     1      -4.284  12.884  20.304  0.00  0.00    +0.000 C 
ATOM     34  O   UNL     1      -3.792  13.898  20.794  0.00  0.00    +0.000 OA
ENDBRANCH  24  25
ENDBRANCH  23  24
ENDBRANCH  22  23
ENDBRANCH  21  22
ENDBRANCH   1  21
TORSDOF 9
ENDMDL
MODEL 2
REMARK VINA RESULT:      -8.2      1.026      1.059
REMARK  Name = 
REMARK  12 active torsions:
REMARK  status: ('A' for Active; 'I' for Inactive)
REMARK    1  A    between atoms: C_1  and  C_2
REMARK    2  A    between atoms: C_2  and  C_3
REMARK    3  A    between atoms: C_3  and  N_4
REMARK    4  A    between atoms: N_4  and  C_5
REMARK    5  A    between atoms: N_4  and  C_19
REMARK    6  A    between atoms: C_5  and  C_6
REMARK    7  A    between atoms: C_6  and  C_7
REMARK    8  A    between atoms: C_7  and  C_8
REMARK    9  A    between atoms: C_8  and  N_9
REMARK   10  A    between atoms: C_13  and  C_14
REMARK   11  A    between atoms: C_13  and  C_15
REMARK   12  A    between atoms: C_28  and  C_29
REMARK                            x       y       z     vdW  Elec       q    Type
REMARK                         _______ _______ _______ _____ _____    ______ ____
ROOT
ATOM      1  N   UNL     1       1.172   8.366  19.845  0.00  0.00    +0.000 NA
ENDROOT
BRANCH   1   2
ATOM      2  C   UNL     1       2.297   7.651  19.162  0.00  0.00    +0.000 C 
ATOM      3  C   UNL     1       2.669   8.170  17.766  0.00  0.00    +0.000 C 
ATOM      4  C   UNL     1       3.977   7.507  17.312  0.00  0.00    +0.000 C 
ATOM      5  C   UNL     1       3.970   5.998  17.439  0.00  0.00    +0.000 A 
ATOM      6  C   UNL     1       4.920   5.255  16.729  0.00  0.00    +0.000 A 
ATOM      7  C   UNL     1       4.969   3.863  16.818  0.00  0.00    +0.000 A 
ATOM      8  C   UNL     1       4.036   3.225  17.633  0.00  0.00    +0.000 A 
ATOM      9  N   UNL     1       3.858   1.882  17.882  0.00  0.00    +0.000 N 
ATOM     10  C   UNL     1       2.809   1.694  18.722  0.00  0.00    +0.000 A 
ATOM     11  C   UNL     1       2.280   2.920  19.061  0.00  0.00    +0.000 A 
ATOM     12  C   UNL     1       3.071   3.913  18.373  0.00  0.00    +0.000 A 
ATOM     13  C   UNL     1       3.064   5.336  18.298  0.00  0.00    +0.000 A 
ATOM     14  C   UNL     1       2.078   6.130  19.098  0.00  0.00    +0.000 C 
ATOM     15  H   UNL     1       4.426   1.152  17.478  0.00  0.00    +0.000 HD
BRANCH  11  16
ATOM     16  C   UNL     1       1.129   3.069  19.934  0.00  0.00    +0.000 C 
ATOM     17  O   UNL     1       1.207   3.185  21.156  0.00  0.00    +0.000 OA
ENDBRANCH  11  16
ENDBRANCH   1   2
BRANCH   1  18
ATOM     18  C   UNL     1       1.251   8.241  21.320  0.00  0.00    +0.000 C 
BRANCH  18  20
ATOM     19  C   UNL     1      -0.203   9.470  23.035  0.00  0.00    +0.000 C 
ATOM     20  C   UNL     1       1.044   9.503  22.170  0.00  0.00    +0.000 C 
ENDBRANCH  18  20
ENDBRANCH   1  18
BRANCH   1  21
ATOM     21  C   UNL     1       1.119   9.790  19.422  0.00  0.00    +0.000 C 
BRANCH  21  22
ATOM     22  C   UNL     1       0.044  10.111  18.362  0.00  0.00    +0.000 C 
BRANCH  22  23
ATOM     23  C   UNL     1      -1.315  10.451  18.963  0.00  0.00    +0.000 C 
BRANCH  23  24
ATOM     24  C   UNL     1      -1.941  11.679  18.291  0.00  0.00    +0.000 C 
BRANCH  24  25
ATOM     25  N   UNL     1      -3.339  11.773  18.649  0.00  0.00    +0.000 N 
ATOM     26  C   UNL     1      -4.267  11.457  17.672  0.00  0.00    +0.000 C 
ATOM     27  O   UNL     1      -3.997  11.354  16.476  0.00  0.00    +0.000 OA
ATOM     28  C   UNL     1      -5.648  11.140  18.182  0.00  0.00    +0.000 C 
ATOM     29  C   UNL     1      -6.119  12.084  19.289  0.00  0.00    +0.000 C 
ATOM     30  C   UNL     1      -7.354  11.462  19.958  0.00  0.00    +0.000 C 
ATOM     31  C   UNL     1      -6.491  13.456  18.705  0.00  0.00    +0.000 C 
ATOM     32  C   UNL     1      -5.027  12.233  20.348  0.00  0.00    +0.000 C 
ATOM     33  C   UNL     1      -3.672  12.528  19.766  0.00  0.00    +0.000 C 
ATOM     34  O   UNL     1      -2.928  13.351  20.295  0.00  0.00    +0.000 OA
ENDBRANCH  24  25
ENDBRANCH  23  24
ENDBRANCH  22  23
ENDBRANCH  21  22
ENDBRANCH   1  21
TORSDOF 9
ENDMDL
MODEL 3
REMARK VINA RESULT:      -8.1      1.235      1.983
REMARK  Name = 
REMARK  12 active torsions:
REMARK  status: ('A' for Active; 'I' for Inactive)
REMARK    1  A    between atoms: C_1  and  C_2
REMARK    2  A    between atoms: C_2  and  C_3
REMARK    3  A    between atoms: C_3  and  N_4
REMARK    4  A    between atoms: N_4  and  C_5
REMARK    5  A    between atoms: N_4  and  C_19
REMARK    6  A    between atoms: C_5  and  C_6
REMARK    7  A    between atoms: C_6  and  C_7
REMARK    8  A    between atoms: C_7  and  C_8
REMARK    9  A    between atoms: C_8  and  N_9
REMARK   10  A    between atoms: C_13  and  C_14
REMARK   11  A    between atoms: C_13  and  C_15
REMARK   12  A    between atoms: C_28  and  C_29
REMARK                            x       y       z     vdW  Elec       q    Type
REMARK                         _______ _______ _______ _____ _____    ______ ____
ROOT
ATOM      1  N   UNL     1       1.234   8.366  19.856  0.00  0.00    +0.000 NA
ENDROOT
BRANCH   1   2
ATOM      2  C   UNL     1       2.343   7.621  19.179  0.00  0.00    +0.000 C 
ATOM      3  C   UNL     1       2.738   8.130  17.786  0.00  0.00    +0.000 C 
ATOM      4  C   UNL     1       4.030   7.432  17.340  0.00  0.00    +0.000 C 
ATOM      5  C   UNL     1       3.980   5.923  17.466  0.00  0.00    +0.000 A 
ATOM      6  C   UNL     1       4.914   5.155  16.760  0.00  0.00    +0.000 A 
ATOM      7  C   UNL     1       4.924   3.762  16.848  0.00  0.00    +0.000 A 
ATOM      8  C   UNL     1       3.968   3.149  17.657  0.00  0.00    +0.000 A 
ATOM      9  N   UNL     1       3.752   1.812  17.903  0.00  0.00    +0.000 N 
ATOM     10  C   UNL     1       2.692   1.652  18.736  0.00  0.00    +0.000 A 
ATOM     11  C   UNL     1       2.195   2.892  19.073  0.00  0.00    +0.000 A 
ATOM     12  C   UNL     1       3.018   3.863  18.391  0.00  0.00    +0.000 A 
ATOM     13  C   UNL     1       3.051   5.286  18.318  0.00  0.00    +0.000 A 
ATOM     14  C   UNL     1       2.082   6.106  19.113  0.00  0.00    +0.000 C 
ATOM     15  H   UNL     1       4.301   1.067  17.502  0.00  0.00    +0.000 HD
BRANCH  11  16
ATOM     16  C   UNL     1       1.043   3.072  19.939  0.00  0.00    +0.000 C 
ATOM     17  O   UNL     1       1.110   3.123  21.166  0.00  0.00    +0.000 OA
ENDBRANCH  11  16
ENDBRANCH   1   2
BRANCH   1  18
ATOM     18  C   UNL     1       1.349   8.310  21.332  0.00  0.00    +0.000 C 
BRANCH  18  20
ATOM     19  C   UNL     1      -0.135   9.469  23.070  0.00  0.00    +0.000 C 
ATOM     20  C   UNL     1       1.054   9.586  22.134  0.00  0.00    +0.000 C 
ENDBRANCH  18  20
ENDBRANCH   1  18
BRANCH   1  21
ATOM     21  C   UNL     1       1.167   9.768  19.368  0.00  0.00    +0.000 C 
BRANCH  21  22
ATOM     22  C   UNL     1       0.051  10.043  18.337  0.00  0.00    +0.000 C 
BRANCH  22  23
ATOM     23  C   UNL     1      -1.275  10.441  18.973  0.00  0.00    +0.000 C 
BRANCH  23  24
ATOM     24  C   UNL     1      -1.700  11.855  18.559  0.00  0.00    +0.000 C 
BRANCH  24  25
ATOM     25  N   UNL     1      -3.139  11.912  18.424  0.00  0.00    +0.000 N 
ATOM     26  C   UNL     1      -3.868  12.286  19.539  0.00  0.00    +0.000 C 
ATOM     27  O   UNL     1      -3.407  12.321  20.680  0.00  0.00    +0.000 OA
ATOM     28  C   UNL     1      -5.271  12.755  19.259  0.00  0.00    +0.000 C 
ATOM     29  C   UNL     1      -6.002  11.900  18.222  0.00  0.00    +0.000 C 
ATOM     30  C   UNL     1      -7.255  12.664  17.767  0.00  0.00    +0.000 C 
ATOM     31  C   UNL     1      -6.419  10.552  18.833  0.00  0.00    +0.000 C 
ATOM     32  C   UNL     1      -5.108  11.680  17.003  0.00  0.00    +0.000 C 
ATOM     33  C   UNL     1      -3.717  11.232  17.360  0.00  0.00    +0.000 C 
ATOM     34  O   UNL     1      -3.152  10.358  16.706  0.00  0.00    +0.000 OA
ENDBRANCH  24  25
ENDBRANCH  23  24
ENDBRANCH  22  23
ENDBRANCH  21  22
ENDBRANCH   1  21
TORSDOF 9
ENDMDL
MODEL 4
REMARK VINA RESULT:      -7.9      3.854      9.825
REMARK  Name = 
REMARK  12 active torsions:
REMARK  status: ('A' for Active; 'I' for Inactive)
REMARK    1  A    between atoms: C_1  and  C_2
REMARK    2  A    between atoms: C_2  and  C_3
REMARK    3  A    between atoms: C_3  and  N_4
REMARK    4  A    between atoms: N_4  and  C_5
REMARK    5  A    between atoms: N_4  and  C_19
REMARK    6  A    between atoms: C_5  and  C_6
REMARK    7  A    between atoms: C_6  and  C_7
REMARK    8  A    between atoms: C_7  and  C_8
REMARK    9  A    between atoms: C_8  and  N_9
REMARK   10  A    between atoms: C_13  and  C_14
REMARK   11  A    between atoms: C_13  and  C_15
REMARK   12  A    between atoms: C_28  and  C_29
REMARK                            x       y       z     vdW  Elec       q    Type
REMARK                         _______ _______ _______ _____ _____    ______ ____
ROOT
ATOM      1  N   UNL     1       2.998   5.779  19.840  0.00  0.00    +0.000 NA
ENDROOT
BRANCH   1   2
ATOM      2  C   UNL     1       2.188   6.889  19.245  0.00  0.00    +0.000 C 
ATOM      3  C   UNL     1       2.848   7.655  18.090  0.00  0.00    +0.000 C 
ATOM      4  C   UNL     1       1.811   8.580  17.438  0.00  0.00    +0.000 C 
ATOM      5  C   UNL     1       1.070   9.454  18.427  0.00  0.00    +0.000 A 
ATOM      6  C   UNL     1       0.389  10.582  17.955  0.00  0.00    +0.000 A 
ATOM      7  C   UNL     1      -0.322  11.417  18.819  0.00  0.00    +0.000 A 
ATOM      8  C   UNL     1      -0.332  11.101  20.176  0.00  0.00    +0.000 A 
ATOM      9  N   UNL     1      -0.933  11.756  21.227  0.00  0.00    +0.000 N 
ATOM     10  C   UNL     1      -0.665  11.118  22.395  0.00  0.00    +0.000 A 
ATOM     11  C   UNL     1       0.110  10.009  22.134  0.00  0.00    +0.000 A 
ATOM     12  C   UNL     1       0.321   9.984  20.705  0.00  0.00    +0.000 A 
ATOM     13  C   UNL     1       1.008   9.123  19.800  0.00  0.00    +0.000 A 
ATOM     14  C   UNL     1       1.693   7.891  20.303  0.00  0.00    +0.000 C 
ATOM     15  H   UNL     1      -1.479  12.599  21.131  0.00  0.00    +0.000 HD
BRANCH  11  16
ATOM     16  C   UNL     1       0.588   9.117  23.174  0.00  0.00    +0.000 C 
ATOM     17  O   UNL     1       0.675   9.431  24.360  0.00  0.00    +0.000 OA
ENDBRANCH  11  16
ENDBRANCH   1   2
BRANCH   1  18
ATOM     18  C   UNL     1       2.211   4.972  20.802  0.00  0.00    +0.000 C 
BRANCH  18  20
ATOM     19  C   UNL     1       0.957   2.848  20.109  0.00  0.00    +0.000 C 
ATOM     20  C   UNL     1       0.892   4.349  20.321  0.00  0.00    +0.000 C 
ENDBRANCH  18  20
ENDBRANCH   1  18
BRANCH   1  21
ATOM     21  C   UNL     1       3.590   4.929  18.773  0.00  0.00    +0.000 C 
BRANCH  21  22
ATOM     22  C   UNL     1       5.054   4.505  19.019  0.00  0.00    +0.000 C 
BRANCH  22  23
ATOM     23  C   UNL     1       5.912   5.614  19.616  0.00  0.00    +0.000 C 
BRANCH  23  24
ATOM     24  C   UNL     1       7.065   6.003  18.683  0.00  0.00    +0.000 C 
BRANCH  24  25
ATOM     25  N   UNL     1       6.768   5.573  17.333  0.00  0.00    +0.000 N 
ATOM     26  C   UNL     1       7.439   4.459  16.860  0.00  0.00    +0.000 C 
ATOM     27  O   UNL     1       8.434   3.976  17.399  0.00  0.00    +0.000 OA
ATOM     28  C   UNL     1       6.808   3.793  15.666  0.00  0.00    +0.000 C 
ATOM     29  C   UNL     1       6.302   4.782  14.615  0.00  0.00    +0.000 C 
ATOM     30  C   UNL     1       5.385   4.023  13.643  0.00  0.00    +0.000 C 
ATOM     31  C   UNL     1       7.479   5.390  13.836  0.00  0.00    +0.000 C 
ATOM     32  C   UNL     1       5.480   5.882  15.285  0.00  0.00    +0.000 C 
ATOM     33  C   UNL     1       6.163   6.487  16.481  0.00  0.00    +0.000 C 
ATOM     34  O   UNL     1       6.128   7.701  16.677  0.00  0.00    +0.000 OA
ENDBRANCH  24  25
ENDBRANCH  23  24
ENDBRANCH  22  23
ENDBRANCH  21  22
ENDBRANCH   1  21
TORSDOF 9
ENDMDL
MODEL 5
REMARK VINA RESULT:      -7.9      1.768      2.408
REMARK  Name = 
REMARK  12 active torsions:
REMARK  status: ('A' for Active; 'I' for Inactive)
REMARK    1  A    between atoms: C_1  and  C_2
REMARK    2  A    between atoms: C_2  and  C_3
REMARK    3  A    between atoms: C_3  and  N_4
REMARK    4  A    between atoms: N_4  and  C_5
REMARK    5  A    between atoms: N_4  and  C_19
REMARK    6  A    between atoms: C_5  and  C_6
REMARK    7  A    between atoms: C_6  and  C_7
REMARK    8  A    between atoms: C_7  and  C_8
REMARK    9  A    between atoms: C_8  and  N_9
REMARK   10  A    between atoms: C_13  and  C_14
REMARK   11  A    between atoms: C_13  and  C_15
REMARK   12  A    between atoms: C_28  and  C_29
REMARK                            x       y       z     vdW  Elec       q    Type
REMARK                         _______ _______ _______ _____ _____    ______ ____
ROOT
ATOM      1  N   UNL     1       0.889   8.673  19.632  0.00  0.00    +0.000 NA
ENDROOT
BRANCH   1   2
ATOM      2  C   UNL     1       2.156   8.056  19.125  0.00  0.00    +0.000 C 
ATOM      3  C   UNL     1       2.431   8.231  17.624  0.00  0.00    +0.000 C 
ATOM      4  C   UNL     1       3.861   7.766  17.315  0.00  0.00    +0.000 C 
ATOM      5  C   UNL     1       4.183   6.389  17.855  0.00  0.00    +0.000 A 
ATOM      6  C   UNL     1       5.286   5.700  17.337  0.00  0.00    +0.000 A 
ATOM      7  C   UNL     1       5.638   4.433  17.805  0.00  0.00    +0.000 A 
ATOM      8  C   UNL     1       4.853   3.863  18.806  0.00  0.00    +0.000 A 
ATOM      9  N   UNL     1       4.969   2.638  19.424  0.00  0.00    +0.000 N 
ATOM     10  C   UNL     1       3.971   2.470  20.329  0.00  0.00    +0.000 A 
ATOM     11  C   UNL     1       3.180   3.598  20.338  0.00  0.00    +0.000 A 
ATOM     12  C   UNL     1       3.746   4.505  19.368  0.00  0.00    +0.000 A 
ATOM     13  C   UNL     1       3.429   5.815  18.903  0.00  0.00    +0.000 A 
ATOM     14  C   UNL     1       2.278   6.568  19.495  0.00  0.00    +0.000 C 
ATOM     15  H   UNL     1       5.690   1.965  19.213  0.00  0.00    +0.000 HD
BRANCH  11  16
ATOM     16  C   UNL     1       2.008   3.733  21.186  0.00  0.00    +0.000 C 
ATOM     17  O   UNL     1       0.852   3.644  20.776  0.00  0.00    +0.000 OA
ENDBRANCH  11  16
ENDBRANCH   1   2
BRANCH   1  18
ATOM     18  C   UNL     1       1.015   9.116  21.041  0.00  0.00    +0.000 C 
BRANCH  18  20
ATOM     19  C   UNL     1      -0.131   9.580  23.285  0.00  0.00    +0.000 C 
ATOM     20  C   UNL     1      -0.100   8.733  22.026  0.00  0.00    +0.000 C 
ENDBRANCH  18  20
ENDBRANCH   1  18
BRANCH   1  21
ATOM     21  C   UNL     1       0.455   9.786  18.749  0.00  0.00    +0.000 C 
BRANCH  21  22
ATOM     22  C   UNL     1       0.080  11.090  19.486  0.00  0.00    +0.000 C 
BRANCH  22  23
ATOM     23  C   UNL     1      -1.414  11.389  19.462  0.00  0.00    +0.000 C 
BRANCH  23  24
ATOM     24  C   UNL     1      -1.708  12.839  19.863  0.00  0.00    +0.000 C 
BRANCH  24  25
ATOM     25  N   UNL     1      -2.418  12.864  21.124  0.00  0.00    +0.000 N 
ATOM     26  C   UNL     1      -3.761  13.194  21.089  0.00  0.00    +0.000 C 
ATOM     27  O   UNL     1      -4.318  13.707  20.119  0.00  0.00    +0.000 OA
ATOM     28  C   UNL     1      -4.550  12.790  22.307  0.00  0.00    +0.000 C 
ATOM     29  C   UNL     1      -3.816  13.055  23.623  0.00  0.00    +0.000 C 
ATOM     30  C   UNL     1      -4.544  12.296  24.742  0.00  0.00    +0.000 C 
ATOM     31  C   UNL     1      -3.813  14.559  23.944  0.00  0.00    +0.000 C 
ATOM     32  C   UNL     1      -2.385  12.525  23.539  0.00  0.00    +0.000 C 
ATOM     33  C   UNL     1      -1.666  12.952  22.288  0.00  0.00    +0.000 C 
ATOM     34  O   UNL     1      -0.489  13.302  22.330  0.00  0.00    +0.000 OA
ENDBRANCH  24  25
ENDBRANCH  23  24
ENDBRANCH  22  23
ENDBRANCH  21  22
ENDBRANCH   1  21
TORSDOF 9
ENDMDL
MODEL 6
REMARK VINA RESULT:      -7.8      2.711      3.519
REMARK  Name = 
REMARK  12 active torsions:
REMARK  status: ('A' for Active; 'I' for Inactive)
REMARK    1  A    between atoms: C_1  and  C_2
REMARK    2  A    between atoms: C_2  and  C_3
REMARK    3  A    between atoms: C_3  and  N_4
REMARK    4  A    between atoms: N_4  and  C_5
REMARK    5  A    between atoms: N_4  and  C_19
REMARK    6  A    between atoms: C_5  and  C_6
REMARK    7  A    between atoms: C_6  and  C_7
REMARK    8  A    between atoms: C_7  and  C_8
REMARK    9  A    between atoms: C_8  and  N_9
REMARK   10  A    between atoms: C_13  and  C_14
REMARK   11  A    between atoms: C_13  and  C_15
REMARK   12  A    between atoms: C_28  and  C_29
REMARK                            x       y       z     vdW  Elec       q    Type
REMARK                         _______ _______ _______ _____ _____    ______ ____
ROOT
ATOM      1  N   UNL     1       0.883   8.646  20.048  0.00  0.00    +0.000 NA
ENDROOT
BRANCH   1   2
ATOM      2  C   UNL     1       2.086   8.023  19.410  0.00  0.00    +0.000 C 
ATOM      3  C   UNL     1       2.224   8.231  17.895  0.00  0.00    +0.000 C 
ATOM      4  C   UNL     1       3.611   7.752  17.444  0.00  0.00    +0.000 C 
ATOM      5  C   UNL     1       3.957   6.357  17.920  0.00  0.00    +0.000 A 
ATOM      6  C   UNL     1       4.995   5.664  17.285  0.00  0.00    +0.000 A 
ATOM      7  C   UNL     1       5.367   4.380  17.690  0.00  0.00    +0.000 A 
ATOM      8  C   UNL     1       4.667   3.798  18.745  0.00  0.00    +0.000 A 
ATOM      9  N   UNL     1       4.819   2.556  19.321  0.00  0.00    +0.000 N 
ATOM     10  C   UNL     1       3.906   2.381  20.310  0.00  0.00    +0.000 A 
ATOM     11  C   UNL     1       3.139   3.520  20.420  0.00  0.00    +0.000 A 
ATOM     12  C   UNL     1       3.629   4.443  19.422  0.00  0.00    +0.000 A 
ATOM     13  C   UNL     1       3.293   5.768  19.019  0.00  0.00    +0.000 A 
ATOM     14  C   UNL     1       2.215   6.524  19.733  0.00  0.00    +0.000 C 
ATOM     15  H   UNL     1       5.506   1.878  19.029  0.00  0.00    +0.000 HD
BRANCH  11  16
ATOM     16  C   UNL     1       2.053   3.653  21.375  0.00  0.00    +0.000 C 
ATOM     17  O   UNL     1       1.831   2.844  22.275  0.00  0.00    +0.000 OA
ENDBRANCH  11  16
ENDBRANCH   1   2
BRANCH   1  18
ATOM     18  C   UNL     1       0.958   8.609  21.527  0.00  0.00    +0.000 C 
BRANCH  18  20
ATOM     19  C   UNL     1      -0.442  10.104  23.067  0.00  0.00    +0.000 C 
ATOM     20  C   UNL     1      -0.343   8.783  22.327  0.00  0.00    +0.000 C 
ENDBRANCH  18  20
ENDBRANCH   1  18
BRANCH   1  21
ATOM     21  C   UNL     1       0.681  10.031  19.548  0.00  0.00    +0.000 C 
BRANCH  21  22
ATOM     22  C   UNL     1      -0.732  10.321  18.996  0.00  0.00    +0.000 C 
BRANCH  22  23
ATOM     23  C   UNL     1      -1.085  11.803  18.990  0.00  0.00    +0.000 C 
BRANCH  23  24
ATOM     24  C   UNL     1      -0.153  12.613  19.899  0.00  0.00    +0.000 C 
BRANCH  24  25
ATOM     25  N   UNL     1      -0.484  14.018  19.812  0.00  0.00    +0.000 N 
ATOM     26  C   UNL     1       0.314  14.809  19.004  0.00  0.00    +0.000 C 
ATOM     27  O   UNL     1       1.411  14.460  18.570  0.00  0.00    +0.000 OA
ATOM     28  C   UNL     1      -0.297  16.123  18.593  0.00  0.00    +0.000 C 
ATOM     29  C   UNL     1      -1.033  16.834  19.730  0.00  0.00    +0.000 C 
ATOM     30  C   UNL     1      -1.893  17.952  19.121  0.00  0.00    +0.000 C 
ATOM     31  C   UNL     1      -0.030  17.444  20.722  0.00  0.00    +0.000 C 
ATOM     32  C   UNL     1      -1.961  15.853  20.445  0.00  0.00    +0.000 C 
ATOM     33  C   UNL     1      -1.289  14.556  20.807  0.00  0.00    +0.000 C 
ATOM     34  O   UNL     1      -1.499  14.024  21.895  0.00  0.00    +0.000 OA
ENDBRANCH  24  25
ENDBRANCH  23  24
ENDBRANCH  22  23
ENDBRANCH  21  22
ENDBRANCH   1  21
TORSDOF 9
ENDMDL
MODEL 7
REMARK VINA RESULT:      -7.8      1.913      2.393
REMARK  Name = 
REMARK  12 active torsions:
REMARK  status: ('A' for Active; 'I' for Inactive)
REMARK    1  A    between atoms: C_1  and  C_2
REMARK    2  A    between atoms: C_2  and  C_3
REMARK    3  A    between atoms: C_3  and  N_4
REMARK    4  A    between atoms: N_4  and  C_5
REMARK    5  A    between atoms: N_4  and  C_19
REMARK    6  A    between atoms: C_5  and  C_6
REMARK    7  A    between atoms: C_6  and  C_7
REMARK    8  A    between atoms: C_7  and  C_8
REMARK    9  A    between atoms: C_8  and  N_9
REMARK   10  A    between atoms: C_13  and  C_14
REMARK   11  A    between atoms: C_13  and  C_15
REMARK   12  A    between atoms: C_28  and  C_29
REMARK                            x       y       z     vdW  Elec       q    Type
REMARK                         _______ _______ _______ _____ _____    ______ ____
ROOT
ATOM      1  N   UNL     1       0.816   8.730  20.022  0.00  0.00    +0.000 NA
ENDROOT
BRANCH   1   2
ATOM      2  C   UNL     1       2.027   8.145  19.364  0.00  0.00    +0.000 C 
ATOM      3  C   UNL     1       2.153   8.392  17.854  0.00  0.00    +0.000 C 
ATOM      4  C   UNL     1       3.546   7.951  17.383  0.00  0.00    +0.000 C 
ATOM      5  C   UNL     1       3.921   6.552  17.823  0.00  0.00    +0.000 A 
ATOM      6  C   UNL     1       4.969   5.895  17.167  0.00  0.00    +0.000 A 
ATOM      7  C   UNL     1       5.367   4.609  17.538  0.00  0.00    +0.000 A 
ATOM      8  C   UNL     1       4.686   3.988  18.583  0.00  0.00    +0.000 A 
ATOM      9  N   UNL     1       4.864   2.736  19.128  0.00  0.00    +0.000 N 
ATOM     10  C   UNL     1       3.961   2.520  20.118  0.00  0.00    +0.000 A 
ATOM     11  C   UNL     1       3.172   3.641  20.259  0.00  0.00    +0.000 A 
ATOM     12  C   UNL     1       3.639   4.596  19.281  0.00  0.00    +0.000 A 
ATOM     13  C   UNL     1       3.275   5.924  18.912  0.00  0.00    +0.000 A 
ATOM     14  C   UNL     1       2.187   6.642  19.649  0.00  0.00    +0.000 C 
ATOM     15  H   UNL     1       5.562   2.078  18.816  0.00  0.00    +0.000 HD
BRANCH  11  16
ATOM     16  C   UNL     1       2.090   3.729  21.223  0.00  0.00    +0.000 C 
ATOM     17  O   UNL     1       2.141   3.251  22.355  0.00  0.00    +0.000 OA
ENDBRANCH  11  16
ENDBRANCH   1   2
BRANCH   1  18
ATOM     18  C   UNL     1       1.036   8.978  21.467  0.00  0.00    +0.000 C 
BRANCH  18  20
ATOM     19  C   UNL     1      -0.580  10.184  23.047  0.00  0.00    +0.000 C 
ATOM     20  C   UNL     1      -0.166   8.867  22.416  0.00  0.00    +0.000 C 
ENDBRANCH  18  20
ENDBRANCH   1  18
BRANCH   1  21
ATOM     21  C   UNL     1       0.378   9.963  19.319  0.00  0.00    +0.000 C 
BRANCH  21  22
ATOM     22  C   UNL     1       0.988  11.272  19.865  0.00  0.00    +0.000 C 
BRANCH  22  23
ATOM     23  C   UNL     1       0.999  12.405  18.846  0.00  0.00    +0.000 C 
BRANCH  23  24
ATOM     24  C   UNL     1      -0.421  12.800  18.423  0.00  0.00    +0.000 C 
BRANCH  24  25
ATOM     25  N   UNL     1      -1.185  13.199  19.585  0.00  0.00    +0.000 N 
ATOM     26  C   UNL     1      -2.355  12.507  19.843  0.00  0.00    +0.000 C 
ATOM     27  O   UNL     1      -2.910  11.768  19.030  0.00  0.00    +0.000 OA
ATOM     28  C   UNL     1      -2.876  12.636  21.250  0.00  0.00    +0.000 C 
ATOM     29  C   UNL     1      -2.790  14.059  21.803  0.00  0.00    +0.000 C 
ATOM     30  C   UNL     1      -3.009  13.999  23.322  0.00  0.00    +0.000 C 
ATOM     31  C   UNL     1      -3.869  14.950  21.166  0.00  0.00    +0.000 C 
ATOM     32  C   UNL     1      -1.399  14.637  21.543  0.00  0.00    +0.000 C 
ATOM     33  C   UNL     1      -0.936  14.454  20.123  0.00  0.00    +0.000 C 
ATOM     34  O   UNL     1      -0.346  15.358  19.535  0.00  0.00    +0.000 OA
ENDBRANCH  24  25
ENDBRANCH  23  24
ENDBRANCH  22  23
ENDBRANCH  21  22
ENDBRANCH   1  21
TORSDOF 9
ENDMDL
MODEL 8
REMARK VINA RESULT:      -7.7      3.375      4.640
REMARK  Name = 
REMARK  12 active torsions:
REMARK  status: ('A' for Active; 'I' for Inactive)
REMARK    1  A    between atoms: C_1  and  C_2
REMARK    2  A    between atoms: C_2  and  C_3
REMARK    3  A    between atoms: C_3  and  N_4
REMARK    4  A    between atoms: N_4  and  C_5
REMARK    5  A    between atoms: N_4  and  C_19
REMARK    6  A    between atoms: C_5  and  C_6
REMARK    7  A    between atoms: C_6  and  C_7
REMARK    8  A    between atoms: C_7  and  C_8
REMARK    9  A    between atoms: C_8  and  N_9
REMARK   10  A    between atoms: C_13  and  C_14
REMARK   11  A    between atoms: C_13  and  C_15
REMARK   12  A    between atoms: C_28  and  C_29
REMARK                            x       y       z     vdW  Elec       q    Type
REMARK                         _______ _______ _______ _____ _____    ______ ____
ROOT
ATOM      1  N   UNL     1       1.155   8.341  19.938  0.00  0.00    +0.000 NA
ENDROOT
BRANCH   1   2
ATOM      2  C   UNL     1       2.269   7.642  19.222  0.00  0.00    +0.000 C 
ATOM      3  C   UNL     1       2.597   8.168  17.818  0.00  0.00    +0.000 C 
ATOM      4  C   UNL     1       3.900   7.522  17.327  0.00  0.00    +0.000 C 
ATOM      5  C   UNL     1       3.915   6.013  17.451  0.00  0.00    +0.000 A 
ATOM      6  C   UNL     1       4.854   5.283  16.713  0.00  0.00    +0.000 A 
ATOM      7  C   UNL     1       4.922   3.891  16.797  0.00  0.00    +0.000 A 
ATOM      8  C   UNL     1       4.020   3.240  17.635  0.00  0.00    +0.000 A 
ATOM      9  N   UNL     1       3.865   1.895  17.885  0.00  0.00    +0.000 N 
ATOM     10  C   UNL     1       2.841   1.692  18.753  0.00  0.00    +0.000 A 
ATOM     11  C   UNL     1       2.306   2.911  19.110  0.00  0.00    +0.000 A 
ATOM     12  C   UNL     1       3.067   3.915  18.403  0.00  0.00    +0.000 A 
ATOM     13  C   UNL     1       3.040   5.338  18.332  0.00  0.00    +0.000 A 
ATOM     14  C   UNL     1       2.067   6.118  19.161  0.00  0.00    +0.000 C 
ATOM     15  H   UNL     1       4.430   1.173  17.464  0.00  0.00    +0.000 HD
BRANCH  11  16
ATOM     16  C   UNL     1       1.178   3.044  20.014  0.00  0.00    +0.000 C 
ATOM     17  O   UNL     1       1.288   3.191  21.230  0.00  0.00    +0.000 OA
ENDBRANCH  11  16
ENDBRANCH   1   2
BRANCH   1  18
ATOM     18  C   UNL     1       1.151   8.037  21.388  0.00  0.00    +0.000 C 
BRANCH  18  20
ATOM     19  C   UNL     1      -0.033   9.494  23.132  0.00  0.00    +0.000 C 
ATOM     20  C   UNL     1       1.252   9.208  22.377  0.00  0.00    +0.000 C 
ENDBRANCH  18  20
ENDBRANCH   1  18
BRANCH   1  21
ATOM     21  C   UNL     1       1.207   9.805  19.688  0.00  0.00    +0.000 C 
BRANCH  21  22
ATOM     22  C   UNL     1      -0.151  10.452  19.338  0.00  0.00    +0.000 C 
BRANCH  22  23
ATOM     23  C   UNL     1      -0.313  11.859  19.898  0.00  0.00    +0.000 C 
BRANCH  23  24
ATOM     24  C   UNL     1       0.953  12.329  20.625  0.00  0.00    +0.000 C 
BRANCH  24  25
ATOM     25  N   UNL     1       1.246  13.698  20.261  0.00  0.00    +0.000 N 
ATOM     26  C   UNL     1       2.041  13.903  19.147  0.00  0.00    +0.000 C 
ATOM     27  O   UNL     1       2.712  13.021  18.611  0.00  0.00    +0.000 OA
ATOM     28  C   UNL     1       1.964  15.283  18.551  0.00  0.00    +0.000 C 
ATOM     29  C   UNL     1       1.957  16.398  19.597  0.00  0.00    +0.000 C 
ATOM     30  C   UNL     1       1.525  17.702  18.909  0.00  0.00    +0.000 C 
ATOM     31  C   UNL     1       3.360  16.579  20.200  0.00  0.00    +0.000 C 
ATOM     32  C   UNL     1       0.942  16.079  20.695  0.00  0.00    +0.000 C 
ATOM     33  C   UNL     1       1.066  14.678  21.228  0.00  0.00    +0.000 C 
ATOM     34  O   UNL     1       0.965  14.455  22.433  0.00  0.00    +0.000 OA
ENDBRANCH  24  25
ENDBRANCH  23  24
ENDBRANCH  22  23
ENDBRANCH  21  22
ENDBRANCH   1  21
TORSDOF 9
ENDMDL
MODEL 9
REMARK VINA RESULT:      -7.6      3.175      4.426
REMARK  Name = 
REMARK  12 active torsions:
REMARK  status: ('A' for Active; 'I' for Inactive)
REMARK    1  A    between atoms: C_1  and  C_2
REMARK    2  A    between atoms: C_2  and  C_3
REMARK    3  A    between atoms: C_3  and  N_4
REMARK    4  A    between atoms: N_4  and  C_5
REMARK    5  A    between atoms: N_4  and  C_19
REMARK    6  A    between atoms: C_5  and  C_6
REMARK    7  A    between atoms: C_6  and  C_7
REMARK    8  A    between atoms: C_7  and  C_8
REMARK    9  A    between atoms: C_8  and  N_9
REMARK   10  A    between atoms: C_13  and  C_14
REMARK   11  A    between atoms: C_13  and  C_15
REMARK   12  A    between atoms: C_28  and  C_29
REMARK                            x       y       z     vdW  Elec       q    Type
REMARK                         _______ _______ _______ _____ _____    ______ ____
ROOT
ATOM      1  N   UNL     1       0.981   8.606  19.543  0.00  0.00    +0.000 NA
ENDROOT
BRANCH   1   2
ATOM      2  C   UNL     1       2.250   7.954  19.085  0.00  0.00    +0.000 C 
ATOM      3  C   UNL     1       2.562   8.078  17.587  0.00  0.00    +0.000 C 
ATOM      4  C   UNL     1       3.991   7.583  17.326  0.00  0.00    +0.000 C 
ATOM      5  C   UNL     1       4.280   6.219  17.916  0.00  0.00    +0.000 A 
ATOM      6  C   UNL     1       5.383   5.498  17.446  0.00  0.00    +0.000 A 
ATOM      7  C   UNL     1       5.705   4.241  17.962  0.00  0.00    +0.000 A 
ATOM      8  C   UNL     1       4.889   3.714  18.962  0.00  0.00    +0.000 A 
ATOM      9  N   UNL     1       4.972   2.509  19.620  0.00  0.00    +0.000 N 
ATOM     10  C   UNL     1       3.951   2.384  20.506  0.00  0.00    +0.000 A 
ATOM     11  C   UNL     1       3.177   3.523  20.462  0.00  0.00    +0.000 A 
ATOM     12  C   UNL     1       3.780   4.390  19.477  0.00  0.00    +0.000 A 
ATOM     13  C   UNL     1       3.493   5.689  18.963  0.00  0.00    +0.000 A 
ATOM     14  C   UNL     1       2.340   6.477  19.504  0.00  0.00    +0.000 C 
ATOM     15  H   UNL     1       5.688   1.819  19.448  0.00  0.00    +0.000 HD
BRANCH  11  16
ATOM     16  C   UNL     1       1.988   3.702  21.277  0.00  0.00    +0.000 C 
ATOM     17  O   UNL     1       1.539   2.840  22.030  0.00  0.00    +0.000 OA
ENDBRANCH  11  16
ENDBRANCH   1   2
BRANCH   1  18
ATOM     18  C   UNL     1       1.056   9.029  20.961  0.00  0.00    +0.000 C 
BRANCH  18  20
ATOM     19  C   UNL     1      -0.159   9.642  23.132  0.00  0.00    +0.000 C 
ATOM     20  C   UNL     1      -0.186   8.839  21.844  0.00  0.00    +0.000 C 
ENDBRANCH  18  20
ENDBRANCH   1  18
BRANCH   1  21
ATOM     21  C   UNL     1       0.622   9.741  18.654  0.00  0.00    +0.000 C 
BRANCH  21  22
ATOM     22  C   UNL     1       1.046  11.131  19.176  0.00  0.00    +0.000 C 
BRANCH  22  23
ATOM     23  C   UNL     1      -0.121  12.095  19.346  0.00  0.00    +0.000 C 
BRANCH  23  24
ATOM     24  C   UNL     1       0.169  13.155  20.415  0.00  0.00    +0.000 C 
BRANCH  24  25
ATOM     25  N   UNL     1       0.509  14.410  19.781  0.00  0.00    +0.000 N 
ATOM     26  C   UNL     1       1.853  14.715  19.660  0.00  0.00    +0.000 C 
ATOM     27  O   UNL     1       2.748  14.131  20.270  0.00  0.00    +0.000 OA
ATOM     28  C   UNL     1       2.179  15.771  18.636  0.00  0.00    +0.000 C 
ATOM     29  C   UNL     1       1.210  16.953  18.652  0.00  0.00    +0.000 C 
ATOM     30  C   UNL     1       1.422  17.767  17.366  0.00  0.00    +0.000 C 
ATOM     31  C   UNL     1       1.474  17.849  19.873  0.00  0.00    +0.000 C 
ATOM     32  C   UNL     1      -0.232  16.447  18.664  0.00  0.00    +0.000 C 
ATOM     33  C   UNL     1      -0.479  15.382  19.697  0.00  0.00    +0.000 C 
ATOM     34  O   UNL     1      -1.511  15.383  20.365  0.00  0.00    +0.000 OA
ENDBRANCH  24  25
ENDBRANCH  23  24
ENDBRANCH  22  23
ENDBRANCH  21  22
ENDBRANCH   1  21
TORSDOF 9
ENDMDL
