MODEL 1
REMARK VINA RESULT:      -7.3      0.000      0.000
REMARK  Name = 
REMARK  6 active torsions:
REMARK  status: ('A' for Active; 'I' for Inactive)
REMARK    1  A    between atoms: C_2  and  C_14
REMARK    2  A    between atoms: N_3  and  C_4
REMARK    3  A    between atoms: C_4  and  C_5
REMARK    4  A    between atoms: C_5  and  C_6
REMARK    5  A    between atoms: C_6  and  O_7
REMARK    6  A    between atoms: O_7  and  C_8
REMARK                            x       y       z     vdW  Elec       q    Type
REMARK                         _______ _______ _______ _____ _____    ______ ____
ROOT
ATOM      1  O   UNL     1       3.586   5.286  17.369  0.00  0.00    +0.000 OA
ATOM      2  C   UNL     1       4.122   6.392  17.389  0.00  0.00    +0.000 C 
ATOM      3  N   UNL     1       3.458   7.510  17.875  0.00  0.00    +0.000 N 
ATOM      4  H   UNL     1       4.025   8.336  18.062  0.00  0.00    +0.000 HD
ENDROOT
BRANCH   2   5
ATOM      5  C   UNL     1       5.530   6.691  16.811  0.00  0.00    +0.000 C 
ATOM      6  N   UNL     1       5.591   6.490  15.319  0.00  0.00    +0.000 NA
ATOM      7  C   UNL     1       5.650   5.052  14.955  0.00  0.00    +0.000 C 
ATOM      8  C   UNL     1       6.944   4.344  15.448  0.00  0.00    +0.000 C 
ATOM      9  C   UNL     1       7.210   4.783  16.837  0.00  0.00    +0.000 A 
ATOM     10  N   UNL     1       8.098   4.285  17.742  0.00  0.00    +0.000 N 
ATOM     11  C   UNL     1       7.981   5.057  18.870  0.00  0.00    +0.000 A 
ATOM     12  N   UNL     1       7.073   6.003  18.733  0.00  0.00    +0.000 NA
ATOM     13  C   UNL     1       6.586   5.842  17.460  0.00  0.00    +0.000 A 
ATOM     14  H   UNL     1       6.449   6.933  15.000  0.00  0.00    +0.000 HD
ATOM     15  H   UNL     1       8.729   3.504  17.614  0.00  0.00    +0.000 HD
ENDBRANCH   2   5
BRANCH   3  16
ATOM     16  C   UNL     1       2.116   7.427  18.420  0.00  0.00    +0.000 C 
BRANCH  16  17
ATOM     17  C   UNL     1       2.108   7.546  19.940  0.00  0.00    +0.000 C 
BRANCH  17  18
ATOM     18  C   UNL     1       1.568   6.286  20.615  0.00  0.00    +0.000 C 
BRANCH  18  19
ATOM     19  O   UNL     1       2.509   5.215  20.536  0.00  0.00    +0.000 OA
BRANCH  19  20
ATOM     20  C   UNL     1       2.006   3.968  21.040  0.00  0.00    +0.000 C 
ATOM     21  C   UNL     1       0.772   3.569  20.219  0.00  0.00    +0.000 C 
ATOM     22  C   UNL     1       1.124   3.203  18.776  0.00  0.00    +0.000 C 
ATOM     23  C   UNL     1       2.200   2.123  18.706  0.00  0.00    +0.000 C 
ATOM     24  C   UNL     1       3.423   2.465  19.552  0.00  0.00    +0.000 C 
ATOM     25  C   UNL     1       3.044   2.838  20.985  0.00  0.00    +0.000 C 
ENDBRANCH  19  20
ENDBRANCH  18  19
ENDBRANCH  17  18
ENDBRANCH  16  17
ENDBRANCH   3  16
TORSDOF 6
ENDMDL
MODEL 2
REMARK VINA RESULT:      -7.2      1.269      2.185
REMARK  Name = 
REMARK  6 active torsions:
REMARK  status: ('A' for Active; 'I' for Inactive)
REMARK    1  A    between atoms: C_2  and  C_14
REMARK    2  A    between atoms: N_3  and  C_4
REMARK    3  A    between atoms: C_4  and  C_5
REMARK    4  A    between atoms: C_5  and  C_6
REMARK    5  A    between atoms: C_6  and  O_7
REMARK    6  A    between atoms: O_7  and  C_8
REMARK                            x       y       z     vdW  Elec       q    Type
REMARK                         _______ _______ _______ _____ _____    ______ ____
ROOT
ATOM      1  O   UNL     1       4.562   7.108  16.966  0.00  0.00    +0.000 OA
ATOM      2  C   UNL     1       4.087   6.034  17.327  0.00  0.00    +0.000 C 
ATOM      3  N   UNL     1       2.916   5.973  18.069  0.00  0.00    +0.000 N 
ATOM      4  H   UNL     1       2.468   5.061  18.147  0.00  0.00    +0.000 HD
ENDROOT
BRANCH   2   5
ATOM      5  C   UNL     1       4.758   4.657  17.084  0.00  0.00    +0.000 C 
ATOM      6  N   UNL     1       5.402   4.107  18.331  0.00  0.00    +0.000 NA
ATOM      7  C   UNL     1       6.691   4.780  18.632  0.00  0.00    +0.000 C 
ATOM      8  C   UNL     1       7.780   4.539  17.549  0.00  0.00    +0.000 C 
ATOM      9  C   UNL     1       7.147   4.681  16.217  0.00  0.00    +0.000 A 
ATOM     10  N   UNL     1       7.733   4.761  14.990  0.00  0.00    +0.000 N 
ATOM     11  C   UNL     1       6.714   4.851  14.076  0.00  0.00    +0.000 A 
ATOM     12  N   UNL     1       5.528   4.838  14.651  0.00  0.00    +0.000 NA
ATOM     13  C   UNL     1       5.789   4.728  15.994  0.00  0.00    +0.000 A 
ATOM     14  H   UNL     1       5.593   3.124  18.150  0.00  0.00    +0.000 HD
ATOM     15  H   UNL     1       8.724   4.751  14.783  0.00  0.00    +0.000 HD
ENDBRANCH   2   5
BRANCH   3  16
ATOM     16  C   UNL     1       2.171   7.167  18.425  0.00  0.00    +0.000 C 
BRANCH  16  17
ATOM     17  C   UNL     1       2.163   7.406  19.931  0.00  0.00    +0.000 C 
BRANCH  17  18
ATOM     18  C   UNL     1       1.510   6.256  20.696  0.00  0.00    +0.000 C 
BRANCH  18  19
ATOM     19  O   UNL     1       2.377   5.124  20.764  0.00  0.00    +0.000 OA
BRANCH  19  20
ATOM     20  C   UNL     1       1.717   3.916  21.173  0.00  0.00    +0.000 C 
ATOM     21  C   UNL     1       0.666   3.550  20.116  0.00  0.00    +0.000 C 
ATOM     22  C   UNL     1       1.296   3.127  18.788  0.00  0.00    +0.000 C 
ATOM     23  C   UNL     1       2.306   1.998  18.968  0.00  0.00    +0.000 C 
ATOM     24  C   UNL     1       3.339   2.309  20.049  0.00  0.00    +0.000 C 
ATOM     25  C   UNL     1       2.685   2.740  21.361  0.00  0.00    +0.000 C 
ENDBRANCH  19  20
ENDBRANCH  18  19
ENDBRANCH  17  18
ENDBRANCH  16  17
ENDBRANCH   3  16
TORSDOF 6
ENDMDL
MODEL 3
REMARK VINA RESULT:      -7.1      2.708      6.382
REMARK  Name = 
REMARK  6 active torsions:
REMARK  status: ('A' for Active; 'I' for Inactive)
REMARK    1  A    between atoms: C_2  and  C_14
REMARK    2  A    between atoms: N_3  and  C_4
REMARK    3  A    between atoms: C_4  and  C_5
REMARK    4  A    between atoms: C_5  and  C_6
REMARK    5  A    between atoms: C_6  and  O_7
REMARK    6  A    between atoms: O_7  and  C_8
REMARK                            x       y       z     vdW  Elec       q    Type
REMARK                         _______ _______ _______ _____ _____    ______ ____
ROOT
ATOM      1  O   UNL     1       4.920   5.034  19.961  0.00  0.00    +0.000 OA
ATOM      2  C   UNL     1       5.081   4.157  19.116  0.00  0.00    +0.000 C 
ATOM      3  N   UNL     1       6.137   4.203  18.216  0.00  0.00    +0.000 N 
ATOM      4  H   UNL     1       6.334   3.349  17.695  0.00  0.00    +0.000 HD
ENDROOT
BRANCH   2   5
ATOM      5  C   UNL     1       4.107   2.970  18.894  0.00  0.00    +0.000 C 
ATOM      6  N   UNL     1       3.568   2.928  17.487  0.00  0.00    +0.000 NA
ATOM      7  C   UNL     1       2.513   3.949  17.268  0.00  0.00    +0.000 C 
ATOM      8  C   UNL     1       1.240   3.714  18.129  0.00  0.00    +0.000 C 
ATOM      9  C   UNL     1       1.669   3.356  19.500  0.00  0.00    +0.000 A 
ATOM     10  N   UNL     1       0.927   3.263  20.639  0.00  0.00    +0.000 N 
ATOM     11  C   UNL     1       1.784   2.867  21.634  0.00  0.00    +0.000 A 
ATOM     12  N   UNL     1       3.018   2.711  21.194  0.00  0.00    +0.000 NA
ATOM     13  C   UNL     1       2.955   3.012  19.856  0.00  0.00    +0.000 A 
ATOM     14  H   UNL     1       3.150   2.009  17.363  0.00  0.00    +0.000 HD
ATOM     15  H   UNL     1      -0.064   3.443  20.739  0.00  0.00    +0.000 HD
ENDBRANCH   2   5
BRANCH   3  16
ATOM     16  C   UNL     1       7.126   5.264  18.248  0.00  0.00    +0.000 C 
BRANCH  16  17
ATOM     17  C   UNL     1       6.801   6.378  17.259  0.00  0.00    +0.000 C 
BRANCH  17  18
ATOM     18  C   UNL     1       5.631   6.016  16.345  0.00  0.00    +0.000 C 
BRANCH  18  19
ATOM     19  O   UNL     1       6.063   5.857  14.994  0.00  0.00    +0.000 OA
BRANCH  19  20
ATOM     20  C   UNL     1       7.042   4.821  14.819  0.00  0.00    +0.000 C 
ATOM     21  C   UNL     1       6.319   3.523  14.433  0.00  0.00    +0.000 C 
ATOM     22  C   UNL     1       5.692   3.596  13.040  0.00  0.00    +0.000 C 
ATOM     23  C   UNL     1       6.709   3.993  11.975  0.00  0.00    +0.000 C 
ATOM     24  C   UNL     1       7.483   5.254  12.350  0.00  0.00    +0.000 C 
ATOM     25  C   UNL     1       8.089   5.160  13.750  0.00  0.00    +0.000 C 
ENDBRANCH  19  20
ENDBRANCH  18  19
ENDBRANCH  17  18
ENDBRANCH  16  17
ENDBRANCH   3  16
TORSDOF 6
ENDMDL
MODEL 4
REMARK VINA RESULT:      -7.0      4.996      8.087
REMARK  Name = 
REMARK  6 active torsions:
REMARK  status: ('A' for Active; 'I' for Inactive)
REMARK    1  A    between atoms: C_2  and  C_14
REMARK    2  A    between atoms: N_3  and  C_4
REMARK    3  A    between atoms: C_4  and  C_5
REMARK    4  A    between atoms: C_5  and  C_6
REMARK    5  A    between atoms: C_6  and  O_7
REMARK    6  A    between atoms: O_7  and  C_8
REMARK                            x       y       z     vdW  Elec       q    Type
REMARK                         _______ _______ _______ _____ _____    ______ ____
ROOT
ATOM      1  O   UNL     1       6.737   5.368  19.870  0.00  0.00    +0.000 OA
ATOM      2  C   UNL     1       6.401   5.527  18.699  0.00  0.00    +0.000 C 
ATOM      3  N   UNL     1       7.026   6.464  17.887  0.00  0.00    +0.000 N 
ATOM      4  H   UNL     1       6.851   6.394  16.886  0.00  0.00    +0.000 HD
ENDROOT
BRANCH   2   5
ATOM      5  C   UNL     1       5.216   4.790  18.022  0.00  0.00    +0.000 C 
ATOM      6  N   UNL     1       4.272   5.739  17.330  0.00  0.00    +0.000 NA
ATOM      7  C   UNL     1       3.394   6.448  18.295  0.00  0.00    +0.000 C 
ATOM      8  C   UNL     1       2.427   5.502  19.060  0.00  0.00    +0.000 C 
ATOM      9  C   UNL     1       3.189   4.301  19.475  0.00  0.00    +0.000 A 
ATOM     10  N   UNL     1       2.828   3.307  20.333  0.00  0.00    +0.000 N 
ATOM     11  C   UNL     1       3.867   2.412  20.354  0.00  0.00    +0.000 A 
ATOM     12  N   UNL     1       4.859   2.783  19.569  0.00  0.00    +0.000 NA
ATOM     13  C   UNL     1       4.441   3.966  19.010  0.00  0.00    +0.000 A 
ATOM     14  H   UNL     1       3.684   5.173  16.724  0.00  0.00    +0.000 HD
ATOM     15  H   UNL     1       1.962   3.232  20.853  0.00  0.00    +0.000 HD
ENDBRANCH   2   5
BRANCH   3  16
ATOM     16  C   UNL     1       8.131   7.275  18.364  0.00  0.00    +0.000 C 
BRANCH  16  17
ATOM     17  C   UNL     1       8.015   8.724  17.901  0.00  0.00    +0.000 C 
BRANCH  17  18
ATOM     18  C   UNL     1       8.919   9.660  18.703  0.00  0.00    +0.000 C 
BRANCH  18  19
ATOM     19  O   UNL     1       8.915  10.977  18.151  0.00  0.00    +0.000 OA
BRANCH  19  20
ATOM     20  C   UNL     1      10.229  11.498  17.896  0.00  0.00    +0.000 C 
ATOM     21  C   UNL     1      10.101  12.974  17.493  0.00  0.00    +0.000 C 
ATOM     22  C   UNL     1       9.635  13.857  18.652  0.00  0.00    +0.000 C 
ATOM     23  C   UNL     1      10.522  13.702  19.883  0.00  0.00    +0.000 C 
ATOM     24  C   UNL     1      10.711  12.241  20.282  0.00  0.00    +0.000 C 
ATOM     25  C   UNL     1      11.166  11.378  19.106  0.00  0.00    +0.000 C 
ENDBRANCH  19  20
ENDBRANCH  18  19
ENDBRANCH  17  18
ENDBRANCH  16  17
ENDBRANCH   3  16
TORSDOF 6
ENDMDL
MODEL 5
REMARK VINA RESULT:      -6.9      1.645      2.575
REMARK  Name = 
REMARK  6 active torsions:
REMARK  status: ('A' for Active; 'I' for Inactive)
REMARK    1  A    between atoms: C_2  and  C_14
REMARK    2  A    between atoms: N_3  and  C_4
REMARK    3  A    between atoms: C_4  and  C_5
REMARK    4  A    between atoms: C_5  and  C_6
REMARK    5  A    between atoms: C_6  and  O_7
REMARK    6  A    between atoms: O_7  and  C_8
REMARK                            x       y       z     vdW  Elec       q    Type
REMARK                         _______ _______ _______ _____ _____    ______ ____
ROOT
ATOM      1  O   UNL     1       4.783   5.613  15.588  0.00  0.00    +0.000 OA
ATOM      2  C   UNL     1       5.483   6.198  16.412  0.00  0.00    +0.000 C 
ATOM      3  N   UNL     1       4.940   7.113  17.304  0.00  0.00    +0.000 N 
ATOM      4  H   UNL     1       5.527   7.393  18.089  0.00  0.00    +0.000 HD
ENDROOT
BRANCH   2   5
ATOM      5  C   UNL     1       7.026   6.063  16.501  0.00  0.00    +0.000 C 
ATOM      6  N   UNL     1       7.453   4.704  16.993  0.00  0.00    +0.000 NA
ATOM      7  C   UNL     1       7.268   4.562  18.459  0.00  0.00    +0.000 C 
ATOM      8  C   UNL     1       8.164   5.524  19.289  0.00  0.00    +0.000 C 
ATOM      9  C   UNL     1       8.126   6.859  18.649  0.00  0.00    +0.000 A 
ATOM     10  N   UNL     1       8.579   8.053  19.121  0.00  0.00    +0.000 N 
ATOM     11  C   UNL     1       8.338   8.979  18.139  0.00  0.00    +0.000 A 
ATOM     12  N   UNL     1       7.756   8.444  17.083  0.00  0.00    +0.000 NA
ATOM     13  C   UNL     1       7.623   7.113  17.392  0.00  0.00    +0.000 A 
ATOM     14  H   UNL     1       8.446   4.620  16.789  0.00  0.00    +0.000 HD
ATOM     15  H   UNL     1       9.016   8.231  20.017  0.00  0.00    +0.000 HD
ENDBRANCH   2   5
BRANCH   3  16
ATOM     16  C   UNL     1       3.518   7.398  17.339  0.00  0.00    +0.000 C 
BRANCH  16  17
ATOM     17  C   UNL     1       2.839   6.771  18.552  0.00  0.00    +0.000 C 
BRANCH  17  18
ATOM     18  C   UNL     1       3.801   5.914  19.373  0.00  0.00    +0.000 C 
BRANCH  18  19
ATOM     19  O   UNL     1       3.092   4.999  20.209  0.00  0.00    +0.000 OA
BRANCH  19  20
ATOM     20  C   UNL     1       3.412   3.621  19.957  0.00  0.00    +0.000 C 
ATOM     21  C   UNL     1       2.536   2.742  20.860  0.00  0.00    +0.000 C 
ATOM     22  C   UNL     1       1.058   2.794  20.470  0.00  0.00    +0.000 C 
ATOM     23  C   UNL     1       0.842   2.453  18.998  0.00  0.00    +0.000 C 
ATOM     24  C   UNL     1       1.735   3.277  18.074  0.00  0.00    +0.000 C 
ATOM     25  C   UNL     1       3.204   3.217  18.491  0.00  0.00    +0.000 C 
ENDBRANCH  19  20
ENDBRANCH  18  19
ENDBRANCH  17  18
ENDBRANCH  16  17
ENDBRANCH   3  16
TORSDOF 6
ENDMDL
MODEL 6
REMARK VINA RESULT:      -6.9      1.765      3.641
REMARK  Name = 
REMARK  6 active torsions:
REMARK  status: ('A' for Active; 'I' for Inactive)
REMARK    1  A    between atoms: C_2  and  C_14
REMARK    2  A    between atoms: N_3  and  C_4
REMARK    3  A    between atoms: C_4  and  C_5
REMARK    4  A    between atoms: C_5  and  C_6
REMARK    5  A    between atoms: C_6  and  O_7
REMARK    6  A    between atoms: O_7  and  C_8
REMARK                            x       y       z     vdW  Elec       q    Type
REMARK                         _______ _______ _______ _____ _____    ______ ____
ROOT
ATOM      1  O   UNL     1       6.898   5.040  19.938  0.00  0.00    +0.000 OA
ATOM      2  C   UNL     1       6.487   4.878  18.792  0.00  0.00    +0.000 C 
ATOM      3  N   UNL     1       5.537   3.911  18.494  0.00  0.00    +0.000 N 
ATOM      4  H   UNL     1       5.088   3.974  17.581  0.00  0.00    +0.000 HD
ENDROOT
BRANCH   2   5
ATOM      5  C   UNL     1       7.022   5.646  17.555  0.00  0.00    +0.000 C 
ATOM      6  N   UNL     1       6.639   7.104  17.578  0.00  0.00    +0.000 NA
ATOM      7  C   UNL     1       5.218   7.309  17.201  0.00  0.00    +0.000 C 
ATOM      8  C   UNL     1       4.903   6.896  15.735  0.00  0.00    +0.000 C 
ATOM      9  C   UNL     1       5.577   5.605  15.465  0.00  0.00    +0.000 A 
ATOM     10  N   UNL     1       5.427   4.761  14.407  0.00  0.00    +0.000 N 
ATOM     11  C   UNL     1       6.297   3.720  14.610  0.00  0.00    +0.000 A 
ATOM     12  N   UNL     1       6.979   3.854  15.730  0.00  0.00    +0.000 NA
ATOM     13  C   UNL     1       6.537   5.035  16.272  0.00  0.00    +0.000 A 
ATOM     14  H   UNL     1       7.221   7.568  16.885  0.00  0.00    +0.000 HD
ATOM     15  H   UNL     1       4.803   4.874  13.617  0.00  0.00    +0.000 HD
ENDBRANCH   2   5
BRANCH   3  16
ATOM     16  C   UNL     1       4.952   3.068  19.520  0.00  0.00    +0.000 C 
BRANCH  16  17
ATOM     17  C   UNL     1       4.383   1.776  18.942  0.00  0.00    +0.000 C 
BRANCH  17  18
ATOM     18  C   UNL     1       2.858   1.804  18.857  0.00  0.00    +0.000 C 
BRANCH  18  19
ATOM     19  O   UNL     1       2.301   2.644  19.868  0.00  0.00    +0.000 OA
BRANCH  19  20
ATOM     20  C   UNL     1       1.156   3.392  19.429  0.00  0.00    +0.000 C 
ATOM     21  C   UNL     1       0.898   4.526  20.431  0.00  0.00    +0.000 C 
ATOM     22  C   UNL     1       1.995   5.591  20.403  0.00  0.00    +0.000 C 
ATOM     23  C   UNL     1       2.221   6.143  18.999  0.00  0.00    +0.000 C 
ATOM     24  C   UNL     1       2.432   5.038  17.967  0.00  0.00    +0.000 C 
ATOM     25  C   UNL     1       1.329   3.982  18.023  0.00  0.00    +0.000 C 
ENDBRANCH  19  20
ENDBRANCH  18  19
ENDBRANCH  17  18
ENDBRANCH  16  17
ENDBRANCH   3  16
TORSDOF 6
ENDMDL
MODEL 7
REMARK VINA RESULT:      -6.8      5.086      8.179
REMARK  Name = 
REMARK  6 active torsions:
REMARK  status: ('A' for Active; 'I' for Inactive)
REMARK    1  A    between atoms: C_2  and  C_14
REMARK    2  A    between atoms: N_3  and  C_4
REMARK    3  A    between atoms: C_4  and  C_5
REMARK    4  A    between atoms: C_5  and  C_6
REMARK    5  A    between atoms: C_6  and  O_7
REMARK    6  A    between atoms: O_7  and  C_8
REMARK                            x       y       z     vdW  Elec       q    Type
REMARK                         _______ _______ _______ _____ _____    ______ ____
ROOT
ATOM      1  O   UNL     1       6.971   5.291  19.803  0.00  0.00    +0.000 OA
ATOM      2  C   UNL     1       6.637   5.509  18.642  0.00  0.00    +0.000 C 
ATOM      3  N   UNL     1       7.178   6.563  17.917  0.00  0.00    +0.000 N 
ATOM      4  H   UNL     1       7.023   6.555  16.910  0.00  0.00    +0.000 HD
ENDROOT
BRANCH   2   5
ATOM      5  C   UNL     1       5.538   4.717  17.886  0.00  0.00    +0.000 C 
ATOM      6  N   UNL     1       4.734   5.594  16.961  0.00  0.00    +0.000 NA
ATOM      7  C   UNL     1       3.750   6.424  17.702  0.00  0.00    +0.000 C 
ATOM      8  C   UNL     1       2.653   5.588  18.419  0.00  0.00    +0.000 C 
ATOM      9  C   UNL     1       3.308   4.432  19.073  0.00  0.00    +0.000 A 
ATOM     10  N   UNL     1       2.796   3.550  19.975  0.00  0.00    +0.000 N 
ATOM     11  C   UNL     1       3.792   2.646  20.248  0.00  0.00    +0.000 A 
ATOM     12  N   UNL     1       4.898   2.909  19.579  0.00  0.00    +0.000 NA
ATOM     13  C   UNL     1       4.603   4.025  18.836  0.00  0.00    +0.000 A 
ATOM     14  H   UNL     1       4.220   4.971  16.343  0.00  0.00    +0.000 HD
ATOM     15  H   UNL     1       1.863   3.548  20.368  0.00  0.00    +0.000 HD
ENDBRANCH   2   5
BRANCH   3  16
ATOM     16  C   UNL     1       8.192   7.436  18.477  0.00  0.00    +0.000 C 
BRANCH  16  17
ATOM     17  C   UNL     1       8.082   8.858  17.936  0.00  0.00    +0.000 C 
BRANCH  17  18
ATOM     18  C   UNL     1       8.829   9.867  18.807  0.00  0.00    +0.000 C 
BRANCH  18  19
ATOM     19  O   UNL     1       9.765  10.620  18.036  0.00  0.00    +0.000 OA
BRANCH  19  20
ATOM     20  C   UNL     1      10.623  11.457  18.828  0.00  0.00    +0.000 C 
ATOM     21  C   UNL     1      11.643  12.131  17.899  0.00  0.00    +0.000 C 
ATOM     22  C   UNL     1      10.994  13.149  16.960  0.00  0.00    +0.000 C 
ATOM     23  C   UNL     1      10.176  14.189  17.721  0.00  0.00    +0.000 C 
ATOM     24  C   UNL     1       9.185  13.552  18.691  0.00  0.00    +0.000 C 
ATOM     25  C   UNL     1       9.855  12.531  19.609  0.00  0.00    +0.000 C 
ENDBRANCH  19  20
ENDBRANCH  18  19
ENDBRANCH  17  18
ENDBRANCH  16  17
ENDBRANCH   3  16
TORSDOF 6
ENDMDL
MODEL 8
REMARK VINA RESULT:      -6.8      4.449      7.768
REMARK  Name = 
REMARK  6 active torsions:
REMARK  status: ('A' for Active; 'I' for Inactive)
REMARK    1  A    between atoms: C_2  and  C_14
REMARK    2  A    between atoms: N_3  and  C_4
REMARK    3  A    between atoms: C_4  and  C_5
REMARK    4  A    between atoms: C_5  and  C_6
REMARK    5  A    between atoms: C_6  and  O_7
REMARK    6  A    between atoms: O_7  and  C_8
REMARK                            x       y       z     vdW  Elec       q    Type
REMARK                         _______ _______ _______ _____ _____    ______ ____
ROOT
ATOM      1  O   UNL     1       3.989   6.481  18.157  0.00  0.00    +0.000 OA
ATOM      2  C   UNL     1       4.844   5.671  18.506  0.00  0.00    +0.000 C 
ATOM      3  N   UNL     1       6.190   5.877  18.236  0.00  0.00    +0.000 N 
ATOM      4  H   UNL     1       6.854   5.286  18.734  0.00  0.00    +0.000 HD
ENDROOT
BRANCH   2   5
ATOM      5  C   UNL     1       4.534   4.315  19.193  0.00  0.00    +0.000 C 
ATOM      6  N   UNL     1       4.875   3.139  18.315  0.00  0.00    +0.000 NA
ATOM      7  C   UNL     1       3.862   2.931  17.249  0.00  0.00    +0.000 C 
ATOM      8  C   UNL     1       2.458   2.552  17.798  0.00  0.00    +0.000 C 
ATOM      9  C   UNL     1       2.164   3.425  18.958  0.00  0.00    +0.000 A 
ATOM     10  N   UNL     1       0.991   3.604  19.626  0.00  0.00    +0.000 N 
ATOM     11  C   UNL     1       1.250   4.490  20.641  0.00  0.00    +0.000 A 
ATOM     12  N   UNL     1       2.508   4.884  20.649  0.00  0.00    +0.000 NA
ATOM     13  C   UNL     1       3.092   4.218  19.599  0.00  0.00    +0.000 A 
ATOM     14  H   UNL     1       4.875   2.317  18.915  0.00  0.00    +0.000 HD
ATOM     15  H   UNL     1       0.100   3.168  19.425  0.00  0.00    +0.000 HD
ENDBRANCH   2   5
BRANCH   3  16
ATOM     16  C   UNL     1       6.663   7.073  17.564  0.00  0.00    +0.000 C 
BRANCH  16  17
ATOM     17  C   UNL     1       7.994   7.556  18.130  0.00  0.00    +0.000 C 
BRANCH  17  18
ATOM     18  C   UNL     1       8.198   9.056  17.923  0.00  0.00    +0.000 C 
BRANCH  18  19
ATOM     19  O   UNL     1       9.054   9.603  18.927  0.00  0.00    +0.000 OA
BRANCH  19  20
ATOM     20  C   UNL     1       8.860  11.009  19.147  0.00  0.00    +0.000 C 
ATOM     21  C   UNL     1       9.722  11.441  20.342  0.00  0.00    +0.000 C 
ATOM     22  C   UNL     1      11.219  11.378  20.036  0.00  0.00    +0.000 C 
ATOM     23  C   UNL     1      11.581  12.172  18.785  0.00  0.00    +0.000 C 
ATOM     24  C   UNL     1      10.710  11.801  17.588  0.00  0.00    +0.000 C 
ATOM     25  C   UNL     1       9.220  11.861  17.922  0.00  0.00    +0.000 C 
ENDBRANCH  19  20
ENDBRANCH  18  19
ENDBRANCH  17  18
ENDBRANCH  16  17
ENDBRANCH   3  16
TORSDOF 6
ENDMDL
MODEL 9
REMARK VINA RESULT:      -6.7      5.684      8.558
REMARK  Name = 
REMARK  6 active torsions:
REMARK  status: ('A' for Active; 'I' for Inactive)
REMARK    1  A    between atoms: C_2  and  C_14
REMARK    2  A    between atoms: N_3  and  C_4
REMARK    3  A    between atoms: C_4  and  C_5
REMARK    4  A    between atoms: C_5  and  C_6
REMARK    5  A    between atoms: C_6  and  O_7
REMARK    6  A    between atoms: O_7  and  C_8
REMARK                            x       y       z     vdW  Elec       q    Type
REMARK                         _______ _______ _______ _____ _____    ______ ____
ROOT
ATOM      1  O   UNL     1       5.950   7.335  16.691  0.00  0.00    +0.000 OA
ATOM      2  C   UNL     1       6.895   6.817  17.281  0.00  0.00    +0.000 C 
ATOM      3  N   UNL     1       7.895   7.586  17.862  0.00  0.00    +0.000 N 
ATOM      4  H   UNL     1       8.521   7.110  18.511  0.00  0.00    +0.000 HD
ENDROOT
BRANCH   2   5
ATOM      5  C   UNL     1       7.134   5.287  17.374  0.00  0.00    +0.000 C 
ATOM      6  N   UNL     1       7.755   4.729  16.120  0.00  0.00    +0.000 NA
ATOM      7  C   UNL     1       6.764   4.596  15.023  0.00  0.00    +0.000 C 
ATOM      8  C   UNL     1       5.636   3.571  15.331  0.00  0.00    +0.000 C 
ATOM      9  C   UNL     1       5.192   3.781  16.728  0.00  0.00    +0.000 A 
ATOM     10  N   UNL     1       4.105   3.271  17.372  0.00  0.00    +0.000 N 
ATOM     11  C   UNL     1       4.157   3.740  18.660  0.00  0.00    +0.000 A 
ATOM     12  N   UNL     1       5.203   4.516  18.864  0.00  0.00    +0.000 NA
ATOM     13  C   UNL     1       5.861   4.545  17.659  0.00  0.00    +0.000 A 
ATOM     14  H   UNL     1       8.096   3.799  16.353  0.00  0.00    +0.000 HD
ATOM     15  H   UNL     1       3.396   2.660  16.985  0.00  0.00    +0.000 HD
ENDBRANCH   2   5
BRANCH   3  16
ATOM     16  C   UNL     1       7.858   9.036  17.839  0.00  0.00    +0.000 C 
BRANCH  16  17
ATOM     17  C   UNL     1       8.911   9.648  18.756  0.00  0.00    +0.000 C 
BRANCH  17  18
ATOM     18  C   UNL     1       9.529  10.913  18.163  0.00  0.00    +0.000 C 
BRANCH  18  19
ATOM     19  O   UNL     1      10.302  11.615  19.137  0.00  0.00    +0.000 OA
BRANCH  19  20
ATOM     20  C   UNL     1      11.607  11.994  18.673  0.00  0.00    +0.000 C 
ATOM     21  C   UNL     1      11.463  12.670  17.302  0.00  0.00    +0.000 C 
ATOM     22  C   UNL     1      10.759  14.025  17.391  0.00  0.00    +0.000 C 
ATOM     23  C   UNL     1      11.435  14.957  18.393  0.00  0.00    +0.000 C 
ATOM     24  C   UNL     1      11.639  14.297  19.754  0.00  0.00    +0.000 C 
ATOM     25  C   UNL     1      12.333  12.941  19.637  0.00  0.00    +0.000 C 
ENDBRANCH  19  20
ENDBRANCH  18  19
ENDBRANCH  17  18
ENDBRANCH  16  17
ENDBRANCH   3  16
TORSDOF 6
ENDMDL
