MODEL 1
REMARK VINA RESULT:      -7.2      0.000      0.000
REMARK  Name = 
REMARK  8 active torsions:
REMARK  status: ('A' for Active; 'I' for Inactive)
REMARK    1  A    between atoms: CE_1  and  SD_2
REMARK    2  A    between atoms: SD_2  and  CG_3
REMARK    3  A    between atoms: CG_3  and  CB_4
REMARK    4  A    between atoms: CB_4  and  CA_5
REMARK    5  A    between atoms: C_9  and  C_10
REMARK    6  A    between atoms: C_10  and  C_11
REMARK    7  A    between atoms: C_10  and  C_12
REMARK    8  A    between atoms: N_14  and  C_15
REMARK                            x       y       z     vdW  Elec       q    Type
REMARK                         _______ _______ _______ _____ _____    ______ ____
ROOT
ATOM      1  CA  MET A   1       6.387   4.308  13.336  0.00  0.00    +0.000 C 
ATOM      2  N   MET A   1       5.922   3.452  14.429  0.00  0.00    +0.000 N 
ATOM      3  C   UNK A   2       5.619   3.963  15.670  0.00  0.00    +0.000 C 
ATOM      4  O   UNK A   2       4.974   3.287  16.466  0.00  0.00    +0.000 OA
ATOM      5  C   UNK A   2       6.037   5.434  15.886  0.00  0.00    +0.000 C 
ATOM      6  N   UNK A   2       7.315   5.643  15.196  0.00  0.00    +0.000 N 
ATOM      7  C   MET A   1       7.487   5.254  13.879  0.00  0.00    +0.000 C 
ATOM      8  O   MET A   1       8.383   5.740  13.201  0.00  0.00    +0.000 OA
ATOM      9  H   MET A   1       5.492   2.556  14.242  0.00  0.00    +0.000 HD
ATOM     10  H   UNK A   2       7.913   6.406  15.488  0.00  0.00    +0.000 HD
ENDROOT
BRANCH   5  11
ATOM     11  C   UNK A   2       6.068   5.795  17.389  0.00  0.00    +0.000 C 
ATOM     12  C   UNK A   2       7.141   6.865  17.697  0.00  0.00    +0.000 C 
BRANCH  11  13
ATOM     13  C   UNK A   2       4.702   6.222  17.916  0.00  0.00    +0.000 A 
ATOM     14  C   UNK A   2       4.022   7.359  17.530  0.00  0.00    +0.000 A 
ATOM     15  N   UNK A   2       2.909   7.499  18.316  0.00  0.00    +0.000 N 
ATOM     16  C   UNK A   2       2.044   8.652  18.301  0.00  0.00    +0.000 C 
ATOM     17  C   UNK A   2       2.760   6.399  19.126  0.00  0.00    +0.000 A 
ATOM     18  C   UNK A   2       1.748   6.080  20.048  0.00  0.00    +0.000 A 
ATOM     19  C   UNK A   2       1.845   4.875  20.746  0.00  0.00    +0.000 A 
ATOM     20  C   UNK A   2       2.930   4.028  20.545  0.00  0.00    +0.000 A 
ATOM     21  C   UNK A   2       3.953   4.370  19.648  0.00  0.00    +0.000 A 
ATOM     22  C   UNK A   2       3.873   5.573  18.904  0.00  0.00    +0.000 A 
ENDBRANCH  11  13
ENDBRANCH   5  11
BRANCH   1  23
ATOM     23  CB  MET A   1       6.902   3.453  12.170  0.00  0.00    +0.000 C 
BRANCH  23  24
ATOM     24  CG  MET A   1       5.930   2.359  11.712  0.00  0.00    +0.000 C 
BRANCH  24  26
ATOM     25  CE  MET A   1       6.101  -0.384  11.393  0.00  0.00    +0.000 C 
ATOM     26  SD  MET A   1       6.763   1.128  10.657  0.00  0.00    +0.000 S 
ENDBRANCH  24  26
ENDBRANCH  23  24
ENDBRANCH   1  23
TORSDOF 5
ENDMDL
MODEL 2
REMARK VINA RESULT:      -7.0      0.995      1.262
REMARK  Name = 
REMARK  8 active torsions:
REMARK  status: ('A' for Active; 'I' for Inactive)
REMARK    1  A    between atoms: CE_1  and  SD_2
REMARK    2  A    between atoms: SD_2  and  CG_3
REMARK    3  A    between atoms: CG_3  and  CB_4
REMARK    4  A    between atoms: CB_4  and  CA_5
REMARK    5  A    between atoms: C_9  and  C_10
REMARK    6  A    between atoms: C_10  and  C_11
REMARK    7  A    between atoms: C_10  and  C_12
REMARK    8  A    between atoms: N_14  and  C_15
REMARK                            x       y       z     vdW  Elec       q    Type
REMARK                         _______ _______ _______ _____ _____    ______ ____
ROOT
ATOM      1  CA  MET A   1       6.324   4.120  13.313  0.00  0.00    +0.000 C 
ATOM      2  N   MET A   1       5.906   3.299  14.451  0.00  0.00    +0.000 N 
ATOM      3  C   UNK A   2       5.622   3.852  15.678  0.00  0.00    +0.000 C 
ATOM      4  O   UNK A   2       5.012   3.194  16.516  0.00  0.00    +0.000 OA
ATOM      5  C   UNK A   2       6.013   5.339  15.825  0.00  0.00    +0.000 C 
ATOM      6  N   UNK A   2       7.268   5.548  15.095  0.00  0.00    +0.000 N 
ATOM      7  C   MET A   1       7.416   5.110  13.790  0.00  0.00    +0.000 C 
ATOM      8  O   MET A   1       8.284   5.588  13.071  0.00  0.00    +0.000 OA
ATOM      9  H   MET A   1       5.490   2.387  14.310  0.00  0.00    +0.000 HD
ATOM     10  H   UNK A   2       7.856   6.334  15.341  0.00  0.00    +0.000 HD
ENDROOT
BRANCH   5  11
ATOM     11  C   UNK A   2       6.073   5.760  17.311  0.00  0.00    +0.000 C 
ATOM     12  C   UNK A   2       7.158   6.833  17.557  0.00  0.00    +0.000 C 
BRANCH  11  13
ATOM     13  C   UNK A   2       4.719   6.219  17.845  0.00  0.00    +0.000 A 
ATOM     14  C   UNK A   2       4.050   7.356  17.440  0.00  0.00    +0.000 A 
ATOM     15  N   UNK A   2       2.949   7.529  18.236  0.00  0.00    +0.000 N 
ATOM     16  C   UNK A   2       2.100   8.694  18.204  0.00  0.00    +0.000 C 
ATOM     17  C   UNK A   2       2.795   6.451  19.074  0.00  0.00    +0.000 A 
ATOM     18  C   UNK A   2       1.790   6.168  20.015  0.00  0.00    +0.000 A 
ATOM     19  C   UNK A   2       1.879   4.978  20.739  0.00  0.00    +0.000 A 
ATOM     20  C   UNK A   2       2.950   4.112  20.546  0.00  0.00    +0.000 A 
ATOM     21  C   UNK A   2       3.967   4.418  19.629  0.00  0.00    +0.000 A 
ATOM     22  C   UNK A   2       3.893   5.605  18.857  0.00  0.00    +0.000 A 
ENDBRANCH  11  13
ENDBRANCH   5  11
BRANCH   1  23
ATOM     23  CB  MET A   1       6.829   3.230  12.169  0.00  0.00    +0.000 C 
BRANCH  23  24
ATOM     24  CG  MET A   1       5.717   2.567  11.348  0.00  0.00    +0.000 C 
BRANCH  24  26
ATOM     25  CE  MET A   1       3.527   3.640  10.041  0.00  0.00    +0.000 C 
ATOM     26  SD  MET A   1       4.089   3.293  11.724  0.00  0.00    +0.000 S 
ENDBRANCH  24  26
ENDBRANCH  23  24
ENDBRANCH   1  23
TORSDOF 5
ENDMDL
MODEL 3
REMARK VINA RESULT:      -7.0      2.655      4.921
REMARK  Name = 
REMARK  8 active torsions:
REMARK  status: ('A' for Active; 'I' for Inactive)
REMARK    1  A    between atoms: CE_1  and  SD_2
REMARK    2  A    between atoms: SD_2  and  CG_3
REMARK    3  A    between atoms: CG_3  and  CB_4
REMARK    4  A    between atoms: CB_4  and  CA_5
REMARK    5  A    between atoms: C_9  and  C_10
REMARK    6  A    between atoms: C_10  and  C_11
REMARK    7  A    between atoms: C_10  and  C_12
REMARK    8  A    between atoms: N_14  and  C_15
REMARK                            x       y       z     vdW  Elec       q    Type
REMARK                         _______ _______ _______ _____ _____    ______ ____
ROOT
ATOM      1  CA  MET A   1       5.415   5.168  17.536  0.00  0.00    +0.000 C 
ATOM      2  N   MET A   1       4.138   4.521  17.229  0.00  0.00    +0.000 N 
ATOM      3  C   UNK A   2       2.973   4.881  17.865  0.00  0.00    +0.000 C 
ATOM      4  O   UNK A   2       1.892   4.532  17.399  0.00  0.00    +0.000 OA
ATOM      5  C   UNK A   2       3.158   5.823  19.075  0.00  0.00    +0.000 C 
ATOM      6  N   UNK A   2       4.389   5.426  19.768  0.00  0.00    +0.000 N 
ATOM      7  C   MET A   1       5.573   5.250  19.075  0.00  0.00    +0.000 C 
ATOM      8  O   MET A   1       6.647   5.285  19.663  0.00  0.00    +0.000 OA
ATOM      9  H   MET A   1       3.992   4.053  16.345  0.00  0.00    +0.000 HD
ATOM     10  H   UNK A   2       4.507   5.675  20.742  0.00  0.00    +0.000 HD
ENDROOT
BRANCH   5  11
ATOM     11  C   UNK A   2       1.903   5.831  19.978  0.00  0.00    +0.000 C 
ATOM     12  C   UNK A   2       2.079   4.911  21.208  0.00  0.00    +0.000 C 
BRANCH  11  13
ATOM     13  C   UNK A   2       1.496   7.239  20.401  0.00  0.00    +0.000 A 
ATOM     14  C   UNK A   2       0.993   7.582  21.640  0.00  0.00    +0.000 A 
ATOM     15  N   UNK A   2       0.599   8.893  21.611  0.00  0.00    +0.000 N 
ATOM     16  C   UNK A   2      -0.113   9.550  22.678  0.00  0.00    +0.000 C 
ATOM     17  C   UNK A   2       0.959   9.470  20.417  0.00  0.00    +0.000 A 
ATOM     18  C   UNK A   2       0.811  10.793  19.966  0.00  0.00    +0.000 A 
ATOM     19  C   UNK A   2       1.277  11.113  18.690  0.00  0.00    +0.000 A 
ATOM     20  C   UNK A   2       1.850  10.136  17.882  0.00  0.00    +0.000 A 
ATOM     21  C   UNK A   2       1.963   8.810  18.326  0.00  0.00    +0.000 A 
ATOM     22  C   UNK A   2       1.525   8.457  19.627  0.00  0.00    +0.000 A 
ENDBRANCH  11  13
ENDBRANCH   5  11
BRANCH   1  23
ATOM     23  CB  MET A   1       6.574   4.397  16.889  0.00  0.00    +0.000 C 
BRANCH  23  24
ATOM     24  CG  MET A   1       6.216   3.715  15.564  0.00  0.00    +0.000 C 
BRANCH  24  26
ATOM     25  CE  MET A   1       6.245   3.606  12.799  0.00  0.00    +0.000 C 
ATOM     26  SD  MET A   1       6.765   4.705  14.136  0.00  0.00    +0.000 S 
ENDBRANCH  24  26
ENDBRANCH  23  24
ENDBRANCH   1  23
TORSDOF 5
ENDMDL
MODEL 4
REMARK VINA RESULT:      -6.8      1.915      2.353
REMARK  Name = 
REMARK  8 active torsions:
REMARK  status: ('A' for Active; 'I' for Inactive)
REMARK    1  A    between atoms: CE_1  and  SD_2
REMARK    2  A    between atoms: SD_2  and  CG_3
REMARK    3  A    between atoms: CG_3  and  CB_4
REMARK    4  A    between atoms: CB_4  and  CA_5
REMARK    5  A    between atoms: C_9  and  C_10
REMARK    6  A    between atoms: C_10  and  C_11
REMARK    7  A    between atoms: C_10  and  C_12
REMARK    8  A    between atoms: N_14  and  C_15
REMARK                            x       y       z     vdW  Elec       q    Type
REMARK                         _______ _______ _______ _____ _____    ______ ____
ROOT
ATOM      1  CA  MET A   1       6.749   4.687  14.648  0.00  0.00    +0.000 C 
ATOM      2  N   MET A   1       7.790   4.539  15.668  0.00  0.00    +0.000 N 
ATOM      3  C   UNK A   2       7.481   4.350  16.995  0.00  0.00    +0.000 C 
ATOM      4  O   UNK A   2       8.345   3.951  17.770  0.00  0.00    +0.000 OA
ATOM      5  C   UNK A   2       5.992   4.554  17.350  0.00  0.00    +0.000 C 
ATOM      6  N   UNK A   2       5.483   5.661  16.533  0.00  0.00    +0.000 N 
ATOM      7  C   MET A   1       5.688   5.691  15.165  0.00  0.00    +0.000 C 
ATOM      8  O   MET A   1       4.978   6.384  14.446  0.00  0.00    +0.000 OA
ATOM      9  H   MET A   1       8.721   4.234  15.419  0.00  0.00    +0.000 HD
ATOM     10  H   UNK A   2       4.663   6.166  16.844  0.00  0.00    +0.000 HD
ENDROOT
BRANCH   5  11
ATOM     11  C   UNK A   2       5.800   4.755  18.871  0.00  0.00    +0.000 C 
ATOM     12  C   UNK A   2       6.714   5.876  19.418  0.00  0.00    +0.000 C 
BRANCH  11  13
ATOM     13  C   UNK A   2       4.343   5.004  19.249  0.00  0.00    +0.000 A 
ATOM     14  C   UNK A   2       3.798   6.238  19.542  0.00  0.00    +0.000 A 
ATOM     15  N   UNK A   2       2.513   6.061  19.982  0.00  0.00    +0.000 N 
ATOM     16  C   UNK A   2       1.689   7.114  20.522  0.00  0.00    +0.000 C 
ATOM     17  C   UNK A   2       2.145   4.743  19.856  0.00  0.00    +0.000 A 
ATOM     18  C   UNK A   2       0.919   4.113  20.128  0.00  0.00    +0.000 A 
ATOM     19  C   UNK A   2       0.817   2.739  19.902  0.00  0.00    +0.000 A 
ATOM     20  C   UNK A   2       1.914   2.016  19.442  0.00  0.00    +0.000 A 
ATOM     21  C   UNK A   2       3.144   2.647  19.205  0.00  0.00    +0.000 A 
ATOM     22  C   UNK A   2       3.273   4.046  19.399  0.00  0.00    +0.000 A 
ENDBRANCH  11  13
ENDBRANCH   5  11
BRANCH   1  23
ATOM     23  CB  MET A   1       7.365   5.149  13.320  0.00  0.00    +0.000 C 
BRANCH  23  24
ATOM     24  CG  MET A   1       7.180   4.161  12.162  0.00  0.00    +0.000 C 
BRANCH  24  26
ATOM     25  CE  MET A   1       5.993   1.772  11.428  0.00  0.00    +0.000 C 
ATOM     26  SD  MET A   1       5.566   3.323  12.254  0.00  0.00    +0.000 S 
ENDBRANCH  24  26
ENDBRANCH  23  24
ENDBRANCH   1  23
TORSDOF 5
ENDMDL
MODEL 5
REMARK VINA RESULT:      -6.8      0.861      2.160
REMARK  Name = 
REMARK  8 active torsions:
REMARK  status: ('A' for Active; 'I' for Inactive)
REMARK    1  A    between atoms: CE_1  and  SD_2
REMARK    2  A    between atoms: SD_2  and  CG_3
REMARK    3  A    between atoms: CG_3  and  CB_4
REMARK    4  A    between atoms: CB_4  and  CA_5
REMARK    5  A    between atoms: C_9  and  C_10
REMARK    6  A    between atoms: C_10  and  C_11
REMARK    7  A    between atoms: C_10  and  C_12
REMARK    8  A    between atoms: N_14  and  C_15
REMARK                            x       y       z     vdW  Elec       q    Type
REMARK                         _______ _______ _______ _____ _____    ______ ____
ROOT
ATOM      1  CA  MET A   1       6.315   4.398  13.519  0.00  0.00    +0.000 C 
ATOM      2  N   MET A   1       5.939   3.362  14.483  0.00  0.00    +0.000 N 
ATOM      3  C   UNK A   2       5.784   3.640  15.821  0.00  0.00    +0.000 C 
ATOM      4  O   UNK A   2       5.204   2.836  16.546  0.00  0.00    +0.000 OA
ATOM      5  C   UNK A   2       6.270   5.040  16.254  0.00  0.00    +0.000 C 
ATOM      6  N   UNK A   2       7.475   5.356  15.479  0.00  0.00    +0.000 N 
ATOM      7  C   MET A   1       7.496   5.214  14.103  0.00  0.00    +0.000 C 
ATOM      8  O   MET A   1       8.333   5.805  13.431  0.00  0.00    +0.000 OA
ATOM      9  H   MET A   1       5.463   2.522  14.183  0.00  0.00    +0.000 HD
ATOM     10  H   UNK A   2       8.125   6.045  15.838  0.00  0.00    +0.000 HD
ENDROOT
BRANCH   5  11
ATOM     11  C   UNK A   2       6.469   5.117  17.785  0.00  0.00    +0.000 C 
ATOM     12  C   UNK A   2       7.531   6.174  18.170  0.00  0.00    +0.000 C 
BRANCH  11  13
ATOM     13  C   UNK A   2       5.162   5.358  18.534  0.00  0.00    +0.000 A 
ATOM     14  C   UNK A   2       4.680   4.577  19.564  0.00  0.00    +0.000 A 
ATOM     15  N   UNK A   2       3.419   4.999  19.889  0.00  0.00    +0.000 N 
ATOM     16  C   UNK A   2       2.548   4.319  20.815  0.00  0.00    +0.000 C 
ATOM     17  C   UNK A   2       3.105   6.139  19.187  0.00  0.00    +0.000 A 
ATOM     18  C   UNK A   2       1.956   6.946  19.234  0.00  0.00    +0.000 A 
ATOM     19  C   UNK A   2       1.901   8.067  18.404  0.00  0.00    +0.000 A 
ATOM     20  C   UNK A   2       2.950   8.356  17.537  0.00  0.00    +0.000 A 
ATOM     21  C   UNK A   2       4.079   7.525  17.472  0.00  0.00    +0.000 A 
ATOM     22  C   UNK A   2       4.179   6.395  18.321  0.00  0.00    +0.000 A 
ENDBRANCH  11  13
ENDBRANCH   5  11
BRANCH   1  23
ATOM     23  CB  MET A   1       6.678   3.766  12.168  0.00  0.00    +0.000 C 
BRANCH  23  24
ATOM     24  CG  MET A   1       5.872   2.508  11.824  0.00  0.00    +0.000 C 
BRANCH  24  26
ATOM     25  CE  MET A   1       6.054  -0.212  11.352  0.00  0.00    +0.000 C 
ATOM     26  SD  MET A   1       6.866   1.325  10.858  0.00  0.00    +0.000 S 
ENDBRANCH  24  26
ENDBRANCH  23  24
ENDBRANCH   1  23
TORSDOF 5
ENDMDL
MODEL 6
REMARK VINA RESULT:      -6.8      5.119      8.042
REMARK  Name = 
REMARK  8 active torsions:
REMARK  status: ('A' for Active; 'I' for Inactive)
REMARK    1  A    between atoms: CE_1  and  SD_2
REMARK    2  A    between atoms: SD_2  and  CG_3
REMARK    3  A    between atoms: CG_3  and  CB_4
REMARK    4  A    between atoms: CB_4  and  CA_5
REMARK    5  A    between atoms: C_9  and  C_10
REMARK    6  A    between atoms: C_10  and  C_11
REMARK    7  A    between atoms: C_10  and  C_12
REMARK    8  A    between atoms: N_14  and  C_15
REMARK                            x       y       z     vdW  Elec       q    Type
REMARK                         _______ _______ _______ _____ _____    ______ ____
ROOT
ATOM      1  CA  MET A   1       1.775   6.391  20.102  0.00  0.00    +0.000 C 
ATOM      2  N   MET A   1       1.779   7.343  21.213  0.00  0.00    +0.000 N 
ATOM      3  C   UNK A   2       1.349   8.641  21.056  0.00  0.00    +0.000 C 
ATOM      4  O   UNK A   2       1.098   9.323  22.046  0.00  0.00    +0.000 OA
ATOM      5  C   UNK A   2       1.105   9.071  19.594  0.00  0.00    +0.000 C 
ATOM      6  N   UNK A   2       2.132   8.435  18.761  0.00  0.00    +0.000 N 
ATOM      7  C   MET A   1       2.388   7.079  18.856  0.00  0.00    +0.000 C 
ATOM      8  O   MET A   1       2.953   6.489  17.943  0.00  0.00    +0.000 OA
ATOM      9  H   MET A   1       1.766   7.023  22.173  0.00  0.00    +0.000 HD
ATOM     10  H   UNK A   2       2.358   8.841  17.862  0.00  0.00    +0.000 HD
ENDROOT
BRANCH   5  11
ATOM     11  C   UNK A   2       1.054  10.611  19.462  0.00  0.00    +0.000 C 
ATOM     12  C   UNK A   2       1.914  11.111  18.279  0.00  0.00    +0.000 C 
BRANCH  11  13
ATOM     13  C   UNK A   2      -0.373  11.143  19.364  0.00  0.00    +0.000 A 
ATOM     14  C   UNK A   2      -0.942  12.055  20.229  0.00  0.00    +0.000 A 
ATOM     15  N   UNK A   2      -2.271  12.183  19.927  0.00  0.00    +0.000 N 
ATOM     16  C   UNK A   2      -3.215  12.933  20.718  0.00  0.00    +0.000 C 
ATOM     17  C   UNK A   2      -2.569  11.476  18.787  0.00  0.00    +0.000 A 
ATOM     18  C   UNK A   2      -3.778  11.359  18.081  0.00  0.00    +0.000 A 
ATOM     19  C   UNK A   2      -3.799  10.565  16.932  0.00  0.00    +0.000 A 
ATOM     20  C   UNK A   2      -2.654   9.891  16.519  0.00  0.00    +0.000 A 
ATOM     21  C   UNK A   2      -1.460   9.986  17.249  0.00  0.00    +0.000 A 
ATOM     22  C   UNK A   2      -1.397  10.805  18.404  0.00  0.00    +0.000 A 
ENDBRANCH  11  13
ENDBRANCH   5  11
BRANCH   1  23
ATOM     23  CB  MET A   1       2.548   5.120  20.483  0.00  0.00    +0.000 C 
BRANCH  23  24
ATOM     24  CG  MET A   1       1.812   3.814  20.161  0.00  0.00    +0.000 C 
BRANCH  24  26
ATOM     25  CE  MET A   1       2.410   2.570  17.764  0.00  0.00    +0.000 C 
ATOM     26  SD  MET A   1       2.949   2.559  19.489  0.00  0.00    +0.000 S 
ENDBRANCH  24  26
ENDBRANCH  23  24
ENDBRANCH   1  23
TORSDOF 5
ENDMDL
MODEL 7
REMARK VINA RESULT:      -6.8      4.756      8.539
REMARK  Name = 
REMARK  8 active torsions:
REMARK  status: ('A' for Active; 'I' for Inactive)
REMARK    1  A    between atoms: CE_1  and  SD_2
REMARK    2  A    between atoms: SD_2  and  CG_3
REMARK    3  A    between atoms: CG_3  and  CB_4
REMARK    4  A    between atoms: CB_4  and  CA_5
REMARK    5  A    between atoms: C_9  and  C_10
REMARK    6  A    between atoms: C_10  and  C_11
REMARK    7  A    between atoms: C_10  and  C_12
REMARK    8  A    between atoms: N_14  and  C_15
REMARK                            x       y       z     vdW  Elec       q    Type
REMARK                         _______ _______ _______ _____ _____    ______ ____
ROOT
ATOM      1  CA  MET A   1       1.457   8.268  20.724  0.00  0.00    +0.000 C 
ATOM      2  N   MET A   1       1.022   6.908  21.047  0.00  0.00    +0.000 N 
ATOM      3  C   UNK A   2       1.717   5.804  20.610  0.00  0.00    +0.000 C 
ATOM      4  O   UNK A   2       1.502   4.708  21.120  0.00  0.00    +0.000 OA
ATOM      5  C   UNK A   2       2.819   6.100  19.569  0.00  0.00    +0.000 C 
ATOM      6  N   UNK A   2       2.331   7.169  18.691  0.00  0.00    +0.000 N 
ATOM      7  C   MET A   1       1.800   8.335  19.214  0.00  0.00    +0.000 C 
ATOM      8  O   MET A   1       1.738   9.350  18.531  0.00  0.00    +0.000 OA
ATOM      9  H   MET A   1       0.431   6.727  21.847  0.00  0.00    +0.000 HD
ATOM     10  H   UNK A   2       2.734   7.271  17.768  0.00  0.00    +0.000 HD
ENDROOT
BRANCH   5  11
ATOM     11  C   UNK A   2       3.243   4.816  18.820  0.00  0.00    +0.000 C 
ATOM     12  C   UNK A   2       2.310   4.519  17.623  0.00  0.00    +0.000 C 
BRANCH  11  13
ATOM     13  C   UNK A   2       4.703   4.851  18.379  0.00  0.00    +0.000 A 
ATOM     14  C   UNK A   2       5.780   5.075  19.213  0.00  0.00    +0.000 A 
ATOM     15  N   UNK A   2       6.914   5.187  18.453  0.00  0.00    +0.000 N 
ATOM     16  C   UNK A   2       8.202   5.576  18.970  0.00  0.00    +0.000 C 
ATOM     17  C   UNK A   2       6.633   4.902  17.138  0.00  0.00    +0.000 A 
ATOM     18  C   UNK A   2       7.484   4.839  16.021  0.00  0.00    +0.000 A 
ATOM     19  C   UNK A   2       6.926   4.517  14.782  0.00  0.00    +0.000 A 
ATOM     20  C   UNK A   2       5.559   4.291  14.661  0.00  0.00    +0.000 A 
ATOM     21  C   UNK A   2       4.711   4.389  15.775  0.00  0.00    +0.000 A 
ATOM     22  C   UNK A   2       5.249   4.687  17.052  0.00  0.00    +0.000 A 
ENDBRANCH  11  13
ENDBRANCH   5  11
BRANCH   1  23
ATOM     23  CB  MET A   1       0.366   9.281  21.100  0.00  0.00    +0.000 C 
BRANCH  23  24
ATOM     24  CG  MET A   1       0.075   9.365  22.604  0.00  0.00    +0.000 C 
BRANCH  24  26
ATOM     25  CE  MET A   1      -1.007  11.604  21.391  0.00  0.00    +0.000 C 
ATOM     26  SD  MET A   1      -1.026  10.764  22.991  0.00  0.00    +0.000 S 
ENDBRANCH  24  26
ENDBRANCH  23  24
ENDBRANCH   1  23
TORSDOF 5
ENDMDL
MODEL 8
REMARK VINA RESULT:      -6.7      5.511      8.125
REMARK  Name = 
REMARK  8 active torsions:
REMARK  status: ('A' for Active; 'I' for Inactive)
REMARK    1  A    between atoms: CE_1  and  SD_2
REMARK    2  A    between atoms: SD_2  and  CG_3
REMARK    3  A    between atoms: CG_3  and  CB_4
REMARK    4  A    between atoms: CB_4  and  CA_5
REMARK    5  A    between atoms: C_9  and  C_10
REMARK    6  A    between atoms: C_10  and  C_11
REMARK    7  A    between atoms: C_10  and  C_12
REMARK    8  A    between atoms: N_14  and  C_15
REMARK                            x       y       z     vdW  Elec       q    Type
REMARK                         _______ _______ _______ _____ _____    ______ ____
ROOT
ATOM      1  CA  MET A   1       2.142   6.679  19.303  0.00  0.00    +0.000 C 
ATOM      2  N   MET A   1       1.922   7.359  20.581  0.00  0.00    +0.000 N 
ATOM      3  C   UNK A   2       1.357   8.612  20.645  0.00  0.00    +0.000 C 
ATOM      4  O   UNK A   2       0.929   9.032  21.716  0.00  0.00    +0.000 OA
ATOM      5  C   UNK A   2       1.210   9.329  19.285  0.00  0.00    +0.000 C 
ATOM      6  N   UNK A   2       2.384   8.992  18.471  0.00  0.00    +0.000 N 
ATOM      7  C   MET A   1       2.790   7.679  18.313  0.00  0.00    +0.000 C 
ATOM      8  O   MET A   1       3.509   7.361  17.374  0.00  0.00    +0.000 OA
ATOM      9  H   MET A   1       1.852   6.836  21.443  0.00  0.00    +0.000 HD
ATOM     10  H   UNK A   2       2.648   9.606  17.711  0.00  0.00    +0.000 HD
ENDROOT
BRANCH   5  11
ATOM     11  C   UNK A   2       0.988  10.847  19.471  0.00  0.00    +0.000 C 
ATOM     12  C   UNK A   2       1.889  11.675  18.526  0.00  0.00    +0.000 C 
BRANCH  11  13
ATOM     13  C   UNK A   2      -0.476  11.248  19.320  0.00  0.00    +0.000 A 
ATOM     14  C   UNK A   2      -1.155  12.110  20.157  0.00  0.00    +0.000 A 
ATOM     15  N   UNK A   2      -2.479  12.115  19.809  0.00  0.00    +0.000 N 
ATOM     16  C   UNK A   2      -3.513  12.782  20.561  0.00  0.00    +0.000 C 
ATOM     17  C   UNK A   2      -2.672  11.378  18.666  0.00  0.00    +0.000 A 
ATOM     18  C   UNK A   2      -3.840  11.148  17.919  0.00  0.00    +0.000 A 
ATOM     19  C   UNK A   2      -3.750  10.350  16.778  0.00  0.00    +0.000 A 
ATOM     20  C   UNK A   2      -2.536   9.779  16.409  0.00  0.00    +0.000 A 
ATOM     21  C   UNK A   2      -1.381   9.986  17.179  0.00  0.00    +0.000 A 
ATOM     22  C   UNK A   2      -1.432  10.813  18.329  0.00  0.00    +0.000 A 
ENDBRANCH  11  13
ENDBRANCH   5  11
BRANCH   1  23
ATOM     23  CB  MET A   1       3.020   5.435  19.505  0.00  0.00    +0.000 C 
BRANCH  23  24
ATOM     24  CG  MET A   1       2.358   4.120  19.076  0.00  0.00    +0.000 C 
BRANCH  24  26
ATOM     25  CE  MET A   1       2.033   3.212  21.669  0.00  0.00    +0.000 C 
ATOM     26  SD  MET A   1       1.031   3.637  20.226  0.00  0.00    +0.000 S 
ENDBRANCH  24  26
ENDBRANCH  23  24
ENDBRANCH   1  23
TORSDOF 5
ENDMDL
MODEL 9
REMARK VINA RESULT:      -6.7      5.306      8.315
REMARK  Name = 
REMARK  8 active torsions:
REMARK  status: ('A' for Active; 'I' for Inactive)
REMARK    1  A    between atoms: CE_1  and  SD_2
REMARK    2  A    between atoms: SD_2  and  CG_3
REMARK    3  A    between atoms: CG_3  and  CB_4
REMARK    4  A    between atoms: CB_4  and  CA_5
REMARK    5  A    between atoms: C_9  and  C_10
REMARK    6  A    between atoms: C_10  and  C_11
REMARK    7  A    between atoms: C_10  and  C_12
REMARK    8  A    between atoms: N_14  and  C_15
REMARK                            x       y       z     vdW  Elec       q    Type
REMARK                         _______ _______ _______ _____ _____    ______ ____
ROOT
ATOM      1  CA  MET A   1       1.913   7.175  19.569  0.00  0.00    +0.000 C 
ATOM      2  N   MET A   1       1.825   7.784  20.898  0.00  0.00    +0.000 N 
ATOM      3  C   UNK A   2       1.109   8.938  21.120  0.00  0.00    +0.000 C 
ATOM      4  O   UNK A   2       0.821   9.263  22.268  0.00  0.00    +0.000 OA
ATOM      5  C   UNK A   2       0.628   9.659  19.843  0.00  0.00    +0.000 C 
ATOM      6  N   UNK A   2       1.677   9.520  18.826  0.00  0.00    +0.000 N 
ATOM      7  C   MET A   1       2.230   8.285  18.535  0.00  0.00    +0.000 C 
ATOM      8  O   MET A   1       2.812   8.101  17.474  0.00  0.00    +0.000 OA
ATOM      9  H   MET A   1       1.981   7.234  21.733  0.00  0.00    +0.000 HD
ATOM     10  H   UNK A   2       1.715  10.185  18.064  0.00  0.00    +0.000 HD
ENDROOT
BRANCH   5  11
ATOM     11  C   UNK A   2       0.230  11.123  20.140  0.00  0.00    +0.000 C 
ATOM     12  C   UNK A   2       1.270  12.121  19.580  0.00  0.00    +0.000 C 
BRANCH  11  13
ATOM     13  C   UNK A   2      -1.173  11.461  19.646  0.00  0.00    +0.000 A 
ATOM     14  C   UNK A   2      -2.068  12.283  20.298  0.00  0.00    +0.000 A 
ATOM     15  N   UNK A   2      -3.272  12.234  19.645  0.00  0.00    +0.000 N 
ATOM     16  C   UNK A   2      -4.483  12.847  20.131  0.00  0.00    +0.000 C 
ATOM     17  C   UNK A   2      -3.154  11.501  18.489  0.00  0.00    +0.000 A 
ATOM     18  C   UNK A   2      -4.101  11.229  17.487  0.00  0.00    +0.000 A 
ATOM     19  C   UNK A   2      -3.706  10.448  16.399  0.00  0.00    +0.000 A 
ATOM     20  C   UNK A   2      -2.415   9.935  16.329  0.00  0.00    +0.000 A 
ATOM     21  C   UNK A   2      -1.486  10.184  17.351  0.00  0.00    +0.000 A 
ATOM     22  C   UNK A   2      -1.846  10.996  18.456  0.00  0.00    +0.000 A 
ENDBRANCH  11  13
ENDBRANCH   5  11
BRANCH   1  23
ATOM     23  CB  MET A   1       2.978   6.070  19.557  0.00  0.00    +0.000 C 
BRANCH  23  24
ATOM     24  CG  MET A   1       2.411   4.648  19.476  0.00  0.00    +0.000 C 
BRANCH  24  26
ATOM     25  CE  MET A   1       2.229   2.305  18.017  0.00  0.00    +0.000 C 
ATOM     26  SD  MET A   1       2.252   4.092  17.748  0.00  0.00    +0.000 S 
ENDBRANCH  24  26
ENDBRANCH  23  24
ENDBRANCH   1  23
TORSDOF 5
ENDMDL
