MODEL 1
REMARK VINA RESULT:      -7.4      0.000      0.000
REMARK  Name = 
REMARK  6 active torsions:
REMARK  status: ('A' for Active; 'I' for Inactive)
REMARK    1  A    between atoms: C_1  and  C_2
REMARK    2  A    between atoms: C_4  and  O_5
REMARK    3  A    between atoms: O_5  and  C_6
REMARK    4  A    between atoms: C_11  and  C_13
REMARK    5  A    between atoms: C_13  and  N_14
REMARK    6  A    between atoms: C_22  and  C_23
REMARK                            x       y       z     vdW  Elec       q    Type
REMARK                         _______ _______ _______ _____ _____    ______ ____
ROOT
ATOM      1  C   UNL     1       3.587   4.474  18.831  0.00  0.00    +0.000 C 
ATOM      2  C   UNL     1       2.748   3.720  19.880  0.00  0.00    +0.000 C 
ATOM      3  C   UNL     1       1.453   4.475  20.197  0.00  0.00    +0.000 C 
ATOM      4  C   UNL     1       1.744   5.902  20.652  0.00  0.00    +0.000 C 
ATOM      5  N   UNL     1       2.576   6.590  19.662  0.00  0.00    +0.000 N 
ATOM      6  C   UNL     1       2.228   7.753  18.980  0.00  0.00    +0.000 C 
ATOM      7  O   UNL     1       2.995   8.265  18.155  0.00  0.00    +0.000 OA
ATOM      8  C   UNL     1       3.836   5.908  19.340  0.00  0.00    +0.000 C 
ENDROOT
BRANCH   1   9
ATOM      9  O   UNL     1       4.864   3.838  18.617  0.00  0.00    +0.000 OA
BRANCH   9  13
ATOM     10  C   UNL     1       7.864   7.549  17.634  0.00  0.00    +0.000 C 
ATOM     11  C   UNL     1       7.138   6.286  17.274  0.00  0.00    +0.000 A 
ATOM     12  C   UNL     1       6.408   5.582  18.213  0.00  0.00    +0.000 A 
ATOM     13  C   UNL     1       5.669   4.527  17.730  0.00  0.00    +0.000 A 
ATOM     14  N   UNL     1       5.709   4.116  16.454  0.00  0.00    +0.000 NA
ATOM     15  C   UNL     1       6.498   4.815  15.628  0.00  0.00    +0.000 A 
ATOM     16  C   UNL     1       6.597   4.343  14.212  0.00  0.00    +0.000 C 
ATOM     17  N   UNL     1       7.204   5.904  15.981  0.00  0.00    +0.000 NA
ENDBRANCH   9  13
ENDBRANCH   1   9
BRANCH   6  18
ATOM     18  C   UNL     1       0.859   8.384  19.296  0.00  0.00    +0.000 C 
BRANCH  18  19
ATOM     19  N   UNL     1       0.935   9.675  19.965  0.00  0.00    +0.000 N 
ATOM     20  C   UNL     1       1.030  10.926  19.279  0.00  0.00    +0.000 C 
ATOM     21  C   UNL     1       0.905  11.921  20.409  0.00  0.00    +0.000 C 
ATOM     22  O   UNL     1       1.168  11.176  21.605  0.00  0.00    +0.000 OA
ATOM     23  C   UNL     1       1.064   9.843  21.316  0.00  0.00    +0.000 C 
ATOM     24  O   UNL     1       1.127   8.960  22.153  0.00  0.00    +0.000 OA
ENDBRANCH  18  19
ENDBRANCH   6  18
TORSDOF 4
ENDMDL
MODEL 2
REMARK VINA RESULT:      -7.4      0.636      1.727
REMARK  Name = 
REMARK  6 active torsions:
REMARK  status: ('A' for Active; 'I' for Inactive)
REMARK    1  A    between atoms: C_1  and  C_2
REMARK    2  A    between atoms: C_4  and  O_5
REMARK    3  A    between atoms: O_5  and  C_6
REMARK    4  A    between atoms: C_11  and  C_13
REMARK    5  A    between atoms: C_13  and  N_14
REMARK    6  A    between atoms: C_22  and  C_23
REMARK                            x       y       z     vdW  Elec       q    Type
REMARK                         _______ _______ _______ _____ _____    ______ ____
ROOT
ATOM      1  C   UNL     1       3.428   4.717  18.931  0.00  0.00    +0.000 C 
ATOM      2  C   UNL     1       2.621   4.059  20.066  0.00  0.00    +0.000 C 
ATOM      3  C   UNL     1       1.355   4.863  20.380  0.00  0.00    +0.000 C 
ATOM      4  C   UNL     1       1.691   6.312  20.717  0.00  0.00    +0.000 C 
ATOM      5  N   UNL     1       2.493   6.909  19.647  0.00  0.00    +0.000 N 
ATOM      6  C   UNL     1       2.137   8.027  18.896  0.00  0.00    +0.000 C 
ATOM      7  O   UNL     1       2.878   8.462  18.005  0.00  0.00    +0.000 OA
ATOM      8  C   UNL     1       3.725   6.179  19.323  0.00  0.00    +0.000 C 
ENDROOT
BRANCH   1   9
ATOM      9  O   UNL     1       4.683   4.040  18.711  0.00  0.00    +0.000 OA
BRANCH   9  13
ATOM     10  C   UNL     1       6.492   4.303  14.195  0.00  0.00    +0.000 C 
ATOM     11  C   UNL     1       6.313   4.812  15.595  0.00  0.00    +0.000 A 
ATOM     12  C   UNL     1       5.444   4.202  16.478  0.00  0.00    +0.000 A 
ATOM     13  C   UNL     1       5.480   4.668  17.772  0.00  0.00    +0.000 A 
ATOM     14  N   UNL     1       6.222   5.714  18.165  0.00  0.00    +0.000 NA
ATOM     15  C   UNL     1       6.982   6.289  17.224  0.00  0.00    +0.000 A 
ATOM     16  C   UNL     1       7.780   7.489  17.626  0.00  0.00    +0.000 C 
ATOM     17  N   UNL     1       7.077   5.867  15.950  0.00  0.00    +0.000 NA
ENDBRANCH   9  13
ENDBRANCH   1   9
BRANCH   6  18
ATOM     18  C   UNL     1       0.795   8.708  19.221  0.00  0.00    +0.000 C 
BRANCH  18  19
ATOM     19  N   UNL     1       0.923  10.000  19.880  0.00  0.00    +0.000 N 
ATOM     20  C   UNL     1       1.213  11.221  19.195  0.00  0.00    +0.000 C 
ATOM     21  C   UNL     1       1.065  12.248  20.293  0.00  0.00    +0.000 C 
ATOM     22  O   UNL     1       1.122  11.507  21.519  0.00  0.00    +0.000 OA
ATOM     23  C   UNL     1       0.921  10.185  21.235  0.00  0.00    +0.000 C 
ATOM     24  O   UNL     1       0.807   9.318  22.083  0.00  0.00    +0.000 OA
ENDBRANCH  18  19
ENDBRANCH   6  18
TORSDOF 4
ENDMDL
MODEL 3
REMARK VINA RESULT:      -7.1      0.873      2.090
REMARK  Name = 
REMARK  6 active torsions:
REMARK  status: ('A' for Active; 'I' for Inactive)
REMARK    1  A    between atoms: C_1  and  C_2
REMARK    2  A    between atoms: C_4  and  O_5
REMARK    3  A    between atoms: O_5  and  C_6
REMARK    4  A    between atoms: C_11  and  C_13
REMARK    5  A    between atoms: C_13  and  N_14
REMARK    6  A    between atoms: C_22  and  C_23
REMARK                            x       y       z     vdW  Elec       q    Type
REMARK                         _______ _______ _______ _____ _____    ______ ____
ROOT
ATOM      1  C   UNL     1       3.609   4.565  18.815  0.00  0.00    +0.000 C 
ATOM      2  C   UNL     1       2.753   3.721  19.778  0.00  0.00    +0.000 C 
ATOM      3  C   UNL     1       1.414   4.406  20.070  0.00  0.00    +0.000 C 
ATOM      4  C   UNL     1       1.621   5.815  20.615  0.00  0.00    +0.000 C 
ATOM      5  N   UNL     1       2.471   6.590  19.708  0.00  0.00    +0.000 N 
ATOM      6  C   UNL     1       2.107   7.774  19.073  0.00  0.00    +0.000 C 
ATOM      7  O   UNL     1       2.891   8.362  18.317  0.00  0.00    +0.000 OA
ATOM      8  C   UNL     1       3.772   5.977  19.413  0.00  0.00    +0.000 C 
ENDROOT
BRANCH   1   9
ATOM      9  O   UNL     1       4.920   3.993  18.631  0.00  0.00    +0.000 OA
BRANCH   9  13
ATOM     10  C   UNL     1       6.713   4.468  14.125  0.00  0.00    +0.000 C 
ATOM     11  C   UNL     1       6.512   4.928  15.539  0.00  0.00    +0.000 A 
ATOM     12  C   UNL     1       5.672   4.254  16.404  0.00  0.00    +0.000 A 
ATOM     13  C   UNL     1       5.688   4.683  17.711  0.00  0.00    +0.000 A 
ATOM     14  N   UNL     1       6.383   5.748  18.135  0.00  0.00    +0.000 NA
ATOM     15  C   UNL     1       7.117   6.385  17.212  0.00  0.00    +0.000 A 
ATOM     16  C   UNL     1       7.861   7.606  17.650  0.00  0.00    +0.000 C 
ATOM     17  N   UNL     1       7.229   6.005  15.926  0.00  0.00    +0.000 NA
ENDBRANCH   9  13
ENDBRANCH   1   9
BRANCH   6  18
ATOM     18  C   UNL     1       0.699   8.332  19.353  0.00  0.00    +0.000 C 
BRANCH  18  19
ATOM     19  N   UNL     1       0.610   9.158  20.549  0.00  0.00    +0.000 N 
ATOM     20  C   UNL     1       0.078   8.705  21.795  0.00  0.00    +0.000 C 
ATOM     21  C   UNL     1       0.375   9.868  22.713  0.00  0.00    +0.000 C 
ATOM     22  O   UNL     1       0.646  10.978  21.847  0.00  0.00    +0.000 OA
ATOM     23  C   UNL     1       0.891  10.496  20.591  0.00  0.00    +0.000 C 
ATOM     24  O   UNL     1       1.257  11.189  19.658  0.00  0.00    +0.000 OA
ENDBRANCH  18  19
ENDBRANCH   6  18
TORSDOF 4
ENDMDL
MODEL 4
REMARK VINA RESULT:      -7.1      2.045      3.383
REMARK  Name = 
REMARK  6 active torsions:
REMARK  status: ('A' for Active; 'I' for Inactive)
REMARK    1  A    between atoms: C_1  and  C_2
REMARK    2  A    between atoms: C_4  and  O_5
REMARK    3  A    between atoms: O_5  and  C_6
REMARK    4  A    between atoms: C_11  and  C_13
REMARK    5  A    between atoms: C_13  and  N_14
REMARK    6  A    between atoms: C_22  and  C_23
REMARK                            x       y       z     vdW  Elec       q    Type
REMARK                         _______ _______ _______ _____ _____    ______ ____
ROOT
ATOM      1  C   UNL     1       2.639   7.339  19.230  0.00  0.00    +0.000 C 
ATOM      2  C   UNL     1       2.234   7.855  17.836  0.00  0.00    +0.000 C 
ATOM      3  C   UNL     1       1.839   9.335  17.890  0.00  0.00    +0.000 C 
ATOM      4  C   UNL     1       0.727   9.573  18.906  0.00  0.00    +0.000 C 
ATOM      5  N   UNL     1       1.112   9.040  20.214  0.00  0.00    +0.000 N 
ATOM      6  C   UNL     1       1.223   9.779  21.389  0.00  0.00    +0.000 C 
ATOM      7  O   UNL     1       1.559   9.244  22.453  0.00  0.00    +0.000 OA
ATOM      8  C   UNL     1       1.483   7.619  20.212  0.00  0.00    +0.000 C 
ENDROOT
BRANCH   1   9
ATOM      9  O   UNL     1       2.891   5.919  19.216  0.00  0.00    +0.000 OA
BRANCH   9  13
ATOM     10  C   UNL     1       7.759   5.707  19.283  0.00  0.00    +0.000 C 
ATOM     11  C   UNL     1       6.418   5.453  18.658  0.00  0.00    +0.000 A 
ATOM     12  C   UNL     1       5.245   5.722  19.336  0.00  0.00    +0.000 A 
ATOM     13  C   UNL     1       4.087   5.588  18.605  0.00  0.00    +0.000 A 
ATOM     14  N   UNL     1       4.052   5.131  17.345  0.00  0.00    +0.000 NA
ATOM     15  C   UNL     1       5.233   4.828  16.790  0.00  0.00    +0.000 A 
ATOM     16  C   UNL     1       5.215   4.267  15.403  0.00  0.00    +0.000 C 
ATOM     17  N   UNL     1       6.427   4.990  17.390  0.00  0.00    +0.000 NA
ENDBRANCH   9  13
ENDBRANCH   1   9
BRANCH   6  18
ATOM     18  C   UNL     1       0.900  11.283  21.320  0.00  0.00    +0.000 C 
BRANCH  18  19
ATOM     19  N   UNL     1      -0.458  11.624  21.719  0.00  0.00    +0.000 N 
ATOM     20  C   UNL     1      -1.051  11.224  22.956  0.00  0.00    +0.000 C 
ATOM     21  C   UNL     1      -2.366  11.969  22.937  0.00  0.00    +0.000 C 
ATOM     22  O   UNL     1      -2.564  12.359  21.572  0.00  0.00    +0.000 OA
ATOM     23  C   UNL     1      -1.372  12.243  20.912  0.00  0.00    +0.000 C 
ATOM     24  O   UNL     1      -1.196  12.604  19.762  0.00  0.00    +0.000 OA
ENDBRANCH  18  19
ENDBRANCH   6  18
TORSDOF 4
ENDMDL
MODEL 5
REMARK VINA RESULT:      -7.1      2.090      3.748
REMARK  Name = 
REMARK  6 active torsions:
REMARK  status: ('A' for Active; 'I' for Inactive)
REMARK    1  A    between atoms: C_1  and  C_2
REMARK    2  A    between atoms: C_4  and  O_5
REMARK    3  A    between atoms: O_5  and  C_6
REMARK    4  A    between atoms: C_11  and  C_13
REMARK    5  A    between atoms: C_13  and  N_14
REMARK    6  A    between atoms: C_22  and  C_23
REMARK                            x       y       z     vdW  Elec       q    Type
REMARK                         _______ _______ _______ _____ _____    ______ ____
ROOT
ATOM      1  C   UNL     1       2.674   7.293  19.215  0.00  0.00    +0.000 C 
ATOM      2  C   UNL     1       2.385   7.875  17.818  0.00  0.00    +0.000 C 
ATOM      3  C   UNL     1       2.022   9.361  17.905  0.00  0.00    +0.000 C 
ATOM      4  C   UNL     1       0.843   9.588  18.845  0.00  0.00    +0.000 C 
ATOM      5  N   UNL     1       1.117   8.992  20.155  0.00  0.00    +0.000 N 
ATOM      6  C   UNL     1       1.157   9.680  21.365  0.00  0.00    +0.000 C 
ATOM      7  O   UNL     1       1.401   9.094  22.427  0.00  0.00    +0.000 OA
ATOM      8  C   UNL     1       1.455   7.563  20.120  0.00  0.00    +0.000 C 
ENDROOT
BRANCH   1   9
ATOM      9  O   UNL     1       2.894   5.868  19.160  0.00  0.00    +0.000 OA
BRANCH   9  13
ATOM     10  C   UNL     1       5.493   3.950  15.512  0.00  0.00    +0.000 C 
ATOM     11  C   UNL     1       5.357   4.647  16.834  0.00  0.00    +0.000 A 
ATOM     12  C   UNL     1       4.125   5.039  17.318  0.00  0.00    +0.000 A 
ATOM     13  C   UNL     1       4.114   5.531  18.603  0.00  0.00    +0.000 A 
ATOM     14  N   UNL     1       5.222   5.727  19.332  0.00  0.00    +0.000 NA
ATOM     15  C   UNL     1       6.381   5.382  18.756  0.00  0.00    +0.000 A 
ATOM     16  C   UNL     1       7.635   5.638  19.531  0.00  0.00    +0.000 C 
ATOM     17  N   UNL     1       6.496   4.826  17.536  0.00  0.00    +0.000 NA
ENDBRANCH   9  13
ENDBRANCH   1   9
BRANCH   6  18
ATOM     18  C   UNL     1       0.875  11.194  21.335  0.00  0.00    +0.000 C 
BRANCH  18  19
ATOM     19  N   UNL     1      -0.481  11.558  21.716  0.00  0.00    +0.000 N 
ATOM     20  C   UNL     1      -1.059  11.266  22.991  0.00  0.00    +0.000 C 
ATOM     21  C   UNL     1      -2.381  11.996  22.919  0.00  0.00    +0.000 C 
ATOM     22  O   UNL     1      -2.596  12.260  21.526  0.00  0.00    +0.000 OA
ATOM     23  C   UNL     1      -1.409  12.095  20.867  0.00  0.00    +0.000 C 
ATOM     24  O   UNL     1      -1.247  12.352  19.687  0.00  0.00    +0.000 OA
ENDBRANCH  18  19
ENDBRANCH   6  18
TORSDOF 4
ENDMDL
MODEL 6
REMARK VINA RESULT:      -7.0      2.098      6.903
REMARK  Name = 
REMARK  6 active torsions:
REMARK  status: ('A' for Active; 'I' for Inactive)
REMARK    1  A    between atoms: C_1  and  C_2
REMARK    2  A    between atoms: C_4  and  O_5
REMARK    3  A    between atoms: O_5  and  C_6
REMARK    4  A    between atoms: C_11  and  C_13
REMARK    5  A    between atoms: C_13  and  N_14
REMARK    6  A    between atoms: C_22  and  C_23
REMARK                            x       y       z     vdW  Elec       q    Type
REMARK                         _______ _______ _______ _____ _____    ______ ____
ROOT
ATOM      1  C   UNL     1       2.393   5.020  20.532  0.00  0.00    +0.000 C 
ATOM      2  C   UNL     1       2.386   3.606  21.146  0.00  0.00    +0.000 C 
ATOM      3  C   UNL     1       3.427   2.708  20.471  0.00  0.00    +0.000 C 
ATOM      4  C   UNL     1       3.213   2.650  18.962  0.00  0.00    +0.000 C 
ATOM      5  N   UNL     1       3.181   4.003  18.402  0.00  0.00    +0.000 N 
ATOM      6  C   UNL     1       4.050   4.499  17.434  0.00  0.00    +0.000 C 
ATOM      7  O   UNL     1       3.952   5.661  17.020  0.00  0.00    +0.000 OA
ATOM      8  C   UNL     1       2.185   4.895  19.010  0.00  0.00    +0.000 C 
ENDROOT
BRANCH   1   9
ATOM      9  O   UNL     1       1.334   5.837  21.072  0.00  0.00    +0.000 OA
BRANCH   9  13
ATOM     10  C   UNL     1       0.201  10.548  21.585  0.00  0.00    +0.000 C 
ATOM     11  C   UNL     1       0.847   9.399  20.868  0.00  0.00    +0.000 A 
ATOM     12  C   UNL     1       0.871   8.131  21.415  0.00  0.00    +0.000 A 
ATOM     13  C   UNL     1       1.358   7.135  20.598  0.00  0.00    +0.000 A 
ATOM     14  N   UNL     1       1.877   7.359  19.383  0.00  0.00    +0.000 NA
ATOM     15  C   UNL     1       1.876   8.631  18.961  0.00  0.00    +0.000 A 
ATOM     16  C   UNL     1       2.496   8.912  17.629  0.00  0.00    +0.000 C 
ATOM     17  N   UNL     1       1.359   9.666  19.648  0.00  0.00    +0.000 NA
ENDBRANCH   9  13
ENDBRANCH   1   9
BRANCH   6  18
ATOM     18  C   UNL     1       5.130   3.546  16.888  0.00  0.00    +0.000 C 
BRANCH  18  19
ATOM     19  N   UNL     1       6.009   4.144  15.894  0.00  0.00    +0.000 N 
ATOM     20  C   UNL     1       5.828   4.009  14.482  0.00  0.00    +0.000 C 
ATOM     21  C   UNL     1       6.884   4.940  13.933  0.00  0.00    +0.000 C 
ATOM     22  O   UNL     1       7.791   5.172  15.018  0.00  0.00    +0.000 OA
ATOM     23  C   UNL     1       7.183   4.785  16.180  0.00  0.00    +0.000 C 
ATOM     24  O   UNL     1       7.662   4.958  17.287  0.00  0.00    +0.000 OA
ENDBRANCH  18  19
ENDBRANCH   6  18
TORSDOF 4
ENDMDL
MODEL 7
REMARK VINA RESULT:      -7.0      2.689      7.370
REMARK  Name = 
REMARK  6 active torsions:
REMARK  status: ('A' for Active; 'I' for Inactive)
REMARK    1  A    between atoms: C_1  and  C_2
REMARK    2  A    between atoms: C_4  and  O_5
REMARK    3  A    between atoms: O_5  and  C_6
REMARK    4  A    between atoms: C_11  and  C_13
REMARK    5  A    between atoms: C_13  and  N_14
REMARK    6  A    between atoms: C_22  and  C_23
REMARK                            x       y       z     vdW  Elec       q    Type
REMARK                         _______ _______ _______ _____ _____    ______ ____
ROOT
ATOM      1  C   UNL     1       2.491   7.747  17.843  0.00  0.00    +0.000 C 
ATOM      2  C   UNL     1       3.863   7.324  17.286  0.00  0.00    +0.000 C 
ATOM      3  C   UNL     1       4.226   5.905  17.736  0.00  0.00    +0.000 C 
ATOM      4  C   UNL     1       4.191   5.781  19.255  0.00  0.00    +0.000 C 
ATOM      5  N   UNL     1       2.895   6.227  19.771  0.00  0.00    +0.000 N 
ATOM      6  C   UNL     1       2.006   5.449  20.508  0.00  0.00    +0.000 C 
ATOM      7  O   UNL     1       0.927   5.909  20.902  0.00  0.00    +0.000 OA
ATOM      8  C   UNL     1       2.514   7.589  19.377  0.00  0.00    +0.000 C 
ENDROOT
BRANCH   1   9
ATOM      9  O   UNL     1       2.194   9.125  17.531  0.00  0.00    +0.000 OA
BRANCH   9  13
ATOM     10  C   UNL     1      -2.611   9.928  17.584  0.00  0.00    +0.000 C 
ATOM     11  C   UNL     1      -1.247   9.940  18.209  0.00  0.00    +0.000 A 
ATOM     12  C   UNL     1      -0.156   9.388  17.567  0.00  0.00    +0.000 A 
ATOM     13  C   UNL     1       1.063   9.593  18.173  0.00  0.00    +0.000 A 
ATOM     14  N   UNL     1       1.209  10.196  19.362  0.00  0.00    +0.000 NA
ATOM     15  C   UNL     1       0.088  10.639  19.945  0.00  0.00    +0.000 A 
ATOM     16  C   UNL     1       0.220  11.270  21.295  0.00  0.00    +0.000 C 
ATOM     17  N   UNL     1      -1.142  10.555  19.406  0.00  0.00    +0.000 NA
ENDBRANCH   9  13
ENDBRANCH   1   9
BRANCH   6  18
ATOM     18  C   UNL     1       2.419   3.999  20.825  0.00  0.00    +0.000 C 
BRANCH  18  19
ATOM     19  N   UNL     1       2.636   3.167  19.650  0.00  0.00    +0.000 N 
ATOM     20  C   UNL     1       1.675   2.995  18.605  0.00  0.00    +0.000 C 
ATOM     21  C   UNL     1       2.454   2.200  17.582  0.00  0.00    +0.000 C 
ATOM     22  O   UNL     1       3.579   1.663  18.291  0.00  0.00    +0.000 OA
ATOM     23  C   UNL     1       3.715   2.347  19.467  0.00  0.00    +0.000 C 
ATOM     24  O   UNL     1       4.645   2.193  20.238  0.00  0.00    +0.000 OA
ENDBRANCH  18  19
ENDBRANCH   6  18
TORSDOF 4
ENDMDL
MODEL 8
REMARK VINA RESULT:      -7.0      0.681      1.205
REMARK  Name = 
REMARK  6 active torsions:
REMARK  status: ('A' for Active; 'I' for Inactive)
REMARK    1  A    between atoms: C_1  and  C_2
REMARK    2  A    between atoms: C_4  and  O_5
REMARK    3  A    between atoms: O_5  and  C_6
REMARK    4  A    between atoms: C_11  and  C_13
REMARK    5  A    between atoms: C_13  and  N_14
REMARK    6  A    between atoms: C_22  and  C_23
REMARK                            x       y       z     vdW  Elec       q    Type
REMARK                         _______ _______ _______ _____ _____    ______ ____
ROOT
ATOM      1  C   UNL     1       3.632   4.529  18.831  0.00  0.00    +0.000 C 
ATOM      2  C   UNL     1       2.747   3.696  19.778  0.00  0.00    +0.000 C 
ATOM      3  C   UNL     1       1.407   4.393  20.035  0.00  0.00    +0.000 C 
ATOM      4  C   UNL     1       1.613   5.803  20.578  0.00  0.00    +0.000 C 
ATOM      5  N   UNL     1       2.490   6.567  19.688  0.00  0.00    +0.000 N 
ATOM      6  C   UNL     1       2.150   7.751  19.038  0.00  0.00    +0.000 C 
ATOM      7  O   UNL     1       2.956   8.329  18.298  0.00  0.00    +0.000 OA
ATOM      8  C   UNL     1       3.793   5.943  19.426  0.00  0.00    +0.000 C 
ENDROOT
BRANCH   1   9
ATOM      9  O   UNL     1       4.943   3.945  18.681  0.00  0.00    +0.000 OA
BRANCH   9  13
ATOM     10  C   UNL     1       7.898   7.685  17.667  0.00  0.00    +0.000 C 
ATOM     11  C   UNL     1       7.190   6.408  17.320  0.00  0.00    +0.000 A 
ATOM     12  C   UNL     1       6.466   5.706  18.263  0.00  0.00    +0.000 A 
ATOM     13  C   UNL     1       5.743   4.635  17.789  0.00  0.00    +0.000 A 
ATOM     14  N   UNL     1       5.793   4.210  16.518  0.00  0.00    +0.000 NA
ATOM     15  C   UNL     1       6.576   4.910  15.687  0.00  0.00    +0.000 A 
ATOM     16  C   UNL     1       6.687   4.424  14.277  0.00  0.00    +0.000 C 
ATOM     17  N   UNL     1       7.266   6.013  16.031  0.00  0.00    +0.000 NA
ENDBRANCH   9  13
ENDBRANCH   1   9
BRANCH   6  18
ATOM     18  C   UNL     1       0.741   8.322  19.283  0.00  0.00    +0.000 C 
BRANCH  18  19
ATOM     19  N   UNL     1       0.634   9.167  20.463  0.00  0.00    +0.000 N 
ATOM     20  C   UNL     1       0.071   8.738  21.706  0.00  0.00    +0.000 C 
ATOM     21  C   UNL     1       0.360   9.913  22.611  0.00  0.00    +0.000 C 
ATOM     22  O   UNL     1       0.660  11.007  21.734  0.00  0.00    +0.000 OA
ATOM     23  C   UNL     1       0.926  10.503  20.491  0.00  0.00    +0.000 C 
ATOM     24  O   UNL     1       1.319  11.178  19.555  0.00  0.00    +0.000 OA
ENDBRANCH  18  19
ENDBRANCH   6  18
TORSDOF 4
ENDMDL
MODEL 9
REMARK VINA RESULT:      -7.0      1.194      2.170
REMARK  Name = 
REMARK  6 active torsions:
REMARK  status: ('A' for Active; 'I' for Inactive)
REMARK    1  A    between atoms: C_1  and  C_2
REMARK    2  A    between atoms: C_4  and  O_5
REMARK    3  A    between atoms: O_5  and  C_6
REMARK    4  A    between atoms: C_11  and  C_13
REMARK    5  A    between atoms: C_13  and  N_14
REMARK    6  A    between atoms: C_22  and  C_23
REMARK                            x       y       z     vdW  Elec       q    Type
REMARK                         _______ _______ _______ _____ _____    ______ ____
ROOT
ATOM      1  C   UNL     1       3.349   4.189  18.779  0.00  0.00    +0.000 C 
ATOM      2  C   UNL     1       2.508   3.290  19.706  0.00  0.00    +0.000 C 
ATOM      3  C   UNL     1       1.259   4.027  20.202  0.00  0.00    +0.000 C 
ATOM      4  C   UNL     1       1.627   5.334  20.895  0.00  0.00    +0.000 C 
ATOM      5  N   UNL     1       2.461   6.157  20.016  0.00  0.00    +0.000 N 
ATOM      6  C   UNL     1       2.147   7.437  19.567  0.00  0.00    +0.000 C 
ATOM      7  O   UNL     1       2.912   8.060  18.821  0.00  0.00    +0.000 OA
ATOM      8  C   UNL     1       3.678   5.495  19.529  0.00  0.00    +0.000 C 
ENDROOT
BRANCH   1   9
ATOM      9  O   UNL     1       4.589   3.552  18.407  0.00  0.00    +0.000 OA
BRANCH   9  13
ATOM     10  C   UNL     1       6.136   4.159  13.827  0.00  0.00    +0.000 C 
ATOM     11  C   UNL     1       6.011   4.578  15.262  0.00  0.00    +0.000 A 
ATOM     12  C   UNL     1       5.220   3.878  16.151  0.00  0.00    +0.000 A 
ATOM     13  C   UNL     1       5.305   4.270  17.467  0.00  0.00    +0.000 A 
ATOM     14  N   UNL     1       6.021   5.324  17.883  0.00  0.00    +0.000 NA
ATOM     15  C   UNL     1       6.703   5.988  16.941  0.00  0.00    +0.000 A 
ATOM     16  C   UNL     1       7.468   7.199  17.373  0.00  0.00    +0.000 C 
ATOM     17  N   UNL     1       6.747   5.646  15.640  0.00  0.00    +0.000 NA
ENDBRANCH   9  13
ENDBRANCH   1   9
BRANCH   6  18
ATOM     18  C   UNL     1       0.818   8.054  20.042  0.00  0.00    +0.000 C 
BRANCH  18  19
ATOM     19  N   UNL     1       0.778   9.508  19.984  0.00  0.00    +0.000 N 
ATOM     20  C   UNL     1       1.001  10.360  21.110  0.00  0.00    +0.000 C 
ATOM     21  C   UNL     1       1.017  11.732  20.477  0.00  0.00    +0.000 C 
ATOM     22  O   UNL     1       0.409  11.565  19.189  0.00  0.00    +0.000 OA
ATOM     23  C   UNL     1       0.391  10.231  18.890  0.00  0.00    +0.000 C 
ATOM     24  O   UNL     1       0.033   9.782  17.815  0.00  0.00    +0.000 OA
ENDBRANCH  18  19
ENDBRANCH   6  18
TORSDOF 4
ENDMDL
