MODEL 1
REMARK VINA RESULT:      -8.3      0.000      0.000
REMARK  Name = 
REMARK  11 active torsions:
REMARK  status: ('A' for Active; 'I' for Inactive)
REMARK    1  A    between atoms: C_1  and  C_2
REMARK    2  A    between atoms: C_2  and  C_3
REMARK    3  A    between atoms: C_2  and  C_4
REMARK    4  A    between atoms: C_2  and  C_5
REMARK    5  A    between atoms: C_8  and  C_9
REMARK    6  A    between atoms: N_11  and  C_12
REMARK    7  A    between atoms: C_17  and  C_18
REMARK    8  A    between atoms: N_20  and  C_21
REMARK    9  A    between atoms: C_25  and  C_26
REMARK   10  A    between atoms: C_26  and  C_27
REMARK   11  A    between atoms: C_27  and  O_29
REMARK                            x       y       z     vdW  Elec       q    Type
REMARK                         _______ _______ _______ _____ _____    ______ ____
ROOT
ATOM      1  C   UNL     1       6.224   6.160  16.546  0.00  0.00    +0.000 A 
ATOM      2  C   UNL     1       6.800   5.457  15.473  0.00  0.00    +0.000 A 
ATOM      3  C   UNL     1       6.378   4.165  15.149  0.00  0.00    +0.000 A 
ATOM      4  C   UNL     1       5.353   3.569  15.870  0.00  0.00    +0.000 A 
ATOM      5  C   UNL     1       4.744   4.273  16.907  0.00  0.00    +0.000 A 
ATOM      6  C   UNL     1       5.157   5.577  17.256  0.00  0.00    +0.000 A 
ENDROOT
BRANCH   1   9
ATOM      7  C   UNL     1       7.689   7.567  17.907  0.00  0.00    +0.000 C 
ATOM      8  O   UNL     1       8.051   6.646  18.631  0.00  0.00    +0.000 OA
ATOM      9  N   UNL     1       6.812   7.416  16.842  0.00  0.00    +0.000 N 
ATOM     10  H   UNL     1       7.034   7.996  16.042  0.00  0.00    +0.000 HD
BRANCH   7  14
ATOM     11  C   UNL     1       9.243  11.523  18.756  0.00  0.00    +0.000 A 
ATOM     12  C   UNL     1       9.575  10.402  19.532  0.00  0.00    +0.000 A 
ATOM     13  C   UNL     1       9.077   9.132  19.226  0.00  0.00    +0.000 A 
ATOM     14  C   UNL     1       8.228   8.942  18.135  0.00  0.00    +0.000 A 
ATOM     15  C   UNL     1       7.877  10.046  17.352  0.00  0.00    +0.000 A 
ATOM     16  C   UNL     1       8.381  11.317  17.663  0.00  0.00    +0.000 A 
BRANCH  11  18
ATOM     17  C   UNL     1      10.576  13.003  20.394  0.00  0.00    +0.000 C 
ATOM     18  C   UNL     1       9.798  12.927  19.060  0.00  0.00    +0.000 C 
ATOM     19  C   UNL     1       8.654  13.958  19.141  0.00  0.00    +0.000 C 
ATOM     20  C   UNL     1      10.772  13.343  17.937  0.00  0.00    +0.000 C 
ENDBRANCH  11  18
ENDBRANCH   7  14
ENDBRANCH   1   9
BRANCH   6  21
ATOM     21  C   UNL     1       4.320   6.217  18.316  0.00  0.00    +0.000 C 
ATOM     22  O   UNL     1       4.379   5.737  19.447  0.00  0.00    +0.000 OA
ATOM     23  N   UNL     1       3.473   7.254  17.931  0.00  0.00    +0.000 N 
ATOM     24  H   UNL     1       3.633   7.654  17.016  0.00  0.00    +0.000 HD
BRANCH  23  25
ATOM     25  C   UNL     1       2.488   7.864  18.746  0.00  0.00    +0.000 A 
ATOM     26  C   UNL     1       2.118   7.351  19.994  0.00  0.00    +0.000 A 
ATOM     27  C   UNL     1       1.155   7.987  20.777  0.00  0.00    +0.000 A 
ATOM     28  C   UNL     1       0.535   9.142  20.318  0.00  0.00    +0.000 A 
ATOM     29  C   UNL     1       0.853   9.663  19.057  0.00  0.00    +0.000 A 
ATOM     30  C   UNL     1       1.839   9.017  18.279  0.00  0.00    +0.000 A 
BRANCH  29  31
ATOM     31  C   UNL     1       0.193  10.957  18.630  0.00  0.00    +0.000 C 
BRANCH  31  32
ATOM     32  C   UNL     1      -1.252  10.846  18.210  0.00  0.00    +0.000 C 
ATOM     33  O   UNL     1      -2.193  11.199  18.905  0.00  0.00    +0.000 OA
BRANCH  32  34
ATOM     34  O   UNL     1      -1.429  10.273  16.997  0.00  0.00    +0.000 OA
ATOM     35  H   UNL     1      -1.475   9.297  17.035  0.00  0.00    +0.000 HD
ENDBRANCH  32  34
ENDBRANCH  31  32
ENDBRANCH  29  31
ENDBRANCH  23  25
ENDBRANCH   6  21
TORSDOF 8
ENDMDL
MODEL 2
REMARK VINA RESULT:      -8.3      4.609      7.529
REMARK  Name = 
REMARK  11 active torsions:
REMARK  status: ('A' for Active; 'I' for Inactive)
REMARK    1  A    between atoms: C_1  and  C_2
REMARK    2  A    between atoms: C_2  and  C_3
REMARK    3  A    between atoms: C_2  and  C_4
REMARK    4  A    between atoms: C_2  and  C_5
REMARK    5  A    between atoms: C_8  and  C_9
REMARK    6  A    between atoms: N_11  and  C_12
REMARK    7  A    between atoms: C_17  and  C_18
REMARK    8  A    between atoms: N_20  and  C_21
REMARK    9  A    between atoms: C_25  and  C_26
REMARK   10  A    between atoms: C_26  and  C_27
REMARK   11  A    between atoms: C_27  and  O_29
REMARK                            x       y       z     vdW  Elec       q    Type
REMARK                         _______ _______ _______ _____ _____    ______ ____
ROOT
ATOM      1  C   UNL     1       0.983   9.092  21.031  0.00  0.00    +0.000 A 
ATOM      2  C   UNL     1       1.197   8.855  22.400  0.00  0.00    +0.000 A 
ATOM      3  C   UNL     1       0.428   9.500  23.371  0.00  0.00    +0.000 A 
ATOM      4  C   UNL     1      -0.587  10.366  22.990  0.00  0.00    +0.000 A 
ATOM      5  C   UNL     1      -0.840  10.573  21.636  0.00  0.00    +0.000 A 
ATOM      6  C   UNL     1      -0.072   9.936  20.636  0.00  0.00    +0.000 A 
ENDROOT
BRANCH   1   9
ATOM      7  C   UNL     1       1.997   7.078  20.084  0.00  0.00    +0.000 C 
ATOM      8  O   UNL     1       1.293   6.311  20.730  0.00  0.00    +0.000 OA
ATOM      9  N   UNL     1       1.898   8.461  20.149  0.00  0.00    +0.000 N 
ATOM     10  H   UNL     1       2.043   8.926  19.261  0.00  0.00    +0.000 HD
BRANCH   7  14
ATOM     11  C   UNL     1       5.052   5.443  17.481  0.00  0.00    +0.000 A 
ATOM     12  C   UNL     1       4.765   4.896  18.740  0.00  0.00    +0.000 A 
ATOM     13  C   UNL     1       3.760   5.428  19.554  0.00  0.00    +0.000 A 
ATOM     14  C   UNL     1       3.011   6.529  19.135  0.00  0.00    +0.000 A 
ATOM     15  C   UNL     1       3.285   7.096  17.887  0.00  0.00    +0.000 A 
ATOM     16  C   UNL     1       4.292   6.556  17.075  0.00  0.00    +0.000 A 
BRANCH  11  18
ATOM     17  C   UNL     1       7.469   4.565  17.287  0.00  0.00    +0.000 C 
ATOM     18  C   UNL     1       6.138   4.858  16.558  0.00  0.00    +0.000 C 
ATOM     19  C   UNL     1       6.454   5.833  15.406  0.00  0.00    +0.000 C 
ATOM     20  C   UNL     1       5.636   3.524  15.964  0.00  0.00    +0.000 C 
ENDBRANCH  11  18
ENDBRANCH   7  14
ENDBRANCH   1   9
BRANCH   6  21
ATOM     21  C   UNL     1      -0.555  10.190  19.245  0.00  0.00    +0.000 C 
ATOM     22  O   UNL     1       0.256  10.649  18.441  0.00  0.00    +0.000 OA
ATOM     23  N   UNL     1      -1.905   9.968  18.979  0.00  0.00    +0.000 N 
ATOM     24  H   UNL     1      -2.424   9.448  19.673  0.00  0.00    +0.000 HD
BRANCH  23  25
ATOM     25  C   UNL     1      -2.579  10.312  17.782  0.00  0.00    +0.000 A 
ATOM     26  C   UNL     1      -2.167   9.856  16.526  0.00  0.00    +0.000 A 
ATOM     27  C   UNL     1      -2.865  10.202  15.369  0.00  0.00    +0.000 A 
ATOM     28  C   UNL     1      -3.983  11.023  15.449  0.00  0.00    +0.000 A 
ATOM     29  C   UNL     1      -4.403  11.528  16.686  0.00  0.00    +0.000 A 
ATOM     30  C   UNL     1      -3.695  11.160  17.851  0.00  0.00    +0.000 A 
BRANCH  29  31
ATOM     31  C   UNL     1      -5.662  12.369  16.726  0.00  0.00    +0.000 C 
BRANCH  31  32
ATOM     32  C   UNL     1      -6.237  12.620  18.099  0.00  0.00    +0.000 C 
ATOM     33  O   UNL     1      -7.079  11.909  18.626  0.00  0.00    +0.000 OA
BRANCH  32  34
ATOM     34  O   UNL     1      -5.768  13.743  18.693  0.00  0.00    +0.000 OA
ATOM     35  H   UNL     1      -5.582  13.626  19.646  0.00  0.00    +0.000 HD
ENDBRANCH  32  34
ENDBRANCH  31  32
ENDBRANCH  29  31
ENDBRANCH  23  25
ENDBRANCH   6  21
TORSDOF 8
ENDMDL
MODEL 3
REMARK VINA RESULT:      -8.3      4.741      8.195
REMARK  Name = 
REMARK  11 active torsions:
REMARK  status: ('A' for Active; 'I' for Inactive)
REMARK    1  A    between atoms: C_1  and  C_2
REMARK    2  A    between atoms: C_2  and  C_3
REMARK    3  A    between atoms: C_2  and  C_4
REMARK    4  A    between atoms: C_2  and  C_5
REMARK    5  A    between atoms: C_8  and  C_9
REMARK    6  A    between atoms: N_11  and  C_12
REMARK    7  A    between atoms: C_17  and  C_18
REMARK    8  A    between atoms: N_20  and  C_21
REMARK    9  A    between atoms: C_25  and  C_26
REMARK   10  A    between atoms: C_26  and  C_27
REMARK   11  A    between atoms: C_27  and  O_29
REMARK                            x       y       z     vdW  Elec       q    Type
REMARK                         _______ _______ _______ _____ _____    ______ ____
ROOT
ATOM      1  C   UNL     1       2.178   4.179  18.820  0.00  0.00    +0.000 A 
ATOM      2  C   UNL     1       1.500   3.352  19.733  0.00  0.00    +0.000 A 
ATOM      3  C   UNL     1       1.743   1.977  19.777  0.00  0.00    +0.000 A 
ATOM      4  C   UNL     1       2.689   1.412  18.934  0.00  0.00    +0.000 A 
ATOM      5  C   UNL     1       3.400   2.228  18.056  0.00  0.00    +0.000 A 
ATOM      6  C   UNL     1       3.169   3.619  17.990  0.00  0.00    +0.000 A 
ENDROOT
BRANCH   1   9
ATOM      7  C   UNL     1       2.477   6.514  19.480  0.00  0.00    +0.000 C 
ATOM      8  O   UNL     1       3.511   6.300  20.102  0.00  0.00    +0.000 OA
ATOM      9  N   UNL     1       1.766   5.536  18.798  0.00  0.00    +0.000 N 
ATOM     10  H   UNL     1       1.356   5.857  17.929  0.00  0.00    +0.000 HD
BRANCH   7  14
ATOM     11  C   UNL     1       0.765  10.495  19.379  0.00  0.00    +0.000 A 
ATOM     12  C   UNL     1       0.782   9.712  20.544  0.00  0.00    +0.000 A 
ATOM     13  C   UNL     1       1.359   8.439  20.557  0.00  0.00    +0.000 A 
ATOM     14  C   UNL     1       1.935   7.904  19.404  0.00  0.00    +0.000 A 
ATOM     15  C   UNL     1       1.922   8.662  18.229  0.00  0.00    +0.000 A 
ATOM     16  C   UNL     1       1.344   9.940  18.223  0.00  0.00    +0.000 A 
BRANCH  11  18
ATOM     17  C   UNL     1      -1.014  12.051  18.349  0.00  0.00    +0.000 C 
ATOM     18  C   UNL     1       0.157  11.909  19.348  0.00  0.00    +0.000 C 
ATOM     19  C   UNL     1       1.224  12.949  18.950  0.00  0.00    +0.000 C 
ATOM     20  C   UNL     1      -0.389  12.260  20.749  0.00  0.00    +0.000 C 
ENDBRANCH  11  18
ENDBRANCH   7  14
ENDBRANCH   1   9
BRANCH   6  21
ATOM     21  C   UNL     1       4.098   4.347  17.073  0.00  0.00    +0.000 C 
ATOM     22  O   UNL     1       3.859   5.534  16.855  0.00  0.00    +0.000 OA
ATOM     23  N   UNL     1       5.115   3.612  16.469  0.00  0.00    +0.000 N 
ATOM     24  H   UNL     1       5.298   2.694  16.849  0.00  0.00    +0.000 HD
BRANCH  23  25
ATOM     25  C   UNL     1       5.980   4.080  15.449  0.00  0.00    +0.000 A 
ATOM     26  C   UNL     1       6.955   5.057  15.675  0.00  0.00    +0.000 A 
ATOM     27  C   UNL     1       7.799   5.483  14.650  0.00  0.00    +0.000 A 
ATOM     28  C   UNL     1       7.673   4.946  13.375  0.00  0.00    +0.000 A 
ATOM     29  C   UNL     1       6.683   3.993  13.103  0.00  0.00    +0.000 A 
ATOM     30  C   UNL     1       5.843   3.561  14.152  0.00  0.00    +0.000 A 
BRANCH  29  31
ATOM     31  C   UNL     1       6.628   3.395  11.712  0.00  0.00    +0.000 C 
BRANCH  31  32
ATOM     32  C   UNL     1       5.505   2.417  11.466  0.00  0.00    +0.000 C 
ATOM     33  O   UNL     1       4.344   2.746  11.270  0.00  0.00    +0.000 OA
BRANCH  32  34
ATOM     34  O   UNL     1       5.885   1.119  11.525  0.00  0.00    +0.000 OA
ATOM     35  H   UNL     1       6.454   0.849  10.777  0.00  0.00    +0.000 HD
ENDBRANCH  32  34
ENDBRANCH  31  32
ENDBRANCH  29  31
ENDBRANCH  23  25
ENDBRANCH   6  21
TORSDOF 8
ENDMDL
MODEL 4
REMARK VINA RESULT:      -8.2      2.282      7.718
REMARK  Name = 
REMARK  11 active torsions:
REMARK  status: ('A' for Active; 'I' for Inactive)
REMARK    1  A    between atoms: C_1  and  C_2
REMARK    2  A    between atoms: C_2  and  C_3
REMARK    3  A    between atoms: C_2  and  C_4
REMARK    4  A    between atoms: C_2  and  C_5
REMARK    5  A    between atoms: C_8  and  C_9
REMARK    6  A    between atoms: N_11  and  C_12
REMARK    7  A    between atoms: C_17  and  C_18
REMARK    8  A    between atoms: N_20  and  C_21
REMARK    9  A    between atoms: C_25  and  C_26
REMARK   10  A    between atoms: C_26  and  C_27
REMARK   11  A    between atoms: C_27  and  O_29
REMARK                            x       y       z     vdW  Elec       q    Type
REMARK                         _______ _______ _______ _____ _____    ______ ____
ROOT
ATOM      1  C   UNL     1       5.303   6.134  16.951  0.00  0.00    +0.000 A 
ATOM      2  C   UNL     1       4.670   5.116  16.215  0.00  0.00    +0.000 A 
ATOM      3  C   UNL     1       5.408   4.239  15.417  0.00  0.00    +0.000 A 
ATOM      4  C   UNL     1       6.790   4.343  15.366  0.00  0.00    +0.000 A 
ATOM      5  C   UNL     1       7.433   5.319  16.126  0.00  0.00    +0.000 A 
ATOM      6  C   UNL     1       6.708   6.220  16.936  0.00  0.00    +0.000 A 
ENDROOT
BRANCH   1   9
ATOM      7  C   UNL     1       3.177   6.623  18.055  0.00  0.00    +0.000 C 
ATOM      8  O   UNL     1       2.739   5.487  17.914  0.00  0.00    +0.000 OA
ATOM      9  N   UNL     1       4.437   7.025  17.634  0.00  0.00    +0.000 N 
ATOM     10  H   UNL     1       4.888   7.683  18.259  0.00  0.00    +0.000 HD
BRANCH   7  14
ATOM     11  C   UNL     1       0.858   9.752  19.957  0.00  0.00    +0.000 A 
ATOM     12  C   UNL     1       1.247   9.817  18.610  0.00  0.00    +0.000 A 
ATOM     13  C   UNL     1       1.977   8.784  18.013  0.00  0.00    +0.000 A 
ATOM     14  C   UNL     1       2.346   7.655  18.745  0.00  0.00    +0.000 A 
ATOM     15  C   UNL     1       1.977   7.573  20.091  0.00  0.00    +0.000 A 
ATOM     16  C   UNL     1       1.242   8.610  20.683  0.00  0.00    +0.000 A 
BRANCH  11  18
ATOM     17  C   UNL     1      -0.467  10.491  22.042  0.00  0.00    +0.000 C 
ATOM     18  C   UNL     1       0.033  10.866  20.628  0.00  0.00    +0.000 C 
ATOM     19  C   UNL     1      -1.210  11.205  19.780  0.00  0.00    +0.000 C 
ATOM     20  C   UNL     1       0.906  12.131  20.769  0.00  0.00    +0.000 C 
ENDBRANCH  11  18
ENDBRANCH   7  14
ENDBRANCH   1   9
BRANCH   6  21
ATOM     21  C   UNL     1       7.567   7.122  17.762  0.00  0.00    +0.000 C 
ATOM     22  O   UNL     1       8.018   6.666  18.812  0.00  0.00    +0.000 OA
ATOM     23  N   UNL     1       7.729   8.435  17.326  0.00  0.00    +0.000 N 
ATOM     24  H   UNL     1       7.441   8.638  16.379  0.00  0.00    +0.000 HD
BRANCH  23  25
ATOM     25  C   UNL     1       8.357   9.476  18.053  0.00  0.00    +0.000 A 
ATOM     26  C   UNL     1       8.832   9.306  19.357  0.00  0.00    +0.000 A 
ATOM     27  C   UNL     1       9.460  10.349  20.038  0.00  0.00    +0.000 A 
ATOM     28  C   UNL     1       9.611  11.588  19.427  0.00  0.00    +0.000 A 
ATOM     29  C   UNL     1       9.114  11.806  18.136  0.00  0.00    +0.000 A 
ATOM     30  C   UNL     1       8.492  10.738  17.453  0.00  0.00    +0.000 A 
BRANCH  29  31
ATOM     31  C   UNL     1       9.359  13.155  17.492  0.00  0.00    +0.000 C 
BRANCH  31  32
ATOM     32  C   UNL     1      10.765  13.400  17.002  0.00  0.00    +0.000 C 
ATOM     33  O   UNL     1      11.680  12.599  17.126  0.00  0.00    +0.000 OA
BRANCH  32  34
ATOM     34  O   UNL     1      10.946  14.619  16.441  0.00  0.00    +0.000 OA
ATOM     35  H   UNL     1      10.911  14.603  15.464  0.00  0.00    +0.000 HD
ENDBRANCH  32  34
ENDBRANCH  31  32
ENDBRANCH  29  31
ENDBRANCH  23  25
ENDBRANCH   6  21
TORSDOF 8
ENDMDL
MODEL 5
REMARK VINA RESULT:      -8.2      4.487      7.680
REMARK  Name = 
REMARK  11 active torsions:
REMARK  status: ('A' for Active; 'I' for Inactive)
REMARK    1  A    between atoms: C_1  and  C_2
REMARK    2  A    between atoms: C_2  and  C_3
REMARK    3  A    between atoms: C_2  and  C_4
REMARK    4  A    between atoms: C_2  and  C_5
REMARK    5  A    between atoms: C_8  and  C_9
REMARK    6  A    between atoms: N_11  and  C_12
REMARK    7  A    between atoms: C_17  and  C_18
REMARK    8  A    between atoms: N_20  and  C_21
REMARK    9  A    between atoms: C_25  and  C_26
REMARK   10  A    between atoms: C_26  and  C_27
REMARK   11  A    between atoms: C_27  and  O_29
REMARK                            x       y       z     vdW  Elec       q    Type
REMARK                         _______ _______ _______ _____ _____    ______ ____
ROOT
ATOM      1  C   UNL     1       0.845   9.185  21.100  0.00  0.00    +0.000 A 
ATOM      2  C   UNL     1       1.035   8.888  22.461  0.00  0.00    +0.000 A 
ATOM      3  C   UNL     1       0.286   9.530  23.450  0.00  0.00    +0.000 A 
ATOM      4  C   UNL     1      -0.686  10.453  23.094  0.00  0.00    +0.000 A 
ATOM      5  C   UNL     1      -0.916  10.723  21.746  0.00  0.00    +0.000 A 
ATOM      6  C   UNL     1      -0.168  10.090  20.729  0.00  0.00    +0.000 A 
ENDROOT
BRANCH   1   9
ATOM      7  C   UNL     1       1.924   7.173  20.226  0.00  0.00    +0.000 C 
ATOM      8  O   UNL     1       1.316   6.413  20.972  0.00  0.00    +0.000 OA
ATOM      9  N   UNL     1       1.739   8.548  20.202  0.00  0.00    +0.000 N 
ATOM     10  H   UNL     1       1.795   8.954  19.276  0.00  0.00    +0.000 HD
BRANCH   7  14
ATOM     11  C   UNL     1       4.680   5.647  17.249  0.00  0.00    +0.000 A 
ATOM     12  C   UNL     1       4.086   6.914  17.145  0.00  0.00    +0.000 A 
ATOM     13  C   UNL     1       3.217   7.393  18.130  0.00  0.00    +0.000 A 
ATOM     14  C   UNL     1       2.908   6.618  19.249  0.00  0.00    +0.000 A 
ATOM     15  C   UNL     1       3.481   5.348  19.369  0.00  0.00    +0.000 A 
ATOM     16  C   UNL     1       4.355   4.875  18.380  0.00  0.00    +0.000 A 
BRANCH  11  18
ATOM     17  C   UNL     1       5.475   5.757  14.798  0.00  0.00    +0.000 C 
ATOM     18  C   UNL     1       5.660   5.109  16.190  0.00  0.00    +0.000 C 
ATOM     19  C   UNL     1       5.484   3.587  16.011  0.00  0.00    +0.000 C 
ATOM     20  C   UNL     1       7.107   5.399  16.642  0.00  0.00    +0.000 C 
ENDBRANCH  11  18
ENDBRANCH   7  14
ENDBRANCH   1   9
BRANCH   6  21
ATOM     21  C   UNL     1      -0.626  10.417  19.345  0.00  0.00    +0.000 C 
ATOM     22  O   UNL     1       0.106  11.133  18.663  0.00  0.00    +0.000 OA
ATOM     23  N   UNL     1      -1.883   9.959  18.956  0.00  0.00    +0.000 N 
ATOM     24  H   UNL     1      -2.313   9.258  19.543  0.00  0.00    +0.000 HD
BRANCH  23  25
ATOM     25  C   UNL     1      -2.557  10.309  17.759  0.00  0.00    +0.000 A 
ATOM     26  C   UNL     1      -2.135   9.871  16.500  0.00  0.00    +0.000 A 
ATOM     27  C   UNL     1      -2.832  10.222  15.344  0.00  0.00    +0.000 A 
ATOM     28  C   UNL     1      -3.959  11.031  15.428  0.00  0.00    +0.000 A 
ATOM     29  C   UNL     1      -4.388  11.518  16.669  0.00  0.00    +0.000 A 
ATOM     30  C   UNL     1      -3.682  11.145  17.833  0.00  0.00    +0.000 A 
BRANCH  29  31
ATOM     31  C   UNL     1      -5.657  12.345  16.713  0.00  0.00    +0.000 C 
BRANCH  31  32
ATOM     32  C   UNL     1      -6.492  12.195  17.962  0.00  0.00    +0.000 C 
ATOM     33  O   UNL     1      -6.518  13.014  18.868  0.00  0.00    +0.000 OA
BRANCH  32  34
ATOM     34  O   UNL     1      -7.189  11.036  18.019  0.00  0.00    +0.000 OA
ATOM     35  H   UNL     1      -6.687  10.266  17.686  0.00  0.00    +0.000 HD
ENDBRANCH  32  34
ENDBRANCH  31  32
ENDBRANCH  29  31
ENDBRANCH  23  25
ENDBRANCH   6  21
TORSDOF 8
ENDMDL
MODEL 6
REMARK VINA RESULT:      -8.2      4.499      7.759
REMARK  Name = 
REMARK  11 active torsions:
REMARK  status: ('A' for Active; 'I' for Inactive)
REMARK    1  A    between atoms: C_1  and  C_2
REMARK    2  A    between atoms: C_2  and  C_3
REMARK    3  A    between atoms: C_2  and  C_4
REMARK    4  A    between atoms: C_2  and  C_5
REMARK    5  A    between atoms: C_8  and  C_9
REMARK    6  A    between atoms: N_11  and  C_12
REMARK    7  A    between atoms: C_17  and  C_18
REMARK    8  A    between atoms: N_20  and  C_21
REMARK    9  A    between atoms: C_25  and  C_26
REMARK   10  A    between atoms: C_26  and  C_27
REMARK   11  A    between atoms: C_27  and  O_29
REMARK                            x       y       z     vdW  Elec       q    Type
REMARK                         _______ _______ _______ _____ _____    ______ ____
ROOT
ATOM      1  C   UNL     1       0.719   9.278  20.828  0.00  0.00    +0.000 A 
ATOM      2  C   UNL     1       0.953   8.969  22.180  0.00  0.00    +0.000 A 
ATOM      3  C   UNL     1       0.243   9.609  23.198  0.00  0.00    +0.000 A 
ATOM      4  C   UNL     1      -0.733  10.544  22.882  0.00  0.00    +0.000 A 
ATOM      5  C   UNL     1      -1.006  10.826  21.544  0.00  0.00    +0.000 A 
ATOM      6  C   UNL     1      -0.298  10.194  20.498  0.00  0.00    +0.000 A 
ENDROOT
BRANCH   1   9
ATOM      7  C   UNL     1       1.915   7.300  20.029  0.00  0.00    +0.000 C 
ATOM      8  O   UNL     1       1.478   6.569  20.911  0.00  0.00    +0.000 OA
ATOM      9  N   UNL     1       1.577   8.640  19.896  0.00  0.00    +0.000 N 
ATOM     10  H   UNL     1       1.489   8.948  18.935  0.00  0.00    +0.000 HD
BRANCH   7  14
ATOM     11  C   UNL     1       4.698   5.587  17.183  0.00  0.00    +0.000 A 
ATOM     12  C   UNL     1       4.200   4.863  18.277  0.00  0.00    +0.000 A 
ATOM     13  C   UNL     1       3.286   5.431  19.170  0.00  0.00    +0.000 A 
ATOM     14  C   UNL     1       2.844   6.744  19.000  0.00  0.00    +0.000 A 
ATOM     15  C   UNL     1       3.333   7.487  17.922  0.00  0.00    +0.000 A 
ATOM     16  C   UNL     1       4.247   6.911  17.028  0.00  0.00    +0.000 A 
BRANCH  11  18
ATOM     17  C   UNL     1       5.537   5.547  14.745  0.00  0.00    +0.000 C 
ATOM     18  C   UNL     1       5.686   4.974  16.173  0.00  0.00    +0.000 C 
ATOM     19  C   UNL     1       5.484   3.448  16.074  0.00  0.00    +0.000 C 
ATOM     20  C   UNL     1       7.130   5.261  16.635  0.00  0.00    +0.000 C 
ENDBRANCH  11  18
ENDBRANCH   7  14
ENDBRANCH   1   9
BRANCH   6  21
ATOM     21  C   UNL     1      -0.799  10.536  19.132  0.00  0.00    +0.000 C 
ATOM     22  O   UNL     1      -0.084  11.253  18.433  0.00  0.00    +0.000 OA
ATOM     23  N   UNL     1      -2.070  10.089  18.781  0.00  0.00    +0.000 N 
ATOM     24  H   UNL     1      -2.484   9.385  19.376  0.00  0.00    +0.000 HD
BRANCH  23  25
ATOM     25  C   UNL     1      -2.780  10.452  17.610  0.00  0.00    +0.000 A 
ATOM     26  C   UNL     1      -3.825  11.382  17.619  0.00  0.00    +0.000 A 
ATOM     27  C   UNL     1      -4.492  11.728  16.445  0.00  0.00    +0.000 A 
ATOM     28  C   UNL     1      -4.133  11.138  15.239  0.00  0.00    +0.000 A 
ATOM     29  C   UNL     1      -3.116  10.175  15.199  0.00  0.00    +0.000 A 
ATOM     30  C   UNL     1      -2.440   9.843  16.393  0.00  0.00    +0.000 A 
BRANCH  29  31
ATOM     31  C   UNL     1      -2.721   9.607  13.851  0.00  0.00    +0.000 C 
BRANCH  31  32
ATOM     32  C   UNL     1      -3.798   9.622  12.794  0.00  0.00    +0.000 C 
ATOM     33  O   UNL     1      -4.978   9.399  13.020  0.00  0.00    +0.000 OA
BRANCH  32  34
ATOM     34  O   UNL     1      -3.338   9.864  11.544  0.00  0.00    +0.000 OA
ATOM     35  H   UNL     1      -3.841   9.393  10.850  0.00  0.00    +0.000 HD
ENDBRANCH  32  34
ENDBRANCH  31  32
ENDBRANCH  29  31
ENDBRANCH  23  25
ENDBRANCH   6  21
TORSDOF 8
ENDMDL
MODEL 7
REMARK VINA RESULT:      -8.2      1.483      1.555
REMARK  Name = 
REMARK  11 active torsions:
REMARK  status: ('A' for Active; 'I' for Inactive)
REMARK    1  A    between atoms: C_1  and  C_2
REMARK    2  A    between atoms: C_2  and  C_3
REMARK    3  A    between atoms: C_2  and  C_4
REMARK    4  A    between atoms: C_2  and  C_5
REMARK    5  A    between atoms: C_8  and  C_9
REMARK    6  A    between atoms: N_11  and  C_12
REMARK    7  A    between atoms: C_17  and  C_18
REMARK    8  A    between atoms: N_20  and  C_21
REMARK    9  A    between atoms: C_25  and  C_26
REMARK   10  A    between atoms: C_26  and  C_27
REMARK   11  A    between atoms: C_27  and  O_29
REMARK                            x       y       z     vdW  Elec       q    Type
REMARK                         _______ _______ _______ _____ _____    ______ ____
ROOT
ATOM      1  C   UNL     1       6.203   6.475  16.789  0.00  0.00    +0.000 A 
ATOM      2  C   UNL     1       7.036   5.487  16.234  0.00  0.00    +0.000 A 
ATOM      3  C   UNL     1       6.570   4.187  16.024  0.00  0.00    +0.000 A 
ATOM      4  C   UNL     1       5.257   3.862  16.335  0.00  0.00    +0.000 A 
ATOM      5  C   UNL     1       4.409   4.844  16.843  0.00  0.00    +0.000 A 
ATOM      6  C   UNL     1       4.859   6.163  17.068  0.00  0.00    +0.000 A 
ENDROOT
BRANCH   1   9
ATOM      7  C   UNL     1       7.789   7.851  18.042  0.00  0.00    +0.000 C 
ATOM      8  O   UNL     1       8.204   6.917  18.719  0.00  0.00    +0.000 OA
ATOM      9  N   UNL     1       6.823   7.722  17.053  0.00  0.00    +0.000 N 
ATOM     10  H   UNL     1       6.981   8.314  16.245  0.00  0.00    +0.000 HD
BRANCH   7  14
ATOM     11  C   UNL     1       9.420  11.791  18.817  0.00  0.00    +0.000 A 
ATOM     12  C   UNL     1       9.715  10.683  19.624  0.00  0.00    +0.000 A 
ATOM     13  C   UNL     1       9.193   9.417  19.342  0.00  0.00    +0.000 A 
ATOM     14  C   UNL     1       8.355   9.219  18.244  0.00  0.00    +0.000 A 
ATOM     15  C   UNL     1       8.040  10.311  17.429  0.00  0.00    +0.000 A 
ATOM     16  C   UNL     1       8.569  11.577  17.716  0.00  0.00    +0.000 A 
BRANCH  11  18
ATOM     17  C   UNL     1       9.573  13.773  20.460  0.00  0.00    +0.000 C 
ATOM     18  C   UNL     1      10.003  13.189  19.095  0.00  0.00    +0.000 C 
ATOM     19  C   UNL     1       9.554  14.190  18.010  0.00  0.00    +0.000 C 
ATOM     20  C   UNL     1      11.544  13.107  19.096  0.00  0.00    +0.000 C 
ENDBRANCH  11  18
ENDBRANCH   7  14
ENDBRANCH   1   9
BRANCH   6  21
ATOM     21  C   UNL     1       3.785   7.104  17.511  0.00  0.00    +0.000 C 
ATOM     22  O   UNL     1       3.595   8.107  16.824  0.00  0.00    +0.000 OA
ATOM     23  N   UNL     1       3.135   6.822  18.711  0.00  0.00    +0.000 N 
ATOM     24  H   UNL     1       3.271   5.897  19.094  0.00  0.00    +0.000 HD
BRANCH  23  25
ATOM     25  C   UNL     1       2.221   7.676  19.376  0.00  0.00    +0.000 A 
ATOM     26  C   UNL     1       1.655   7.358  20.615  0.00  0.00    +0.000 A 
ATOM     27  C   UNL     1       0.770   8.229  21.248  0.00  0.00    +0.000 A 
ATOM     28  C   UNL     1       0.425   9.433  20.645  0.00  0.00    +0.000 A 
ATOM     29  C   UNL     1       0.944   9.768  19.387  0.00  0.00    +0.000 A 
ATOM     30  C   UNL     1       1.849   8.882  18.762  0.00  0.00    +0.000 A 
BRANCH  29  31
ATOM     31  C   UNL     1       0.585  11.117  18.802  0.00  0.00    +0.000 C 
BRANCH  31  32
ATOM     32  C   UNL     1       1.720  12.107  18.697  0.00  0.00    +0.000 C 
ATOM     33  O   UNL     1       2.035  12.881  19.589  0.00  0.00    +0.000 OA
BRANCH  32  34
ATOM     34  O   UNL     1       2.346  12.100  17.497  0.00  0.00    +0.000 OA
ATOM     35  H   UNL     1       3.276  11.802  17.549  0.00  0.00    +0.000 HD
ENDBRANCH  32  34
ENDBRANCH  31  32
ENDBRANCH  29  31
ENDBRANCH  23  25
ENDBRANCH   6  21
TORSDOF 8
ENDMDL
MODEL 8
REMARK VINA RESULT:      -8.2      2.258      7.272
REMARK  Name = 
REMARK  11 active torsions:
REMARK  status: ('A' for Active; 'I' for Inactive)
REMARK    1  A    between atoms: C_1  and  C_2
REMARK    2  A    between atoms: C_2  and  C_3
REMARK    3  A    between atoms: C_2  and  C_4
REMARK    4  A    between atoms: C_2  and  C_5
REMARK    5  A    between atoms: C_8  and  C_9
REMARK    6  A    between atoms: N_11  and  C_12
REMARK    7  A    between atoms: C_17  and  C_18
REMARK    8  A    between atoms: N_20  and  C_21
REMARK    9  A    between atoms: C_25  and  C_26
REMARK   10  A    between atoms: C_26  and  C_27
REMARK   11  A    between atoms: C_27  and  O_29
REMARK                            x       y       z     vdW  Elec       q    Type
REMARK                         _______ _______ _______ _____ _____    ______ ____
ROOT
ATOM      1  C   UNL     1       5.284   5.980  16.732  0.00  0.00    +0.000 A 
ATOM      2  C   UNL     1       4.719   4.922  15.998  0.00  0.00    +0.000 A 
ATOM      3  C   UNL     1       5.525   3.995  15.335  0.00  0.00    +0.000 A 
ATOM      4  C   UNL     1       6.907   4.090  15.421  0.00  0.00    +0.000 A 
ATOM      5  C   UNL     1       7.479   5.107  16.182  0.00  0.00    +0.000 A 
ATOM      6  C   UNL     1       6.684   6.059  16.858  0.00  0.00    +0.000 A 
ENDROOT
BRANCH   1   9
ATOM      7  C   UNL     1       3.448   6.545  18.246  0.00  0.00    +0.000 C 
ATOM      8  O   UNL     1       3.394   5.425  18.742  0.00  0.00    +0.000 OA
ATOM      9  N   UNL     1       4.362   6.915  17.268  0.00  0.00    +0.000 N 
ATOM     10  H   UNL     1       4.704   7.864  17.364  0.00  0.00    +0.000 HD
BRANCH   7  14
ATOM     11  C   UNL     1       0.832   9.761  19.511  0.00  0.00    +0.000 A 
ATOM     12  C   UNL     1       1.368   9.692  18.216  0.00  0.00    +0.000 A 
ATOM     13  C   UNL     1       2.193   8.634  17.825  0.00  0.00    +0.000 A 
ATOM     14  C   UNL     1       2.513   7.609  18.718  0.00  0.00    +0.000 A 
ATOM     15  C   UNL     1       1.996   7.661  20.016  0.00  0.00    +0.000 A 
ATOM     16  C   UNL     1       1.167   8.724  20.402  0.00  0.00    +0.000 A 
BRANCH  11  18
ATOM     17  C   UNL     1      -0.519  10.810  21.440  0.00  0.00    +0.000 C 
ATOM     18  C   UNL     1      -0.098  10.904  19.956  0.00  0.00    +0.000 C 
ATOM     19  C   UNL     1      -1.392  10.909  19.115  0.00  0.00    +0.000 C 
ATOM     20  C   UNL     1       0.628  12.253  19.768  0.00  0.00    +0.000 C 
ENDBRANCH  11  18
ENDBRANCH   7  14
ENDBRANCH   1   9
BRANCH   6  21
ATOM     21  C   UNL     1       7.463   7.006  17.711  0.00  0.00    +0.000 C 
ATOM     22  O   UNL     1       7.775   6.624  18.838  0.00  0.00    +0.000 OA
ATOM     23  N   UNL     1       7.709   8.280  17.203  0.00  0.00    +0.000 N 
ATOM     24  H   UNL     1       7.540   8.415  16.216  0.00  0.00    +0.000 HD
BRANCH  23  25
ATOM     25  C   UNL     1       8.274   9.362  17.922  0.00  0.00    +0.000 A 
ATOM     26  C   UNL     1       8.991   9.187  19.110  0.00  0.00    +0.000 A 
ATOM     27  C   UNL     1       9.547  10.274  19.783  0.00  0.00    +0.000 A 
ATOM     28  C   UNL     1       9.384  11.561  19.285  0.00  0.00    +0.000 A 
ATOM     29  C   UNL     1       8.640  11.777  18.117  0.00  0.00    +0.000 A 
ATOM     30  C   UNL     1       8.093  10.667  17.438  0.00  0.00    +0.000 A 
BRANCH  29  31
ATOM     31  C   UNL     1       8.543  13.191  17.582  0.00  0.00    +0.000 C 
BRANCH  31  32
ATOM     32  C   UNL     1       8.417  14.276  18.623  0.00  0.00    +0.000 C 
ATOM     33  O   UNL     1       7.417  14.459  19.301  0.00  0.00    +0.000 OA
BRANCH  32  34
ATOM     34  O   UNL     1       9.506  15.076  18.718  0.00  0.00    +0.000 OA
ATOM     35  H   UNL     1       9.797  15.434  17.856  0.00  0.00    +0.000 HD
ENDBRANCH  32  34
ENDBRANCH  31  32
ENDBRANCH  29  31
ENDBRANCH  23  25
ENDBRANCH   6  21
TORSDOF 8
ENDMDL
MODEL 9
REMARK VINA RESULT:      -8.1      0.904      1.217
REMARK  Name = 
REMARK  11 active torsions:
REMARK  status: ('A' for Active; 'I' for Inactive)
REMARK    1  A    between atoms: C_1  and  C_2
REMARK    2  A    between atoms: C_2  and  C_3
REMARK    3  A    between atoms: C_2  and  C_4
REMARK    4  A    between atoms: C_2  and  C_5
REMARK    5  A    between atoms: C_8  and  C_9
REMARK    6  A    between atoms: N_11  and  C_12
REMARK    7  A    between atoms: C_17  and  C_18
REMARK    8  A    between atoms: N_20  and  C_21
REMARK    9  A    between atoms: C_25  and  C_26
REMARK   10  A    between atoms: C_26  and  C_27
REMARK   11  A    between atoms: C_27  and  O_29
REMARK                            x       y       z     vdW  Elec       q    Type
REMARK                         _______ _______ _______ _____ _____    ______ ____
ROOT
ATOM      1  C   UNL     1       6.185   6.533  16.792  0.00  0.00    +0.000 A 
ATOM      2  C   UNL     1       7.006   5.544  16.220  0.00  0.00    +0.000 A 
ATOM      3  C   UNL     1       6.535   4.244  16.022  0.00  0.00    +0.000 A 
ATOM      4  C   UNL     1       5.229   3.920  16.361  0.00  0.00    +0.000 A 
ATOM      5  C   UNL     1       4.392   4.902  16.885  0.00  0.00    +0.000 A 
ATOM      6  C   UNL     1       4.847   6.222  17.099  0.00  0.00    +0.000 A 
ENDROOT
BRANCH   1   9
ATOM      7  C   UNL     1       7.786   7.914  18.019  0.00  0.00    +0.000 C 
ATOM      8  O   UNL     1       8.206   6.983  18.698  0.00  0.00    +0.000 OA
ATOM      9  N   UNL     1       6.811   7.781  17.041  0.00  0.00    +0.000 N 
ATOM     10  H   UNL     1       6.962   8.367  16.228  0.00  0.00    +0.000 HD
BRANCH   7  14
ATOM     11  C   UNL     1       9.440  11.853  18.751  0.00  0.00    +0.000 A 
ATOM     12  C   UNL     1       9.771  10.740  19.539  0.00  0.00    +0.000 A 
ATOM     13  C   UNL     1       9.241   9.474  19.270  0.00  0.00    +0.000 A 
ATOM     14  C   UNL     1       8.358   9.282  18.206  0.00  0.00    +0.000 A 
ATOM     15  C   UNL     1       8.008  10.378  17.413  0.00  0.00    +0.000 A 
ATOM     16  C   UNL     1       8.545  11.644  17.685  0.00  0.00    +0.000 A 
BRANCH  11  18
ATOM     17  C   UNL     1       9.360  14.366  18.181  0.00  0.00    +0.000 C 
ATOM     18  C   UNL     1      10.032  13.250  19.013  0.00  0.00    +0.000 C 
ATOM     19  C   UNL     1      11.537  13.274  18.677  0.00  0.00    +0.000 C 
ATOM     20  C   UNL     1       9.843  13.611  20.502  0.00  0.00    +0.000 C 
ENDBRANCH  11  18
ENDBRANCH   7  14
ENDBRANCH   1   9
BRANCH   6  21
ATOM     21  C   UNL     1       3.783   7.164  17.563  0.00  0.00    +0.000 C 
ATOM     22  O   UNL     1       3.649   8.216  16.939  0.00  0.00    +0.000 OA
ATOM     23  N   UNL     1       3.077   6.823  18.715  0.00  0.00    +0.000 N 
ATOM     24  H   UNL     1       3.171   5.870  19.040  0.00  0.00    +0.000 HD
BRANCH  23  25
ATOM     25  C   UNL     1       2.160   7.658  19.401  0.00  0.00    +0.000 A 
ATOM     26  C   UNL     1       1.729   7.394  20.705  0.00  0.00    +0.000 A 
ATOM     27  C   UNL     1       0.837   8.247  21.355  0.00  0.00    +0.000 A 
ATOM     28  C   UNL     1       0.352   9.374  20.705  0.00  0.00    +0.000 A 
ATOM     29  C   UNL     1       0.733   9.650  19.385  0.00  0.00    +0.000 A 
ATOM     30  C   UNL     1       1.646   8.785  18.742  0.00  0.00    +0.000 A 
BRANCH  29  31
ATOM     31  C   UNL     1       0.223  10.923  18.744  0.00  0.00    +0.000 C 
BRANCH  31  32
ATOM     32  C   UNL     1      -1.204  10.882  18.254  0.00  0.00    +0.000 C 
ATOM     33  O   UNL     1      -2.151  11.347  18.871  0.00  0.00    +0.000 OA
BRANCH  32  34
ATOM     34  O   UNL     1      -1.361  10.238  17.073  0.00  0.00    +0.000 OA
ATOM     35  H   UNL     1      -0.656   9.583  16.895  0.00  0.00    +0.000 HD
ENDBRANCH  32  34
ENDBRANCH  31  32
ENDBRANCH  29  31
ENDBRANCH  23  25
ENDBRANCH   6  21
TORSDOF 8
ENDMDL
