MODEL 1
REMARK VINA RESULT:      -9.6      0.000      0.000
REMARK  Name = 
REMARK  9 active torsions:
REMARK  status: ('A' for Active; 'I' for Inactive)
REMARK    1  A    between atoms: C_1  and  C_2
REMARK    2  A    between atoms: C_2  and  C_3
REMARK    3  A    between atoms: C_2  and  C_4
REMARK    4  A    between atoms: C_4  and  C_5
REMARK    5  A    between atoms: C_5  and  N_6
REMARK    6  A    between atoms: N_6  and  C_7
REMARK    7  A    between atoms: C_7  and  C_8
REMARK    8  A    between atoms: C_14  and  C_15
REMARK    9  A    between atoms: C_21  and  C_23
REMARK                            x       y       z     vdW  Elec       q    Type
REMARK                         _______ _______ _______ _____ _____    ______ ____
ROOT
ATOM      1  N   UNL     1       3.846   5.020  18.780  0.00  0.00    +0.000 N 
ATOM      2  C   UNL     1       5.142   4.503  18.573  0.00  0.00    +0.000 C 
ATOM      3  O   UNL     1       5.718   3.841  19.438  0.00  0.00    +0.000 OA
ENDROOT
BRANCH   2   4
ATOM      4  C   UNL     1       5.854   4.649  17.264  0.00  0.00    +0.000 A 
ATOM      5  C   UNL     1       7.011   5.426  17.105  0.00  0.00    +0.000 A 
ATOM      6  C   UNL     1       7.540   5.657  15.843  0.00  0.00    +0.000 A 
ATOM      7  C   UNL     1       7.026   5.006  14.721  0.00  0.00    +0.000 A 
ATOM      8  C   UNL     1       7.592   5.222  13.457  0.00  0.00    +0.000 A 
ATOM      9  C   UNL     1       7.149   4.502  12.350  0.00  0.00    +0.000 A 
ATOM     10  C   UNL     1       6.126   3.568  12.494  0.00  0.00    +0.000 A 
ATOM     11  C   UNL     1       5.523   3.377  13.744  0.00  0.00    +0.000 A 
ATOM     12  C   UNL     1       5.954   4.100  14.873  0.00  0.00    +0.000 A 
ATOM     13  C   UNL     1       5.360   3.953  16.147  0.00  0.00    +0.000 A 
ENDBRANCH   2   4
BRANCH   1  14
ATOM     14  C   UNL     1       3.214   4.722  20.076  0.00  0.00    +0.000 C 
BRANCH  14  15
ATOM     15  C   UNL     1       2.399   3.417  20.134  0.00  0.00    +0.000 C 
BRANCH  15  17
ATOM     16  C   UNL     1       2.900   1.574  18.403  0.00  0.00    +0.000 C 
ATOM     17  C   UNL     1       2.005   2.749  18.800  0.00  0.00    +0.000 C 
ATOM     18  C   UNL     1       0.558   2.238  18.897  0.00  0.00    +0.000 C 
ENDBRANCH  15  17
ENDBRANCH  14  15
ENDBRANCH   1  14
BRANCH   1  19
ATOM     19  C   UNL     1       3.047   5.829  17.841  0.00  0.00    +0.000 C 
BRANCH  19  20
ATOM     20  C   UNL     1       2.645   7.232  18.263  0.00  0.00    +0.000 A 
ATOM     21  C   UNL     1       2.675   8.317  17.384  0.00  0.00    +0.000 A 
ATOM     22  C   UNL     1       2.018   9.507  17.705  0.00  0.00    +0.000 A 
ATOM     23  C   UNL     1       1.321   9.644  18.913  0.00  0.00    +0.000 A 
ATOM     24  C   UNL     1       0.508  10.762  19.152  0.00  0.00    +0.000 A 
ATOM     25  C   UNL     1      -0.127  10.938  20.382  0.00  0.00    +0.000 A 
ATOM     26  C   UNL     1       0.095  10.019  21.406  0.00  0.00    +0.000 A 
ATOM     27  C   UNL     1       0.846   8.859  21.157  0.00  0.00    +0.000 A 
ATOM     28  C   UNL     1       1.426   8.633  19.891  0.00  0.00    +0.000 A 
ATOM     29  C   UNL     1       2.078   7.428  19.542  0.00  0.00    +0.000 A 
BRANCH  26  30
ATOM     30  C   UNL     1      -0.397  10.316  22.779  0.00  0.00    +0.000 C 
ATOM     31  N   UNL     1      -0.747  11.500  23.171  0.00  0.00    +0.000 NA
ATOM     32  N   UNL     1      -0.441   9.325  23.714  0.00  0.00    +0.000 N 
ATOM     33  H   UNL     1      -0.703  12.178  22.407  0.00  0.00    +0.000 HD
ATOM     34  H   UNL     1       0.307   8.643  23.659  0.00  0.00    +0.000 HD
ATOM     35  H   UNL     1      -0.527   9.721  24.646  0.00  0.00    +0.000 HD
ENDBRANCH  26  30
ENDBRANCH  19  20
ENDBRANCH   1  19
TORSDOF 7
ENDMDL
MODEL 2
REMARK VINA RESULT:      -9.6      0.749      1.079
REMARK  Name = 
REMARK  9 active torsions:
REMARK  status: ('A' for Active; 'I' for Inactive)
REMARK    1  A    between atoms: C_1  and  C_2
REMARK    2  A    between atoms: C_2  and  C_3
REMARK    3  A    between atoms: C_2  and  C_4
REMARK    4  A    between atoms: C_4  and  C_5
REMARK    5  A    between atoms: C_5  and  N_6
REMARK    6  A    between atoms: N_6  and  C_7
REMARK    7  A    between atoms: C_7  and  C_8
REMARK    8  A    between atoms: C_14  and  C_15
REMARK    9  A    between atoms: C_21  and  C_23
REMARK                            x       y       z     vdW  Elec       q    Type
REMARK                         _______ _______ _______ _____ _____    ______ ____
ROOT
ATOM      1  N   UNL     1       3.429   5.242  19.097  0.00  0.00    +0.000 N 
ATOM      2  C   UNL     1       4.717   4.683  18.962  0.00  0.00    +0.000 C 
ATOM      3  O   UNL     1       5.227   4.013  19.863  0.00  0.00    +0.000 OA
ENDROOT
BRANCH   2   4
ATOM      4  C   UNL     1       5.499   4.792  17.691  0.00  0.00    +0.000 A 
ATOM      5  C   UNL     1       6.684   5.534  17.582  0.00  0.00    +0.000 A 
ATOM      6  C   UNL     1       7.283   5.734  16.347  0.00  0.00    +0.000 A 
ATOM      7  C   UNL     1       6.810   5.082  15.208  0.00  0.00    +0.000 A 
ATOM      8  C   UNL     1       7.446   5.266  13.973  0.00  0.00    +0.000 A 
ATOM      9  C   UNL     1       7.040   4.543  12.852  0.00  0.00    +0.000 A 
ATOM     10  C   UNL     1       5.986   3.640  12.955  0.00  0.00    +0.000 A 
ATOM     11  C   UNL     1       5.314   3.482  14.173  0.00  0.00    +0.000 A 
ATOM     12  C   UNL     1       5.707   4.208  15.314  0.00  0.00    +0.000 A 
ATOM     13  C   UNL     1       5.044   4.094  16.558  0.00  0.00    +0.000 A 
ENDBRANCH   2   4
BRANCH   1  14
ATOM     14  C   UNL     1       2.722   4.979  20.362  0.00  0.00    +0.000 C 
BRANCH  14  15
ATOM     15  C   UNL     1       1.296   4.417  20.223  0.00  0.00    +0.000 C 
BRANCH  15  17
ATOM     16  C   UNL     1       1.555   2.049  19.237  0.00  0.00    +0.000 C 
ATOM     17  C   UNL     1       1.093   2.900  20.421  0.00  0.00    +0.000 C 
ATOM     18  C   UNL     1       1.869   2.444  21.669  0.00  0.00    +0.000 C 
ENDBRANCH  15  17
ENDBRANCH  14  15
ENDBRANCH   1  14
BRANCH   1  19
ATOM     19  C   UNL     1       2.704   6.065  18.110  0.00  0.00    +0.000 C 
BRANCH  19  20
ATOM     20  C   UNL     1       2.397   7.509  18.466  0.00  0.00    +0.000 A 
ATOM     21  C   UNL     1       2.588   8.560  17.565  0.00  0.00    +0.000 A 
ATOM     22  C   UNL     1       2.017   9.811  17.806  0.00  0.00    +0.000 A 
ATOM     23  C   UNL     1       1.247  10.045  18.954  0.00  0.00    +0.000 A 
ATOM     24  C   UNL     1       0.520  11.236  19.103  0.00  0.00    +0.000 A 
ATOM     25  C   UNL     1      -0.186  11.504  20.276  0.00  0.00    +0.000 A 
ATOM     26  C   UNL     1      -0.123  10.601  21.336  0.00  0.00    +0.000 A 
ATOM     27  C   UNL     1       0.539   9.374  21.174  0.00  0.00    +0.000 A 
ATOM     28  C   UNL     1       1.189   9.060  19.961  0.00  0.00    +0.000 A 
ATOM     29  C   UNL     1       1.757   7.793  19.694  0.00  0.00    +0.000 A 
BRANCH  26  30
ATOM     30  C   UNL     1      -0.687  10.982  22.660  0.00  0.00    +0.000 C 
ATOM     31  N   UNL     1      -0.881  10.136  23.622  0.00  0.00    +0.000 NA
ATOM     32  N   UNL     1      -1.085  12.266  22.886  0.00  0.00    +0.000 N 
ATOM     33  H   UNL     1      -0.539   9.203  23.379  0.00  0.00    +0.000 HD
ATOM     34  H   UNL     1      -1.491  12.741  22.088  0.00  0.00    +0.000 HD
ATOM     35  H   UNL     1      -1.687  12.311  23.702  0.00  0.00    +0.000 HD
ENDBRANCH  26  30
ENDBRANCH  19  20
ENDBRANCH   1  19
TORSDOF 7
ENDMDL
MODEL 3
REMARK VINA RESULT:      -9.0      1.760      2.392
REMARK  Name = 
REMARK  9 active torsions:
REMARK  status: ('A' for Active; 'I' for Inactive)
REMARK    1  A    between atoms: C_1  and  C_2
REMARK    2  A    between atoms: C_2  and  C_3
REMARK    3  A    between atoms: C_2  and  C_4
REMARK    4  A    between atoms: C_4  and  C_5
REMARK    5  A    between atoms: C_5  and  N_6
REMARK    6  A    between atoms: N_6  and  C_7
REMARK    7  A    between atoms: C_7  and  C_8
REMARK    8  A    between atoms: C_14  and  C_15
REMARK    9  A    between atoms: C_21  and  C_23
REMARK                            x       y       z     vdW  Elec       q    Type
REMARK                         _______ _______ _______ _____ _____    ______ ____
ROOT
ATOM      1  N   UNL     1       3.710   5.224  18.987  0.00  0.00    +0.000 N 
ATOM      2  C   UNL     1       4.718   4.313  18.609  0.00  0.00    +0.000 C 
ATOM      3  O   UNL     1       4.907   3.264  19.230  0.00  0.00    +0.000 OA
ENDROOT
BRANCH   2   4
ATOM      4  C   UNL     1       5.555   4.520  17.385  0.00  0.00    +0.000 A 
ATOM      5  C   UNL     1       6.745   5.261  17.388  0.00  0.00    +0.000 A 
ATOM      6  C   UNL     1       7.398   5.556  16.199  0.00  0.00    +0.000 A 
ATOM      7  C   UNL     1       6.972   5.002  14.992  0.00  0.00    +0.000 A 
ATOM      8  C   UNL     1       7.660   5.281  13.804  0.00  0.00    +0.000 A 
ATOM      9  C   UNL     1       7.302   4.654  12.613  0.00  0.00    +0.000 A 
ATOM     10  C   UNL     1       6.241   3.752  12.596  0.00  0.00    +0.000 A 
ATOM     11  C   UNL     1       5.517   3.500  13.768  0.00  0.00    +0.000 A 
ATOM     12  C   UNL     1       5.863   4.129  14.980  0.00  0.00    +0.000 A 
ATOM     13  C   UNL     1       5.147   3.919  16.181  0.00  0.00    +0.000 A 
ENDBRANCH   2   4
BRANCH   1  14
ATOM     14  C   UNL     1       2.890   4.857  20.154  0.00  0.00    +0.000 C 
BRANCH  14  15
ATOM     15  C   UNL     1       1.501   4.275  19.833  0.00  0.00    +0.000 C 
BRANCH  15  17
ATOM     16  C   UNL     1       1.879   1.786  19.279  0.00  0.00    +0.000 C 
ATOM     17  C   UNL     1       1.225   2.805  20.214  0.00  0.00    +0.000 C 
ATOM     18  C   UNL     1       1.740   2.546  21.640  0.00  0.00    +0.000 C 
ENDBRANCH  15  17
ENDBRANCH  14  15
ENDBRANCH   1  14
BRANCH   1  19
ATOM     19  C   UNL     1       3.381   6.510  18.345  0.00  0.00    +0.000 C 
BRANCH  19  20
ATOM     20  C   UNL     1       2.370   7.416  19.026  0.00  0.00    +0.000 A 
ATOM     21  C   UNL     1       2.083   7.326  20.390  0.00  0.00    +0.000 A 
ATOM     22  C   UNL     1       1.394   8.355  21.037  0.00  0.00    +0.000 A 
ATOM     23  C   UNL     1       0.971   9.493  20.338  0.00  0.00    +0.000 A 
ATOM     24  C   UNL     1       0.451  10.605  21.019  0.00  0.00    +0.000 A 
ATOM     25  C   UNL     1      -0.040  11.708  20.321  0.00  0.00    +0.000 A 
ATOM     26  C   UNL     1      -0.065  11.683  18.928  0.00  0.00    +0.000 A 
ATOM     27  C   UNL     1       0.518  10.611  18.234  0.00  0.00    +0.000 A 
ATOM     28  C   UNL     1       1.090   9.526  18.933  0.00  0.00    +0.000 A 
ATOM     29  C   UNL     1       1.805   8.487  18.296  0.00  0.00    +0.000 A 
BRANCH  26  30
ATOM     30  C   UNL     1      -0.785  12.755  18.186  0.00  0.00    +0.000 C 
ATOM     31  N   UNL     1      -0.721  14.009  18.504  0.00  0.00    +0.000 NA
ATOM     32  N   UNL     1      -1.608  12.429  17.150  0.00  0.00    +0.000 N 
ATOM     33  H   UNL     1      -0.070  14.169  19.277  0.00  0.00    +0.000 HD
ATOM     34  H   UNL     1      -2.116  11.558  17.257  0.00  0.00    +0.000 HD
ATOM     35  H   UNL     1      -2.226  13.205  16.931  0.00  0.00    +0.000 HD
ENDBRANCH  26  30
ENDBRANCH  19  20
ENDBRANCH   1  19
TORSDOF 7
ENDMDL
MODEL 4
REMARK VINA RESULT:      -9.0      4.065      9.158
REMARK  Name = 
REMARK  9 active torsions:
REMARK  status: ('A' for Active; 'I' for Inactive)
REMARK    1  A    between atoms: C_1  and  C_2
REMARK    2  A    between atoms: C_2  and  C_3
REMARK    3  A    between atoms: C_2  and  C_4
REMARK    4  A    between atoms: C_4  and  C_5
REMARK    5  A    between atoms: C_5  and  N_6
REMARK    6  A    between atoms: N_6  and  C_7
REMARK    7  A    between atoms: C_7  and  C_8
REMARK    8  A    between atoms: C_14  and  C_15
REMARK    9  A    between atoms: C_21  and  C_23
REMARK                            x       y       z     vdW  Elec       q    Type
REMARK                         _______ _______ _______ _____ _____    ______ ____
ROOT
ATOM      1  N   UNL     1      -0.322  11.097  18.550  0.00  0.00    +0.000 N 
ATOM      2  C   UNL     1      -0.292  12.365  19.167  0.00  0.00    +0.000 C 
ATOM      3  O   UNL     1      -1.322  12.916  19.561  0.00  0.00    +0.000 OA
ENDROOT
BRANCH   2   4
ATOM      4  C   UNL     1       0.994  13.073  19.461  0.00  0.00    +0.000 A 
ATOM      5  C   UNL     1       1.744  12.847  20.624  0.00  0.00    +0.000 A 
ATOM      6  C   UNL     1       2.841  13.641  20.925  0.00  0.00    +0.000 A 
ATOM      7  C   UNL     1       3.315  14.583  20.011  0.00  0.00    +0.000 A 
ATOM      8  C   UNL     1       4.445  15.355  20.313  0.00  0.00    +0.000 A 
ATOM      9  C   UNL     1       4.982  16.225  19.367  0.00  0.00    +0.000 A 
ATOM     10  C   UNL     1       4.385  16.342  18.115  0.00  0.00    +0.000 A 
ATOM     11  C   UNL     1       3.228  15.610  17.818  0.00  0.00    +0.000 A 
ATOM     12  C   UNL     1       2.669  14.729  18.764  0.00  0.00    +0.000 A 
ATOM     13  C   UNL     1       1.493  13.986  18.514  0.00  0.00    +0.000 A 
ENDBRANCH   2   4
BRANCH   1  14
ATOM     14  C   UNL     1      -1.643  10.462  18.407  0.00  0.00    +0.000 C 
BRANCH  14  15
ATOM     15  C   UNL     1      -1.963   9.900  17.010  0.00  0.00    +0.000 C 
BRANCH  15  17
ATOM     16  C   UNL     1      -3.038  10.143  14.680  0.00  0.00    +0.000 C 
ATOM     17  C   UNL     1      -2.727  10.807  16.022  0.00  0.00    +0.000 C 
ATOM     18  C   UNL     1      -4.057  11.243  16.660  0.00  0.00    +0.000 C 
ENDBRANCH  15  17
ENDBRANCH  14  15
ENDBRANCH   1  14
BRANCH   1  19
ATOM     19  C   UNL     1       0.825  10.330  18.028  0.00  0.00    +0.000 C 
BRANCH  19  20
ATOM     20  C   UNL     1       1.390   9.210  18.885  0.00  0.00    +0.000 A 
ATOM     21  C   UNL     1       0.988   9.003  20.207  0.00  0.00    +0.000 A 
ATOM     22  C   UNL     1       1.286   7.804  20.858  0.00  0.00    +0.000 A 
ATOM     23  C   UNL     1       1.997   6.786  20.206  0.00  0.00    +0.000 A 
ATOM     24  C   UNL     1       2.132   5.516  20.788  0.00  0.00    +0.000 A 
ATOM     25  C   UNL     1       2.901   4.525  20.178  0.00  0.00    +0.000 A 
ATOM     26  C   UNL     1       3.590   4.819  19.002  0.00  0.00    +0.000 A 
ATOM     27  C   UNL     1       3.406   6.059  18.372  0.00  0.00    +0.000 A 
ATOM     28  C   UNL     1       2.566   7.040  18.941  0.00  0.00    +0.000 A 
ATOM     29  C   UNL     1       2.239   8.251  18.290  0.00  0.00    +0.000 A 
BRANCH  26  30
ATOM     30  C   UNL     1       4.582   3.844  18.469  0.00  0.00    +0.000 C 
ATOM     31  N   UNL     1       5.805   3.770  18.887  0.00  0.00    +0.000 NA
ATOM     32  N   UNL     1       4.233   3.010  17.448  0.00  0.00    +0.000 N 
ATOM     33  H   UNL     1       5.978   4.414  19.664  0.00  0.00    +0.000 HD
ATOM     34  H   UNL     1       3.601   3.406  16.762  0.00  0.00    +0.000 HD
ATOM     35  H   UNL     1       5.063   2.615  17.017  0.00  0.00    +0.000 HD
ENDBRANCH  26  30
ENDBRANCH  19  20
ENDBRANCH   1  19
TORSDOF 7
ENDMDL
MODEL 5
REMARK VINA RESULT:      -8.9      2.116      3.253
REMARK  Name = 
REMARK  9 active torsions:
REMARK  status: ('A' for Active; 'I' for Inactive)
REMARK    1  A    between atoms: C_1  and  C_2
REMARK    2  A    between atoms: C_2  and  C_3
REMARK    3  A    between atoms: C_2  and  C_4
REMARK    4  A    between atoms: C_4  and  C_5
REMARK    5  A    between atoms: C_5  and  N_6
REMARK    6  A    between atoms: N_6  and  C_7
REMARK    7  A    between atoms: C_7  and  C_8
REMARK    8  A    between atoms: C_14  and  C_15
REMARK    9  A    between atoms: C_21  and  C_23
REMARK                            x       y       z     vdW  Elec       q    Type
REMARK                         _______ _______ _______ _____ _____    ______ ____
ROOT
ATOM      1  N   UNL     1       3.483   4.721  17.815  0.00  0.00    +0.000 N 
ATOM      2  C   UNL     1       4.712   4.752  17.123  0.00  0.00    +0.000 C 
ATOM      3  O   UNL     1       4.866   4.158  16.053  0.00  0.00    +0.000 OA
ENDROOT
BRANCH   2   4
ATOM      4  C   UNL     1       5.868   5.577  17.596  0.00  0.00    +0.000 A 
ATOM      5  C   UNL     1       6.903   5.062  18.388  0.00  0.00    +0.000 A 
ATOM      6  C   UNL     1       7.864   5.902  18.932  0.00  0.00    +0.000 A 
ATOM      7  C   UNL     1       7.913   7.252  18.585  0.00  0.00    +0.000 A 
ATOM      8  C   UNL     1       8.910   8.082  19.115  0.00  0.00    +0.000 A 
ATOM      9  C   UNL     1       9.025   9.407  18.698  0.00  0.00    +0.000 A 
ATOM     10  C   UNL     1       8.134   9.917  17.758  0.00  0.00    +0.000 A 
ATOM     11  C   UNL     1       7.106   9.109  17.256  0.00  0.00    +0.000 A 
ATOM     12  C   UNL     1       6.972   7.770  17.670  0.00  0.00    +0.000 A 
ATOM     13  C   UNL     1       5.938   6.926  17.204  0.00  0.00    +0.000 A 
ENDBRANCH   2   4
BRANCH   1  14
ATOM     14  C   UNL     1       2.393   3.951  17.193  0.00  0.00    +0.000 C 
BRANCH  14  15
ATOM     15  C   UNL     1       1.327   3.407  18.161  0.00  0.00    +0.000 C 
BRANCH  15  17
ATOM     16  C   UNL     1       3.055   1.568  18.686  0.00  0.00    +0.000 C 
ATOM     17  C   UNL     1       1.668   2.143  18.978  0.00  0.00    +0.000 C 
ATOM     18  C   UNL     1       1.594   2.474  20.478  0.00  0.00    +0.000 C 
ENDBRANCH  15  17
ENDBRANCH  14  15
ENDBRANCH   1  14
BRANCH   1  19
ATOM     19  C   UNL     1       3.164   5.374  19.098  0.00  0.00    +0.000 C 
BRANCH  19  20
ATOM     20  C   UNL     1       2.675   6.812  19.070  0.00  0.00    +0.000 A 
ATOM     21  C   UNL     1       2.649   7.572  17.898  0.00  0.00    +0.000 A 
ATOM     22  C   UNL     1       1.919   8.761  17.842  0.00  0.00    +0.000 A 
ATOM     23  C   UNL     1       1.204   9.223  18.955  0.00  0.00    +0.000 A 
ATOM     24  C   UNL     1       0.323  10.310  18.845  0.00  0.00    +0.000 A 
ATOM     25  C   UNL     1      -0.333  10.819  19.966  0.00  0.00    +0.000 A 
ATOM     26  C   UNL     1      -0.066  10.276  21.222  0.00  0.00    +0.000 A 
ATOM     27  C   UNL     1       0.755   9.143  21.337  0.00  0.00    +0.000 A 
ATOM     28  C   UNL     1       1.359   8.572  20.197  0.00  0.00    +0.000 A 
ATOM     29  C   UNL     1       2.086   7.360  20.231  0.00  0.00    +0.000 A 
BRANCH  26  30
ATOM     30  C   UNL     1      -0.589  10.952  22.441  0.00  0.00    +0.000 C 
ATOM     31  N   UNL     1      -0.473  12.225  22.655  0.00  0.00    +0.000 NA
ATOM     32  N   UNL     1      -1.174  10.217  23.429  0.00  0.00    +0.000 N 
ATOM     33  H   UNL     1      -0.042  12.703  21.861  0.00  0.00    +0.000 HD
ATOM     34  H   UNL     1      -0.774   9.298  23.579  0.00  0.00    +0.000 HD
ATOM     35  H   UNL     1      -1.224  10.756  24.288  0.00  0.00    +0.000 HD
ENDBRANCH  26  30
ENDBRANCH  19  20
ENDBRANCH   1  19
TORSDOF 7
ENDMDL
MODEL 6
REMARK VINA RESULT:      -8.9      4.002      8.831
REMARK  Name = 
REMARK  9 active torsions:
REMARK  status: ('A' for Active; 'I' for Inactive)
REMARK    1  A    between atoms: C_1  and  C_2
REMARK    2  A    between atoms: C_2  and  C_3
REMARK    3  A    between atoms: C_2  and  C_4
REMARK    4  A    between atoms: C_4  and  C_5
REMARK    5  A    between atoms: C_5  and  N_6
REMARK    6  A    between atoms: N_6  and  C_7
REMARK    7  A    between atoms: C_7  and  C_8
REMARK    8  A    between atoms: C_14  and  C_15
REMARK    9  A    between atoms: C_21  and  C_23
REMARK                            x       y       z     vdW  Elec       q    Type
REMARK                         _______ _______ _______ _____ _____    ______ ____
ROOT
ATOM      1  N   UNL     1      -0.122  11.032  19.289  0.00  0.00    +0.000 N 
ATOM      2  C   UNL     1       0.144  12.376  18.950  0.00  0.00    +0.000 C 
ATOM      3  O   UNL     1      -0.676  13.061  18.335  0.00  0.00    +0.000 OA
ENDROOT
BRANCH   2   4
ATOM      4  C   UNL     1       1.392  13.072  19.394  0.00  0.00    +0.000 A 
ATOM      5  C   UNL     1       1.670  13.362  20.738  0.00  0.00    +0.000 A 
ATOM      6  C   UNL     1       2.760  14.148  21.081  0.00  0.00    +0.000 A 
ATOM      7  C   UNL     1       3.688  14.545  20.119  0.00  0.00    +0.000 A 
ATOM      8  C   UNL     1       4.804  15.311  20.485  0.00  0.00    +0.000 A 
ATOM      9  C   UNL     1       5.785  15.627  19.548  0.00  0.00    +0.000 A 
ATOM     10  C   UNL     1       5.652  15.193  18.231  0.00  0.00    +0.000 A 
ATOM     11  C   UNL     1       4.519  14.466  17.844  0.00  0.00    +0.000 A 
ATOM     12  C   UNL     1       3.515  14.142  18.777  0.00  0.00    +0.000 A 
ATOM     13  C   UNL     1       2.347  13.428  18.425  0.00  0.00    +0.000 A 
ENDBRANCH   2   4
BRANCH   1  14
ATOM     14  C   UNL     1      -1.430  10.493  18.878  0.00  0.00    +0.000 C 
BRANCH  14  15
ATOM     15  C   UNL     1      -1.531  10.045  17.408  0.00  0.00    +0.000 C 
BRANCH  15  17
ATOM     16  C   UNL     1      -2.840  10.020  15.187  0.00  0.00    +0.000 C 
ATOM     17  C   UNL     1      -2.575  10.742  16.509  0.00  0.00    +0.000 C 
ATOM     18  C   UNL     1      -3.907  10.853  17.271  0.00  0.00    +0.000 C 
ENDBRANCH  15  17
ENDBRANCH  14  15
ENDBRANCH   1  14
BRANCH   1  19
ATOM     19  C   UNL     1       0.764  10.101  20.011  0.00  0.00    +0.000 C 
BRANCH  19  20
ATOM     20  C   UNL     1       1.441   8.994  19.220  0.00  0.00    +0.000 A 
ATOM     21  C   UNL     1       1.978   9.204  17.948  0.00  0.00    +0.000 A 
ATOM     22  C   UNL     1       2.851   8.269  17.386  0.00  0.00    +0.000 A 
ATOM     23  C   UNL     1       3.203   7.102  18.078  0.00  0.00    +0.000 A 
ATOM     24  C   UNL     1       4.220   6.261  17.600  0.00  0.00    +0.000 A 
ATOM     25  C   UNL     1       4.520   5.061  18.245  0.00  0.00    +0.000 A 
ATOM     26  C   UNL     1       3.763   4.666  19.346  0.00  0.00    +0.000 A 
ATOM     27  C   UNL     1       2.794   5.531  19.878  0.00  0.00    +0.000 A 
ATOM     28  C   UNL     1       2.538   6.783  19.279  0.00  0.00    +0.000 A 
ATOM     29  C   UNL     1       1.672   7.747  19.843  0.00  0.00    +0.000 A 
BRANCH  26  30
ATOM     30  C   UNL     1       3.932   3.294  19.900  0.00  0.00    +0.000 C 
ATOM     31  N   UNL     1       4.990   2.572  19.706  0.00  0.00    +0.000 NA
ATOM     32  N   UNL     1       2.917   2.716  20.603  0.00  0.00    +0.000 N 
ATOM     33  H   UNL     1       5.707   3.085  19.188  0.00  0.00    +0.000 HD
ATOM     34  H   UNL     1       1.983   2.943  20.283  0.00  0.00    +0.000 HD
ATOM     35  H   UNL     1       3.063   1.713  20.672  0.00  0.00    +0.000 HD
ENDBRANCH  26  30
ENDBRANCH  19  20
ENDBRANCH   1  19
TORSDOF 7
ENDMDL
MODEL 7
REMARK VINA RESULT:      -8.8      1.299      1.570
REMARK  Name = 
REMARK  9 active torsions:
REMARK  status: ('A' for Active; 'I' for Inactive)
REMARK    1  A    between atoms: C_1  and  C_2
REMARK    2  A    between atoms: C_2  and  C_3
REMARK    3  A    between atoms: C_2  and  C_4
REMARK    4  A    between atoms: C_4  and  C_5
REMARK    5  A    between atoms: C_5  and  N_6
REMARK    6  A    between atoms: N_6  and  C_7
REMARK    7  A    between atoms: C_7  and  C_8
REMARK    8  A    between atoms: C_14  and  C_15
REMARK    9  A    between atoms: C_21  and  C_23
REMARK                            x       y       z     vdW  Elec       q    Type
REMARK                         _______ _______ _______ _____ _____    ______ ____
ROOT
ATOM      1  N   UNL     1       2.834   4.880  18.225  0.00  0.00    +0.000 N 
ATOM      2  C   UNL     1       3.244   4.037  17.171  0.00  0.00    +0.000 C 
ATOM      3  O   UNL     1       2.561   3.076  16.810  0.00  0.00    +0.000 OA
ENDROOT
BRANCH   2   4
ATOM      4  C   UNL     1       4.479   4.311  16.372  0.00  0.00    +0.000 A 
ATOM      5  C   UNL     1       5.599   4.973  16.896  0.00  0.00    +0.000 A 
ATOM      6  C   UNL     1       6.652   5.343  16.072  0.00  0.00    +0.000 A 
ATOM      7  C   UNL     1       6.694   4.938  14.738  0.00  0.00    +0.000 A 
ATOM      8  C   UNL     1       7.780   5.290  13.926  0.00  0.00    +0.000 A 
ATOM      9  C   UNL     1       7.877   4.807  12.622  0.00  0.00    +0.000 A 
ATOM     10  C   UNL     1       6.879   3.979  12.114  0.00  0.00    +0.000 A 
ATOM     11  C   UNL     1       5.766   3.658  12.902  0.00  0.00    +0.000 A 
ATOM     12  C   UNL     1       5.650   4.141  14.220  0.00  0.00    +0.000 A 
ATOM     13  C   UNL     1       4.535   3.859  15.042  0.00  0.00    +0.000 A 
ENDBRANCH   2   4
BRANCH   1  14
ATOM     14  C   UNL     1       1.548   4.559  18.867  0.00  0.00    +0.000 C 
BRANCH  14  15
ATOM     15  C   UNL     1       1.630   4.134  20.345  0.00  0.00    +0.000 C 
BRANCH  15  17
ATOM     16  C   UNL     1       3.595   2.486  20.612  0.00  0.00    +0.000 C 
ATOM     17  C   UNL     1       2.080   2.691  20.659  0.00  0.00    +0.000 C 
ATOM     18  C   UNL     1       1.588   2.302  22.063  0.00  0.00    +0.000 C 
ENDBRANCH  15  17
ENDBRANCH  14  15
ENDBRANCH   1  14
BRANCH   1  19
ATOM     19  C   UNL     1       3.550   6.052  18.762  0.00  0.00    +0.000 C 
BRANCH  19  20
ATOM     20  C   UNL     1       2.819   7.383  18.804  0.00  0.00    +0.000 A 
ATOM     21  C   UNL     1       2.585   8.146  17.657  0.00  0.00    +0.000 A 
ATOM     22  C   UNL     1       1.659   9.191  17.679  0.00  0.00    +0.000 A 
ATOM     23  C   UNL     1       0.949   9.503  18.847  0.00  0.00    +0.000 A 
ATOM     24  C   UNL     1      -0.111  10.422  18.822  0.00  0.00    +0.000 A 
ATOM     25  C   UNL     1      -0.770  10.790  19.995  0.00  0.00    +0.000 A 
ATOM     26  C   UNL     1      -0.331  10.282  21.216  0.00  0.00    +0.000 A 
ATOM     27  C   UNL     1       0.679   9.307  21.249  0.00  0.00    +0.000 A 
ATOM     28  C   UNL     1       1.296   8.869  20.058  0.00  0.00    +0.000 A 
ATOM     29  C   UNL     1       2.222   7.801  20.014  0.00  0.00    +0.000 A 
BRANCH  26  30
ATOM     30  C   UNL     1      -0.881  10.837  22.484  0.00  0.00    +0.000 C 
ATOM     31  N   UNL     1      -0.983  10.151  23.577  0.00  0.00    +0.000 NA
ATOM     32  N   UNL     1      -1.363  12.112  22.514  0.00  0.00    +0.000 N 
ATOM     33  H   UNL     1      -0.583   9.215  23.475  0.00  0.00    +0.000 HD
ATOM     34  H   UNL     1      -1.827  12.420  21.668  0.00  0.00    +0.000 HD
ATOM     35  H   UNL     1      -1.941  12.250  23.338  0.00  0.00    +0.000 HD
ENDBRANCH  26  30
ENDBRANCH  19  20
ENDBRANCH   1  19
TORSDOF 7
ENDMDL
MODEL 8
REMARK VINA RESULT:      -8.7      0.810      1.664
REMARK  Name = 
REMARK  9 active torsions:
REMARK  status: ('A' for Active; 'I' for Inactive)
REMARK    1  A    between atoms: C_1  and  C_2
REMARK    2  A    between atoms: C_2  and  C_3
REMARK    3  A    between atoms: C_2  and  C_4
REMARK    4  A    between atoms: C_4  and  C_5
REMARK    5  A    between atoms: C_5  and  N_6
REMARK    6  A    between atoms: N_6  and  C_7
REMARK    7  A    between atoms: C_7  and  C_8
REMARK    8  A    between atoms: C_14  and  C_15
REMARK    9  A    between atoms: C_21  and  C_23
REMARK                            x       y       z     vdW  Elec       q    Type
REMARK                         _______ _______ _______ _____ _____    ______ ____
ROOT
ATOM      1  N   UNL     1       4.072   5.035  18.618  0.00  0.00    +0.000 N 
ATOM      2  C   UNL     1       5.228   4.424  18.089  0.00  0.00    +0.000 C 
ATOM      3  O   UNL     1       6.060   3.878  18.817  0.00  0.00    +0.000 OA
ENDROOT
BRANCH   2   4
ATOM      4  C   UNL     1       5.467   4.322  16.615  0.00  0.00    +0.000 A 
ATOM      5  C   UNL     1       4.632   3.598  15.752  0.00  0.00    +0.000 A 
ATOM      6  C   UNL     1       4.984   3.402  14.425  0.00  0.00    +0.000 A 
ATOM      7  C   UNL     1       6.096   4.043  13.877  0.00  0.00    +0.000 A 
ATOM      8  C   UNL     1       6.421   3.864  12.526  0.00  0.00    +0.000 A 
ATOM      9  C   UNL     1       7.470   4.576  11.949  0.00  0.00    +0.000 A 
ATOM     10  C   UNL     1       8.213   5.464  12.722  0.00  0.00    +0.000 A 
ATOM     11  C   UNL     1       7.926   5.616  14.085  0.00  0.00    +0.000 A 
ATOM     12  C   UNL     1       6.873   4.900  14.685  0.00  0.00    +0.000 A 
ATOM     13  C   UNL     1       6.562   5.009  16.060  0.00  0.00    +0.000 A 
ENDBRANCH   2   4
BRANCH   1  14
ATOM     14  C   UNL     1       3.906   4.982  20.080  0.00  0.00    +0.000 C 
BRANCH  14  15
ATOM     15  C   UNL     1       3.227   3.712  20.626  0.00  0.00    +0.000 C 
BRANCH  15  17
ATOM     16  C   UNL     1       1.002   3.248  19.409  0.00  0.00    +0.000 C 
ATOM     17  C   UNL     1       1.685   3.692  20.703  0.00  0.00    +0.000 C 
ATOM     18  C   UNL     1       1.247   2.739  21.828  0.00  0.00    +0.000 C 
ENDBRANCH  15  17
ENDBRANCH  14  15
ENDBRANCH   1  14
BRANCH   1  19
ATOM     19  C   UNL     1       3.006   5.726  17.870  0.00  0.00    +0.000 C 
BRANCH  19  20
ATOM     20  C   UNL     1       2.599   7.119  18.319  0.00  0.00    +0.000 A 
ATOM     21  C   UNL     1       2.617   8.219  17.458  0.00  0.00    +0.000 A 
ATOM     22  C   UNL     1       1.956   9.400  17.805  0.00  0.00    +0.000 A 
ATOM     23  C   UNL     1       1.267   9.512  19.020  0.00  0.00    +0.000 A 
ATOM     24  C   UNL     1       0.449  10.621  19.285  0.00  0.00    +0.000 A 
ATOM     25  C   UNL     1      -0.177  10.772  20.522  0.00  0.00    +0.000 A 
ATOM     26  C   UNL     1       0.057   9.836  21.528  0.00  0.00    +0.000 A 
ATOM     27  C   UNL     1       0.812   8.685  21.254  0.00  0.00    +0.000 A 
ATOM     28  C   UNL     1       1.384   8.485  19.980  0.00  0.00    +0.000 A 
ATOM     29  C   UNL     1       2.040   7.290  19.606  0.00  0.00    +0.000 A 
BRANCH  26  30
ATOM     30  C   UNL     1      -0.428  10.106  22.910  0.00  0.00    +0.000 C 
ATOM     31  N   UNL     1       0.000   9.469  23.953  0.00  0.00    +0.000 NA
ATOM     32  N   UNL     1      -1.412  11.026  23.117  0.00  0.00    +0.000 N 
ATOM     33  H   UNL     1       0.749   8.813  23.714  0.00  0.00    +0.000 HD
ATOM     34  H   UNL     1      -2.119  11.076  22.392  0.00  0.00    +0.000 HD
ATOM     35  H   UNL     1      -1.821  10.904  24.039  0.00  0.00    +0.000 HD
ENDBRANCH  26  30
ENDBRANCH  19  20
ENDBRANCH   1  19
TORSDOF 7
ENDMDL
MODEL 9
REMARK VINA RESULT:      -8.6      4.008      9.123
REMARK  Name = 
REMARK  9 active torsions:
REMARK  status: ('A' for Active; 'I' for Inactive)
REMARK    1  A    between atoms: C_1  and  C_2
REMARK    2  A    between atoms: C_2  and  C_3
REMARK    3  A    between atoms: C_2  and  C_4
REMARK    4  A    between atoms: C_4  and  C_5
REMARK    5  A    between atoms: C_5  and  N_6
REMARK    6  A    between atoms: N_6  and  C_7
REMARK    7  A    between atoms: C_7  and  C_8
REMARK    8  A    between atoms: C_14  and  C_15
REMARK    9  A    between atoms: C_21  and  C_23
REMARK                            x       y       z     vdW  Elec       q    Type
REMARK                         _______ _______ _______ _____ _____    ______ ____
ROOT
ATOM      1  N   UNL     1       0.057  11.008  18.560  0.00  0.00    +0.000 N 
ATOM      2  C   UNL     1       0.057  12.356  18.974  0.00  0.00    +0.000 C 
ATOM      3  O   UNL     1      -0.982  12.926  19.318  0.00  0.00    +0.000 OA
ENDROOT
BRANCH   2   4
ATOM      4  C   UNL     1       1.322  13.145  19.107  0.00  0.00    +0.000 A 
ATOM      5  C   UNL     1       1.936  13.795  18.028  0.00  0.00    +0.000 A 
ATOM      6  C   UNL     1       3.187  14.377  18.171  0.00  0.00    +0.000 A 
ATOM      7  C   UNL     1       3.799  14.461  19.422  0.00  0.00    +0.000 A 
ATOM      8  C   UNL     1       5.048  15.082  19.558  0.00  0.00    +0.000 A 
ATOM      9  C   UNL     1       5.619  15.256  20.817  0.00  0.00    +0.000 A 
ATOM     10  C   UNL     1       4.952  14.799  21.950  0.00  0.00    +0.000 A 
ATOM     11  C   UNL     1       3.725  14.136  21.821  0.00  0.00    +0.000 A 
ATOM     12  C   UNL     1       3.135  13.947  20.556  0.00  0.00    +0.000 A 
ATOM     13  C   UNL     1       1.909  13.266  20.379  0.00  0.00    +0.000 A 
ENDBRANCH   2   4
BRANCH   1  14
ATOM     14  C   UNL     1      -1.242  10.313  18.566  0.00  0.00    +0.000 C 
BRANCH  14  15
ATOM     15  C   UNL     1      -1.764   9.867  17.188  0.00  0.00    +0.000 C 
BRANCH  15  17
ATOM     16  C   UNL     1      -3.779  11.426  17.581  0.00  0.00    +0.000 C 
ATOM     17  C   UNL     1      -3.216  10.230  16.812  0.00  0.00    +0.000 C 
ATOM     18  C   UNL     1      -3.284  10.552  15.309  0.00  0.00    +0.000 C 
ENDBRANCH  15  17
ENDBRANCH  14  15
ENDBRANCH   1  14
BRANCH   1  19
ATOM     19  C   UNL     1       1.216  10.209  18.119  0.00  0.00    +0.000 C 
BRANCH  19  20
ATOM     20  C   UNL     1       1.640   9.026  18.973  0.00  0.00    +0.000 A 
ATOM     21  C   UNL     1       1.154   8.824  20.267  0.00  0.00    +0.000 A 
ATOM     22  C   UNL     1       1.318   7.589  20.899  0.00  0.00    +0.000 A 
ATOM     23  C   UNL     1       1.974   6.530  20.257  0.00  0.00    +0.000 A 
ATOM     24  C   UNL     1       1.973   5.241  20.810  0.00  0.00    +0.000 A 
ATOM     25  C   UNL     1       2.688   4.203  20.213  0.00  0.00    +0.000 A 
ATOM     26  C   UNL     1       3.460   4.464  19.082  0.00  0.00    +0.000 A 
ATOM     27  C   UNL     1       3.413   5.729  18.476  0.00  0.00    +0.000 A 
ATOM     28  C   UNL     1       2.628   6.764  19.029  0.00  0.00    +0.000 A 
ATOM     29  C   UNL     1       2.437   8.013  18.395  0.00  0.00    +0.000 A 
BRANCH  26  30
ATOM     30  C   UNL     1       4.394   3.421  18.573  0.00  0.00    +0.000 C 
ATOM     31  N   UNL     1       4.007   2.252  18.173  0.00  0.00    +0.000 NA
ATOM     32  N   UNL     1       5.737   3.656  18.567  0.00  0.00    +0.000 N 
ATOM     33  H   UNL     1       2.988   2.165  18.191  0.00  0.00    +0.000 HD
ATOM     34  H   UNL     1       6.083   4.208  19.343  0.00  0.00    +0.000 HD
ATOM     35  H   UNL     1       6.247   2.784  18.462  0.00  0.00    +0.000 HD
ENDBRANCH  26  30
ENDBRANCH  19  20
ENDBRANCH   1  19
TORSDOF 7
ENDMDL
