MODEL 1
REMARK VINA RESULT:      -6.7      0.000      0.000
REMARK  Name = 
REMARK  5 active torsions:
REMARK  status: ('A' for Active; 'I' for Inactive)
REMARK    1  A    between atoms: C_2  and  C_13
REMARK    2  A    between atoms: N_3  and  C_4
REMARK    3  A    between atoms: C_4  and  C_5
REMARK    4  A    between atoms: C_5  and  N_6
REMARK    5  A    between atoms: C_7  and  C_9
REMARK                            x       y       z     vdW  Elec       q    Type
REMARK                         _______ _______ _______ _____ _____    ______ ____
ROOT
ATOM      1  O   UNL     1       3.883   6.068  17.396  0.00  0.00    +0.000 OA
ATOM      2  C   UNL     1       3.623   4.881  17.557  0.00  0.00    +0.000 C 
ATOM      3  N   UNL     1       4.080   3.885  16.718  0.00  0.00    +0.000 N 
ATOM      4  H   UNL     1       3.699   2.950  16.790  0.00  0.00    +0.000 HD
ENDROOT
BRANCH   2   5
ATOM      5  C   UNL     1       2.744   4.460  18.677  0.00  0.00    +0.000 A 
ATOM      6  C   UNL     1       1.702   3.576  18.404  0.00  0.00    +0.000 A 
ATOM      7  C   UNL     1       0.885   3.196  19.450  0.00  0.00    +0.000 A 
ATOM      8  N   UNL     1       1.034   3.645  20.715  0.00  0.00    +0.000 NA
ATOM      9  C   UNL     1       2.036   4.521  20.944  0.00  0.00    +0.000 A 
ATOM     10  C   UNL     1       2.915   4.956  19.970  0.00  0.00    +0.000 A 
ENDBRANCH   2   5
BRANCH   3  11
ATOM     11  C   UNL     1       4.903   4.201  15.563  0.00  0.00    +0.000 C 
BRANCH  11  12
ATOM     12  C   UNL     1       6.396   3.963  15.824  0.00  0.00    +0.000 C 
BRANCH  12  13
ATOM     13  N   UNL     1       6.810   4.371  17.160  0.00  0.00    +0.000 N 
ATOM     14  C   UNL     1       7.372   5.620  17.396  0.00  0.00    +0.000 C 
ATOM     15  O   UNL     1       7.521   6.435  16.482  0.00  0.00    +0.000 OA
ATOM     16  H   UNL     1       6.671   3.729  17.935  0.00  0.00    +0.000 HD
BRANCH  14  17
ATOM     17  C   UNL     1       7.784   5.902  18.860  0.00  0.00    +0.000 C 
ATOM     18  F   UNL     1       8.311   7.155  19.006  0.00  0.00    +0.000 F 
ATOM     19  F   UNL     1       6.733   5.828  19.720  0.00  0.00    +0.000 F 
ATOM     20  F   UNL     1       8.728   5.036  19.312  0.00  0.00    +0.000 F 
ENDBRANCH  14  17
ENDBRANCH  12  13
ENDBRANCH  11  12
ENDBRANCH   3  11
TORSDOF 5
ENDMDL
MODEL 2
REMARK VINA RESULT:      -6.7      0.195      1.128
REMARK  Name = 
REMARK  5 active torsions:
REMARK  status: ('A' for Active; 'I' for Inactive)
REMARK    1  A    between atoms: C_2  and  C_13
REMARK    2  A    between atoms: N_3  and  C_4
REMARK    3  A    between atoms: C_4  and  C_5
REMARK    4  A    between atoms: C_5  and  N_6
REMARK    5  A    between atoms: C_7  and  C_9
REMARK                            x       y       z     vdW  Elec       q    Type
REMARK                         _______ _______ _______ _____ _____    ______ ____
ROOT
ATOM      1  O   UNL     1       3.594   6.001  17.444  0.00  0.00    +0.000 OA
ATOM      2  C   UNL     1       3.468   4.795  17.628  0.00  0.00    +0.000 C 
ATOM      3  N   UNL     1       4.044   3.841  16.816  0.00  0.00    +0.000 N 
ATOM      4  H   UNL     1       3.771   2.870  16.905  0.00  0.00    +0.000 HD
ENDROOT
BRANCH   2   5
ATOM      5  C   UNL     1       2.629   4.301  18.749  0.00  0.00    +0.000 A 
ATOM      6  C   UNL     1       2.945   4.712  20.043  0.00  0.00    +0.000 A 
ATOM      7  C   UNL     1       2.164   4.241  21.080  0.00  0.00    +0.000 A 
ATOM      8  N   UNL     1       1.124   3.397  20.908  0.00  0.00    +0.000 NA
ATOM      9  C   UNL     1       0.858   2.996  19.647  0.00  0.00    +0.000 A 
ATOM     10  C   UNL     1       1.571   3.415  18.539  0.00  0.00    +0.000 A 
ENDBRANCH   2   5
BRANCH   3  11
ATOM     11  C   UNL     1       4.840   4.225  15.662  0.00  0.00    +0.000 C 
BRANCH  11  12
ATOM     12  C   UNL     1       6.336   3.949  15.864  0.00  0.00    +0.000 C 
BRANCH  12  13
ATOM     13  N   UNL     1       6.809   4.333  17.186  0.00  0.00    +0.000 N 
ATOM     14  C   UNL     1       7.336   5.595  17.432  0.00  0.00    +0.000 C 
ATOM     15  O   UNL     1       7.401   6.443  16.538  0.00  0.00    +0.000 OA
ATOM     16  H   UNL     1       6.740   3.662  17.947  0.00  0.00    +0.000 HD
BRANCH  14  17
ATOM     17  C   UNL     1       7.820   5.849  18.879  0.00  0.00    +0.000 C 
ATOM     18  F   UNL     1       8.396   7.081  19.013  0.00  0.00    +0.000 F 
ATOM     19  F   UNL     1       6.805   5.803  19.783  0.00  0.00    +0.000 F 
ATOM     20  F   UNL     1       8.751   4.946  19.283  0.00  0.00    +0.000 F 
ENDBRANCH  14  17
ENDBRANCH  12  13
ENDBRANCH  11  12
ENDBRANCH   3  11
TORSDOF 5
ENDMDL
MODEL 3
REMARK VINA RESULT:      -6.6      2.705      3.331
REMARK  Name = 
REMARK  5 active torsions:
REMARK  status: ('A' for Active; 'I' for Inactive)
REMARK    1  A    between atoms: C_2  and  C_13
REMARK    2  A    between atoms: N_3  and  C_4
REMARK    3  A    between atoms: C_4  and  C_5
REMARK    4  A    between atoms: C_5  and  N_6
REMARK    5  A    between atoms: C_7  and  C_9
REMARK                            x       y       z     vdW  Elec       q    Type
REMARK                         _______ _______ _______ _____ _____    ______ ____
ROOT
ATOM      1  O   UNL     1       3.991   6.129  19.614  0.00  0.00    +0.000 OA
ATOM      2  C   UNL     1       4.179   4.946  19.354  0.00  0.00    +0.000 C 
ATOM      3  N   UNL     1       5.433   4.397  19.188  0.00  0.00    +0.000 N 
ATOM      4  H   UNL     1       5.530   3.464  18.806  0.00  0.00    +0.000 HD
ENDROOT
BRANCH   2   5
ATOM      5  C   UNL     1       3.021   4.036  19.166  0.00  0.00    +0.000 A 
ATOM      6  C   UNL     1       1.892   4.228  19.959  0.00  0.00    +0.000 A 
ATOM      7  C   UNL     1       0.823   3.373  19.783  0.00  0.00    +0.000 A 
ATOM      8  N   UNL     1       0.819   2.355  18.894  0.00  0.00    +0.000 NA
ATOM      9  C   UNL     1       1.936   2.177  18.157  0.00  0.00    +0.000 A 
ATOM     10  C   UNL     1       3.056   2.983  18.250  0.00  0.00    +0.000 A 
ENDBRANCH   2   5
BRANCH   3  11
ATOM     11  C   UNL     1       6.628   5.218  19.300  0.00  0.00    +0.000 C 
BRANCH  11  12
ATOM     12  C   UNL     1       7.719   4.805  18.304  0.00  0.00    +0.000 C 
BRANCH  12  13
ATOM     13  N   UNL     1       7.179   4.350  17.030  0.00  0.00    +0.000 N 
ATOM     14  C   UNL     1       7.046   5.213  15.948  0.00  0.00    +0.000 C 
ATOM     15  O   UNL     1       7.401   6.391  16.026  0.00  0.00    +0.000 OA
ATOM     16  H   UNL     1       6.907   3.376  16.931  0.00  0.00    +0.000 HD
BRANCH  14  17
ATOM     17  C   UNL     1       6.435   4.593  14.669  0.00  0.00    +0.000 C 
ATOM     18  F   UNL     1       6.299   3.237  14.777  0.00  0.00    +0.000 F 
ATOM     19  F   UNL     1       5.193   5.079  14.397  0.00  0.00    +0.000 F 
ATOM     20  F   UNL     1       7.197   4.814  13.567  0.00  0.00    +0.000 F 
ENDBRANCH  14  17
ENDBRANCH  12  13
ENDBRANCH  11  12
ENDBRANCH   3  11
TORSDOF 5
ENDMDL
MODEL 4
REMARK VINA RESULT:      -6.6      0.605      1.486
REMARK  Name = 
REMARK  5 active torsions:
REMARK  status: ('A' for Active; 'I' for Inactive)
REMARK    1  A    between atoms: C_2  and  C_13
REMARK    2  A    between atoms: N_3  and  C_4
REMARK    3  A    between atoms: C_4  and  C_5
REMARK    4  A    between atoms: C_5  and  N_6
REMARK    5  A    between atoms: C_7  and  C_9
REMARK                            x       y       z     vdW  Elec       q    Type
REMARK                         _______ _______ _______ _____ _____    ______ ____
ROOT
ATOM      1  O   UNL     1       3.962   5.787  17.621  0.00  0.00    +0.000 OA
ATOM      2  C   UNL     1       3.594   4.635  17.424  0.00  0.00    +0.000 C 
ATOM      3  N   UNL     1       4.076   3.851  16.397  0.00  0.00    +0.000 N 
ATOM      4  H   UNL     1       3.619   2.976  16.171  0.00  0.00    +0.000 HD
ENDROOT
BRANCH   2   5
ATOM      5  C   UNL     1       2.551   4.032  18.291  0.00  0.00    +0.000 A 
ATOM      6  C   UNL     1       2.095   4.765  19.385  0.00  0.00    +0.000 A 
ATOM      7  C   UNL     1       1.131   4.194  20.191  0.00  0.00    +0.000 A 
ATOM      8  N   UNL     1       0.617   2.962  19.983  0.00  0.00    +0.000 NA
ATOM      9  C   UNL     1       1.096   2.265  18.930  0.00  0.00    +0.000 A 
ATOM     10  C   UNL     1       2.053   2.749  18.058  0.00  0.00    +0.000 A 
ENDBRANCH   2   5
BRANCH   3  11
ATOM     11  C   UNL     1       5.061   4.369  15.461  0.00  0.00    +0.000 C 
BRANCH  11  12
ATOM     12  C   UNL     1       6.492   3.951  15.825  0.00  0.00    +0.000 C 
BRANCH  12  13
ATOM     13  N   UNL     1       6.882   4.373  17.163  0.00  0.00    +0.000 N 
ATOM     14  C   UNL     1       7.402   5.639  17.402  0.00  0.00    +0.000 C 
ATOM     15  O   UNL     1       7.531   6.458  16.489  0.00  0.00    +0.000 OA
ATOM     16  H   UNL     1       6.759   3.726  17.938  0.00  0.00    +0.000 HD
BRANCH  14  17
ATOM     17  C   UNL     1       7.795   5.935  18.869  0.00  0.00    +0.000 C 
ATOM     18  F   UNL     1       8.727   5.050  19.334  0.00  0.00    +0.000 F 
ATOM     19  F   UNL     1       8.336   7.174  19.023  0.00  0.00    +0.000 F 
ATOM     20  F   UNL     1       6.737   5.857  19.718  0.00  0.00    +0.000 F 
ENDBRANCH  14  17
ENDBRANCH  12  13
ENDBRANCH  11  12
ENDBRANCH   3  11
TORSDOF 5
ENDMDL
MODEL 5
REMARK VINA RESULT:      -6.6      3.814      4.288
REMARK  Name = 
REMARK  5 active torsions:
REMARK  status: ('A' for Active; 'I' for Inactive)
REMARK    1  A    between atoms: C_2  and  C_13
REMARK    2  A    between atoms: N_3  and  C_4
REMARK    3  A    between atoms: C_4  and  C_5
REMARK    4  A    between atoms: C_5  and  N_6
REMARK    5  A    between atoms: C_7  and  C_9
REMARK                            x       y       z     vdW  Elec       q    Type
REMARK                         _______ _______ _______ _____ _____    ______ ____
ROOT
ATOM      1  O   UNL     1       2.420   3.309  16.856  0.00  0.00    +0.000 OA
ATOM      2  C   UNL     1       3.083   3.669  17.822  0.00  0.00    +0.000 C 
ATOM      3  N   UNL     1       4.272   4.360  17.710  0.00  0.00    +0.000 N 
ATOM      4  H   UNL     1       4.864   4.481  18.522  0.00  0.00    +0.000 HD
ENDROOT
BRANCH   2   5
ATOM      5  C   UNL     1       2.635   3.329  19.195  0.00  0.00    +0.000 A 
ATOM      6  C   UNL     1       3.565   2.787  20.080  0.00  0.00    +0.000 A 
ATOM      7  C   UNL     1       3.138   2.466  21.353  0.00  0.00    +0.000 A 
ATOM      8  N   UNL     1       1.867   2.637  21.780  0.00  0.00    +0.000 NA
ATOM      9  C   UNL     1       0.982   3.140  20.893  0.00  0.00    +0.000 A 
ATOM     10  C   UNL     1       1.310   3.502  19.600  0.00  0.00    +0.000 A 
ENDBRANCH   2   5
BRANCH   3  11
ATOM     11  C   UNL     1       4.821   4.694  16.406  0.00  0.00    +0.000 C 
BRANCH  11  12
ATOM     12  C   UNL     1       6.016   3.808  16.029  0.00  0.00    +0.000 C 
BRANCH  12  13
ATOM     13  N   UNL     1       6.038   3.458  14.616  0.00  0.00    +0.000 N 
ATOM     14  C   UNL     1       6.658   4.271  13.675  0.00  0.00    +0.000 C 
ATOM     15  O   UNL     1       7.232   5.310  14.011  0.00  0.00    +0.000 OA
ATOM     16  H   UNL     1       5.597   2.591  14.318  0.00  0.00    +0.000 HD
BRANCH  14  17
ATOM     17  C   UNL     1       6.578   3.781  12.210  0.00  0.00    +0.000 C 
ATOM     18  F   UNL     1       7.324   4.562  11.372  0.00  0.00    +0.000 F 
ATOM     19  F   UNL     1       7.041   2.511  12.060  0.00  0.00    +0.000 F 
ATOM     20  F   UNL     1       5.309   3.800  11.723  0.00  0.00    +0.000 F 
ENDBRANCH  14  17
ENDBRANCH  12  13
ENDBRANCH  11  12
ENDBRANCH   3  11
TORSDOF 5
ENDMDL
MODEL 6
REMARK VINA RESULT:      -6.5      3.742      5.235
REMARK  Name = 
REMARK  5 active torsions:
REMARK  status: ('A' for Active; 'I' for Inactive)
REMARK    1  A    between atoms: C_2  and  C_13
REMARK    2  A    between atoms: N_3  and  C_4
REMARK    3  A    between atoms: C_4  and  C_5
REMARK    4  A    between atoms: C_5  and  N_6
REMARK    5  A    between atoms: C_7  and  C_9
REMARK                            x       y       z     vdW  Elec       q    Type
REMARK                         _______ _______ _______ _____ _____    ______ ____
ROOT
ATOM      1  O   UNL     1       4.378   5.542  19.395  0.00  0.00    +0.000 OA
ATOM      2  C   UNL     1       3.453   5.813  18.639  0.00  0.00    +0.000 C 
ATOM      3  N   UNL     1       3.104   5.031  17.558  0.00  0.00    +0.000 N 
ATOM      4  H   UNL     1       2.452   5.384  16.868  0.00  0.00    +0.000 HD
ENDROOT
BRANCH   2   5
ATOM      5  C   UNL     1       2.670   7.058  18.843  0.00  0.00    +0.000 A 
ATOM      6  C   UNL     1       2.579   7.964  17.788  0.00  0.00    +0.000 A 
ATOM      7  C   UNL     1       1.856   9.122  17.990  0.00  0.00    +0.000 A 
ATOM      8  N   UNL     1       1.244   9.428  19.155  0.00  0.00    +0.000 NA
ATOM      9  C   UNL     1       1.371   8.543  20.167  0.00  0.00    +0.000 A 
ATOM     10  C   UNL     1       2.064   7.351  20.066  0.00  0.00    +0.000 A 
ENDBRANCH   2   5
BRANCH   3  11
ATOM     11  C   UNL     1       3.845   3.820  17.243  0.00  0.00    +0.000 C 
BRANCH  11  12
ATOM     12  C   UNL     1       3.190   2.563  17.830  0.00  0.00    +0.000 C 
BRANCH  12  13
ATOM     13  N   UNL     1       3.126   2.586  19.285  0.00  0.00    +0.000 N 
ATOM     14  C   UNL     1       1.965   2.949  19.956  0.00  0.00    +0.000 C 
ATOM     15  O   UNL     1       0.939   3.247  19.338  0.00  0.00    +0.000 OA
ATOM     16  H   UNL     1       3.950   2.316  19.817  0.00  0.00    +0.000 HD
BRANCH  14  17
ATOM     17  C   UNL     1       2.056   2.950  21.500  0.00  0.00    +0.000 C 
ATOM     18  F   UNL     1       3.058   2.136  21.949  0.00  0.00    +0.000 F 
ATOM     19  F   UNL     1       2.314   4.186  22.006  0.00  0.00    +0.000 F 
ATOM     20  F   UNL     1       0.914   2.512  22.090  0.00  0.00    +0.000 F 
ENDBRANCH  14  17
ENDBRANCH  12  13
ENDBRANCH  11  12
ENDBRANCH   3  11
TORSDOF 5
ENDMDL
MODEL 7
REMARK VINA RESULT:      -6.5      2.746      3.291
REMARK  Name = 
REMARK  5 active torsions:
REMARK  status: ('A' for Active; 'I' for Inactive)
REMARK    1  A    between atoms: C_2  and  C_13
REMARK    2  A    between atoms: N_3  and  C_4
REMARK    3  A    between atoms: C_4  and  C_5
REMARK    4  A    between atoms: C_5  and  N_6
REMARK    5  A    between atoms: C_7  and  C_9
REMARK                            x       y       z     vdW  Elec       q    Type
REMARK                         _______ _______ _______ _____ _____    ______ ____
ROOT
ATOM      1  O   UNL     1       4.432   6.148  18.029  0.00  0.00    +0.000 OA
ATOM      2  C   UNL     1       4.502   5.230  18.838  0.00  0.00    +0.000 C 
ATOM      3  N   UNL     1       5.688   4.805  19.399  0.00  0.00    +0.000 N 
ATOM      4  H   UNL     1       5.717   3.939  19.923  0.00  0.00    +0.000 HD
ENDROOT
BRANCH   2   5
ATOM      5  C   UNL     1       3.275   4.491  19.229  0.00  0.00    +0.000 A 
ATOM      6  C   UNL     1       2.759   3.550  18.340  0.00  0.00    +0.000 A 
ATOM      7  C   UNL     1       1.613   2.873  18.708  0.00  0.00    +0.000 A 
ATOM      8  N   UNL     1       0.962   3.084  19.873  0.00  0.00    +0.000 NA
ATOM      9  C   UNL     1       1.471   4.021  20.702  0.00  0.00    +0.000 A 
ATOM     10  C   UNL     1       2.617   4.746  20.433  0.00  0.00    +0.000 A 
ENDBRANCH   2   5
BRANCH   3  11
ATOM     11  C   UNL     1       6.951   5.430  19.040  0.00  0.00    +0.000 C 
BRANCH  11  12
ATOM     12  C   UNL     1       7.709   4.643  17.964  0.00  0.00    +0.000 C 
BRANCH  12  13
ATOM     13  N   UNL     1       7.335   5.029  16.611  0.00  0.00    +0.000 N 
ATOM     14  C   UNL     1       6.378   4.324  15.892  0.00  0.00    +0.000 C 
ATOM     15  O   UNL     1       5.796   3.355  16.387  0.00  0.00    +0.000 OA
ATOM     16  H   UNL     1       7.779   5.843  16.191  0.00  0.00    +0.000 HD
BRANCH  14  17
ATOM     17  C   UNL     1       6.103   4.837  14.459  0.00  0.00    +0.000 C 
ATOM     18  F   UNL     1       7.259   5.164  13.807  0.00  0.00    +0.000 F 
ATOM     19  F   UNL     1       5.478   3.909  13.685  0.00  0.00    +0.000 F 
ATOM     20  F   UNL     1       5.328   5.952  14.444  0.00  0.00    +0.000 F 
ENDBRANCH  14  17
ENDBRANCH  12  13
ENDBRANCH  11  12
ENDBRANCH   3  11
TORSDOF 5
ENDMDL
MODEL 8
REMARK VINA RESULT:      -6.5      1.323      1.348
REMARK  Name = 
REMARK  5 active torsions:
REMARK  status: ('A' for Active; 'I' for Inactive)
REMARK    1  A    between atoms: C_2  and  C_13
REMARK    2  A    between atoms: N_3  and  C_4
REMARK    3  A    between atoms: C_4  and  C_5
REMARK    4  A    between atoms: C_5  and  N_6
REMARK    5  A    between atoms: C_7  and  C_9
REMARK                            x       y       z     vdW  Elec       q    Type
REMARK                         _______ _______ _______ _____ _____    ______ ____
ROOT
ATOM      1  O   UNL     1       2.103   3.590  16.867  0.00  0.00    +0.000 OA
ATOM      2  C   UNL     1       2.966   3.707  17.729  0.00  0.00    +0.000 C 
ATOM      3  N   UNL     1       4.302   3.898  17.442  0.00  0.00    +0.000 N 
ATOM      4  H   UNL     1       4.993   3.815  18.177  0.00  0.00    +0.000 HD
ENDROOT
BRANCH   2   5
ATOM      5  C   UNL     1       2.599   3.606  19.164  0.00  0.00    +0.000 A 
ATOM      6  C   UNL     1       2.153   2.377  19.648  0.00  0.00    +0.000 A 
ATOM      7  C   UNL     1       1.806   2.294  20.981  0.00  0.00    +0.000 A 
ATOM      8  N   UNL     1       1.863   3.339  21.834  0.00  0.00    +0.000 NA
ATOM      9  C   UNL     1       2.273   4.523  21.332  0.00  0.00    +0.000 A 
ATOM     10  C   UNL     1       2.653   4.710  20.015  0.00  0.00    +0.000 A 
ENDBRANCH   2   5
BRANCH   3  11
ATOM     11  C   UNL     1       4.769   3.958  16.067  0.00  0.00    +0.000 C 
BRANCH  11  12
ATOM     12  C   UNL     1       5.859   5.018  15.864  0.00  0.00    +0.000 C 
BRANCH  12  13
ATOM     13  N   UNL     1       6.345   5.578  17.118  0.00  0.00    +0.000 N 
ATOM     14  C   UNL     1       7.496   5.097  17.731  0.00  0.00    +0.000 C 
ATOM     15  O   UNL     1       8.158   4.190  17.221  0.00  0.00    +0.000 OA
ATOM     16  H   UNL     1       5.833   6.346  17.543  0.00  0.00    +0.000 HD
BRANCH  14  17
ATOM     17  C   UNL     1       7.873   5.774  19.070  0.00  0.00    +0.000 C 
ATOM     18  F   UNL     1       8.302   7.059  18.886  0.00  0.00    +0.000 F 
ATOM     19  F   UNL     1       6.824   5.843  19.932  0.00  0.00    +0.000 F 
ATOM     20  F   UNL     1       8.876   5.125  19.717  0.00  0.00    +0.000 F 
ENDBRANCH  14  17
ENDBRANCH  12  13
ENDBRANCH  11  12
ENDBRANCH   3  11
TORSDOF 5
ENDMDL
MODEL 9
REMARK VINA RESULT:      -6.4      1.110      1.110
REMARK  Name = 
REMARK  5 active torsions:
REMARK  status: ('A' for Active; 'I' for Inactive)
REMARK    1  A    between atoms: C_2  and  C_13
REMARK    2  A    between atoms: N_3  and  C_4
REMARK    3  A    between atoms: C_4  and  C_5
REMARK    4  A    between atoms: C_5  and  N_6
REMARK    5  A    between atoms: C_7  and  C_9
REMARK                            x       y       z     vdW  Elec       q    Type
REMARK                         _______ _______ _______ _____ _____    ______ ____
ROOT
ATOM      1  O   UNL     1       4.096   5.829  16.968  0.00  0.00    +0.000 OA
ATOM      2  C   UNL     1       4.139   4.604  16.978  0.00  0.00    +0.000 C 
ATOM      3  N   UNL     1       4.824   3.862  16.038  0.00  0.00    +0.000 N 
ATOM      4  H   UNL     1       4.687   2.860  15.988  0.00  0.00    +0.000 HD
ENDROOT
BRANCH   2   5
ATOM      5  C   UNL     1       3.398   3.845  18.017  0.00  0.00    +0.000 A 
ATOM      6  C   UNL     1       2.005   3.831  17.959  0.00  0.00    +0.000 A 
ATOM      7  C   UNL     1       1.324   3.129  18.934  0.00  0.00    +0.000 A 
ATOM      8  N   UNL     1       1.933   2.471  19.943  0.00  0.00    +0.000 NA
ATOM      9  C   UNL     1       3.281   2.524  19.989  0.00  0.00    +0.000 A 
ATOM     10  C   UNL     1       4.057   3.190  19.058  0.00  0.00    +0.000 A 
ENDBRANCH   2   5
BRANCH   3  11
ATOM     11  C   UNL     1       5.537   4.511  14.950  0.00  0.00    +0.000 C 
BRANCH  11  12
ATOM     12  C   UNL     1       7.037   4.653  15.235  0.00  0.00    +0.000 C 
BRANCH  12  13
ATOM     13  N   UNL     1       7.334   4.791  16.655  0.00  0.00    +0.000 N 
ATOM     14  C   UNL     1       7.450   6.039  17.255  0.00  0.00    +0.000 C 
ATOM     15  O   UNL     1       7.286   7.075  16.606  0.00  0.00    +0.000 OA
ATOM     16  H   UNL     1       7.445   3.951  17.217  0.00  0.00    +0.000 HD
BRANCH  14  17
ATOM     17  C   UNL     1       7.792   6.027  18.763  0.00  0.00    +0.000 C 
ATOM     18  F   UNL     1       8.374   7.198  19.161  0.00  0.00    +0.000 F 
ATOM     19  F   UNL     1       6.691   5.864  19.545  0.00  0.00    +0.000 F 
ATOM     20  F   UNL     1       8.662   5.036  19.093  0.00  0.00    +0.000 F 
ENDBRANCH  14  17
ENDBRANCH  12  13
ENDBRANCH  11  12
ENDBRANCH   3  11
TORSDOF 5
ENDMDL
