MODEL 1
REMARK VINA RESULT:      -6.2      0.000      0.000
REMARK  Name = 
REMARK  7 active torsions:
REMARK  status: ('A' for Active; 'I' for Inactive)
REMARK    1  A    between atoms: C_1  and  C_2
REMARK    2  A    between atoms: C_2  and  C_3
REMARK    3  A    between atoms: C_3  and  C_4
REMARK    4  A    between atoms: C_4  and  C_5
REMARK    5  A    between atoms: C_5  and  C_6
REMARK    6  A    between atoms: N_8  and  C_9
REMARK    7  A    between atoms: C_9  and  N_11
REMARK                            x       y       z     vdW  Elec       q    Type
REMARK                         _______ _______ _______ _____ _____    ______ ____
ROOT
ATOM      1  C   UNL     1       4.248   6.111  17.901  0.00  0.00    +0.000 C 
ATOM      2  S   UNL     1       3.215   7.426  17.887  0.00  0.00    +0.000 S 
ENDROOT
BRANCH   1   3
ATOM      3  N   UNL     1       5.531   6.347  17.463  0.00  0.00    +0.000 N 
ATOM      4  C   UNL     1       6.071   5.826  16.314  0.00  0.00    +0.000 A 
ATOM      5  N   UNL     1       5.472   5.127  15.374  0.00  0.00    +0.000 NA
ATOM      6  N   UNL     1       6.435   4.832  14.440  0.00  0.00    +0.000 NA
ATOM      7  N   UNL     1       7.605   5.340  14.790  0.00  0.00    +0.000 NA
ATOM      8  N   UNL     1       7.384   5.965  15.954  0.00  0.00    +0.000 N 
ATOM      9  H   UNL     1       6.111   6.876  18.106  0.00  0.00    +0.000 HD
ATOM     10  H   UNL     1       8.149   6.430  16.426  0.00  0.00    +0.000 HD
ENDBRANCH   1   3
BRANCH   1  13
ATOM     11  C   UNL     1       4.757   3.946  19.057  0.00  0.00    +0.000 C 
ATOM     12  O   UNL     1       5.908   4.174  19.425  0.00  0.00    +0.000 OA
ATOM     13  N   UNL     1       3.960   4.826  18.330  0.00  0.00    +0.000 N 
ATOM     14  H   UNL     1       3.087   4.447  17.989  0.00  0.00    +0.000 HD
BRANCH  11  15
ATOM     15  C   UNL     1       4.114   2.604  19.348  0.00  0.00    +0.000 C 
BRANCH  15  16
ATOM     16  C   UNL     1       3.161   2.095  18.267  0.00  0.00    +0.000 C 
BRANCH  16  17
ATOM     17  C   UNL     1       1.689   2.200  18.673  0.00  0.00    +0.000 C 
BRANCH  17  19
ATOM     18  C   UNL     1       0.825   3.863  20.352  0.00  0.00    +0.000 C 
ATOM     19  C   UNL     1       1.544   2.536  20.157  0.00  0.00    +0.000 C 
ENDBRANCH  17  19
ENDBRANCH  16  17
ENDBRANCH  15  16
ENDBRANCH  11  15
ENDBRANCH   1  13
TORSDOF 6
ENDMDL
MODEL 2
REMARK VINA RESULT:      -6.2      3.554      5.987
REMARK  Name = 
REMARK  7 active torsions:
REMARK  status: ('A' for Active; 'I' for Inactive)
REMARK    1  A    between atoms: C_1  and  C_2
REMARK    2  A    between atoms: C_2  and  C_3
REMARK    3  A    between atoms: C_3  and  C_4
REMARK    4  A    between atoms: C_4  and  C_5
REMARK    5  A    between atoms: C_5  and  C_6
REMARK    6  A    between atoms: N_8  and  C_9
REMARK    7  A    between atoms: C_9  and  N_11
REMARK                            x       y       z     vdW  Elec       q    Type
REMARK                         _______ _______ _______ _____ _____    ______ ____
ROOT
ATOM      1  C   UNL     1       6.285   4.374  18.000  0.00  0.00    +0.000 C 
ATOM      2  S   UNL     1       6.893   5.597  18.965  0.00  0.00    +0.000 S 
ENDROOT
BRANCH   1   3
ATOM      3  N   UNL     1       5.404   3.509  18.608  0.00  0.00    +0.000 N 
ATOM      4  C   UNL     1       4.116   3.286  18.190  0.00  0.00    +0.000 A 
ATOM      5  N   UNL     1       3.519   3.735  17.107  0.00  0.00    +0.000 NA
ATOM      6  N   UNL     1       2.238   3.244  17.141  0.00  0.00    +0.000 NA
ATOM      7  N   UNL     1       2.043   2.504  18.219  0.00  0.00    +0.000 NA
ATOM      8  N   UNL     1       3.211   2.521  18.875  0.00  0.00    +0.000 N 
ATOM      9  H   UNL     1       5.741   3.093  19.470  0.00  0.00    +0.000 HD
ATOM     10  H   UNL     1       3.302   2.020  19.750  0.00  0.00    +0.000 HD
ENDBRANCH   1   3
BRANCH   1  13
ATOM     11  C   UNL     1       6.404   5.031  15.585  0.00  0.00    +0.000 C 
ATOM     12  O   UNL     1       5.971   6.180  15.662  0.00  0.00    +0.000 OA
ATOM     13  N   UNL     1       6.549   4.157  16.658  0.00  0.00    +0.000 N 
ATOM     14  H   UNL     1       6.792   3.206  16.419  0.00  0.00    +0.000 HD
BRANCH  11  15
ATOM     15  C   UNL     1       6.785   4.448  14.238  0.00  0.00    +0.000 C 
BRANCH  15  16
ATOM     16  C   UNL     1       5.659   3.720  13.505  0.00  0.00    +0.000 C 
BRANCH  16  17
ATOM     17  C   UNL     1       5.936   3.545  12.011  0.00  0.00    +0.000 C 
BRANCH  17  19
ATOM     18  C   UNL     1       7.122   1.562  11.017  0.00  0.00    +0.000 C 
ATOM     19  C   UNL     1       5.812   2.082  11.588  0.00  0.00    +0.000 C 
ENDBRANCH  17  19
ENDBRANCH  16  17
ENDBRANCH  15  16
ENDBRANCH  11  15
ENDBRANCH   1  13
TORSDOF 6
ENDMDL
MODEL 3
REMARK VINA RESULT:      -6.2      3.358      5.790
REMARK  Name = 
REMARK  7 active torsions:
REMARK  status: ('A' for Active; 'I' for Inactive)
REMARK    1  A    between atoms: C_1  and  C_2
REMARK    2  A    between atoms: C_2  and  C_3
REMARK    3  A    between atoms: C_3  and  C_4
REMARK    4  A    between atoms: C_4  and  C_5
REMARK    5  A    between atoms: C_5  and  C_6
REMARK    6  A    between atoms: N_8  and  C_9
REMARK    7  A    between atoms: C_9  and  N_11
REMARK                            x       y       z     vdW  Elec       q    Type
REMARK                         _______ _______ _______ _____ _____    ______ ____
ROOT
ATOM      1  C   UNL     1       4.974   5.593  17.189  0.00  0.00    +0.000 C 
ATOM      2  S   UNL     1       4.001   6.915  17.511  0.00  0.00    +0.000 S 
ENDROOT
BRANCH   1   3
ATOM      3  N   UNL     1       5.239   4.765  18.256  0.00  0.00    +0.000 N 
ATOM      4  C   UNL     1       4.654   3.541  18.458  0.00  0.00    +0.000 A 
ATOM      5  N   UNL     1       3.850   2.877  17.656  0.00  0.00    +0.000 NA
ATOM      6  N   UNL     1       3.530   1.712  18.307  0.00  0.00    +0.000 NA
ATOM      7  N   UNL     1       4.124   1.651  19.487  0.00  0.00    +0.000 NA
ATOM      8  N   UNL     1       4.832   2.784  19.585  0.00  0.00    +0.000 N 
ATOM      9  H   UNL     1       5.849   5.163  18.963  0.00  0.00    +0.000 HD
ATOM     10  H   UNL     1       5.373   2.967  20.420  0.00  0.00    +0.000 HD
ENDBRANCH   1   3
BRANCH   1  13
ATOM     11  C   UNL     1       6.796   4.779  15.674  0.00  0.00    +0.000 C 
ATOM     12  O   UNL     1       7.706   4.654  16.493  0.00  0.00    +0.000 OA
ATOM     13  N   UNL     1       5.513   5.229  15.966  0.00  0.00    +0.000 N 
ATOM     14  H   UNL     1       4.917   5.403  15.168  0.00  0.00    +0.000 HD
BRANCH  11  15
ATOM     15  C   UNL     1       7.042   4.477  14.208  0.00  0.00    +0.000 C 
BRANCH  15  16
ATOM     16  C   UNL     1       5.869   3.827  13.475  0.00  0.00    +0.000 C 
BRANCH  16  17
ATOM     17  C   UNL     1       6.198   3.470  12.024  0.00  0.00    +0.000 C 
BRANCH  17  19
ATOM     18  C   UNL     1       6.790   1.293  10.911  0.00  0.00    +0.000 C 
ATOM     19  C   UNL     1       5.722   2.060  11.676  0.00  0.00    +0.000 C 
ENDBRANCH  17  19
ENDBRANCH  16  17
ENDBRANCH  15  16
ENDBRANCH  11  15
ENDBRANCH   1  13
TORSDOF 6
ENDMDL
MODEL 4
REMARK VINA RESULT:      -6.1      3.428      6.025
REMARK  Name = 
REMARK  7 active torsions:
REMARK  status: ('A' for Active; 'I' for Inactive)
REMARK    1  A    between atoms: C_1  and  C_2
REMARK    2  A    between atoms: C_2  and  C_3
REMARK    3  A    between atoms: C_3  and  C_4
REMARK    4  A    between atoms: C_4  and  C_5
REMARK    5  A    between atoms: C_5  and  C_6
REMARK    6  A    between atoms: N_8  and  C_9
REMARK    7  A    between atoms: C_9  and  N_11
REMARK                            x       y       z     vdW  Elec       q    Type
REMARK                         _______ _______ _______ _____ _____    ______ ____
ROOT
ATOM      1  C   UNL     1       5.328   4.244  18.008  0.00  0.00    +0.000 C 
ATOM      2  S   UNL     1       5.762   5.240  19.279  0.00  0.00    +0.000 S 
ENDROOT
BRANCH   1   3
ATOM      3  N   UNL     1       4.563   3.148  18.334  0.00  0.00    +0.000 N 
ATOM      4  C   UNL     1       3.200   3.078  18.191  0.00  0.00    +0.000 A 
ATOM      5  N   UNL     1       2.392   3.949  17.627  0.00  0.00    +0.000 NA
ATOM      6  N   UNL     1       1.126   3.431  17.740  0.00  0.00    +0.000 NA
ATOM      7  N   UNL     1       1.147   2.261  18.357  0.00  0.00    +0.000 NA
ATOM      8  N   UNL     1       2.437   2.032  18.636  0.00  0.00    +0.000 N 
ATOM      9  H   UNL     1       5.068   2.396  18.791  0.00  0.00    +0.000 HD
ATOM     10  H   UNL     1       2.702   1.186  19.123  0.00  0.00    +0.000 HD
ENDBRANCH   1   3
BRANCH   1  13
ATOM     11  C   UNL     1       6.878   4.501  16.055  0.00  0.00    +0.000 C 
ATOM     12  O   UNL     1       7.958   4.458  16.642  0.00  0.00    +0.000 OA
ATOM     13  N   UNL     1       5.631   4.418  16.668  0.00  0.00    +0.000 N 
ATOM     14  H   UNL     1       4.836   4.601  16.070  0.00  0.00    +0.000 HD
BRANCH  11  15
ATOM     15  C   UNL     1       6.832   4.703  14.552  0.00  0.00    +0.000 C 
BRANCH  15  16
ATOM     16  C   UNL     1       6.198   3.558  13.765  0.00  0.00    +0.000 C 
BRANCH  16  17
ATOM     17  C   UNL     1       6.233   3.784  12.252  0.00  0.00    +0.000 C 
BRANCH  17  19
ATOM     18  C   UNL     1       5.881   1.474  11.318  0.00  0.00    +0.000 C 
ATOM     19  C   UNL     1       5.266   2.850  11.526  0.00  0.00    +0.000 C 
ENDBRANCH  17  19
ENDBRANCH  16  17
ENDBRANCH  15  16
ENDBRANCH  11  15
ENDBRANCH   1  13
TORSDOF 6
ENDMDL
MODEL 5
REMARK VINA RESULT:      -6.1      3.480      5.862
REMARK  Name = 
REMARK  7 active torsions:
REMARK  status: ('A' for Active; 'I' for Inactive)
REMARK    1  A    between atoms: C_1  and  C_2
REMARK    2  A    between atoms: C_2  and  C_3
REMARK    3  A    between atoms: C_3  and  C_4
REMARK    4  A    between atoms: C_4  and  C_5
REMARK    5  A    between atoms: C_5  and  C_6
REMARK    6  A    between atoms: N_8  and  C_9
REMARK    7  A    between atoms: C_9  and  N_11
REMARK                            x       y       z     vdW  Elec       q    Type
REMARK                         _______ _______ _______ _____ _____    ______ ____
ROOT
ATOM      1  C   UNL     1       6.044   4.553  18.274  0.00  0.00    +0.000 C 
ATOM      2  S   UNL     1       6.971   5.585  19.209  0.00  0.00    +0.000 S 
ENDROOT
BRANCH   1   3
ATOM      3  N   UNL     1       5.465   3.496  18.937  0.00  0.00    +0.000 N 
ATOM      4  C   UNL     1       4.175   3.068  18.746  0.00  0.00    +0.000 A 
ATOM      5  N   UNL     1       3.303   3.476  17.850  0.00  0.00    +0.000 NA
ATOM      6  N   UNL     1       2.157   2.753  18.069  0.00  0.00    +0.000 NA
ATOM      7  N   UNL     1       2.314   1.911  19.077  0.00  0.00    +0.000 NA
ATOM      8  N   UNL     1       3.571   2.098  19.500  0.00  0.00    +0.000 N 
ATOM      9  H   UNL     1       6.035   3.088  19.671  0.00  0.00    +0.000 HD
ATOM     10  H   UNL     1       3.922   1.560  20.282  0.00  0.00    +0.000 HD
ENDBRANCH   1   3
BRANCH   1  13
ATOM     11  C   UNL     1       6.660   4.606  15.846  0.00  0.00    +0.000 C 
ATOM     12  O   UNL     1       7.879   4.468  15.938  0.00  0.00    +0.000 OA
ATOM     13  N   UNL     1       5.778   4.664  16.920  0.00  0.00    +0.000 N 
ATOM     14  H   UNL     1       4.824   4.912  16.691  0.00  0.00    +0.000 HD
BRANCH  11  15
ATOM     15  C   UNL     1       6.012   4.776  14.484  0.00  0.00    +0.000 C 
BRANCH  15  16
ATOM     16  C   UNL     1       6.156   3.579  13.545  0.00  0.00    +0.000 C 
BRANCH  16  17
ATOM     17  C   UNL     1       5.697   3.884  12.118  0.00  0.00    +0.000 C 
BRANCH  17  19
ATOM     18  C   UNL     1       3.641   3.273  10.803  0.00  0.00    +0.000 C 
ATOM     19  C   UNL     1       4.857   2.742  11.547  0.00  0.00    +0.000 C 
ENDBRANCH  17  19
ENDBRANCH  16  17
ENDBRANCH  15  16
ENDBRANCH  11  15
ENDBRANCH   1  13
TORSDOF 6
ENDMDL
MODEL 6
REMARK VINA RESULT:      -6.0      3.623      5.822
REMARK  Name = 
REMARK  7 active torsions:
REMARK  status: ('A' for Active; 'I' for Inactive)
REMARK    1  A    between atoms: C_1  and  C_2
REMARK    2  A    between atoms: C_2  and  C_3
REMARK    3  A    between atoms: C_3  and  C_4
REMARK    4  A    between atoms: C_4  and  C_5
REMARK    5  A    between atoms: C_5  and  C_6
REMARK    6  A    between atoms: N_8  and  C_9
REMARK    7  A    between atoms: C_9  and  N_11
REMARK                            x       y       z     vdW  Elec       q    Type
REMARK                         _______ _______ _______ _____ _____    ______ ____
ROOT
ATOM      1  C   UNL     1       6.247   6.058  16.479  0.00  0.00    +0.000 C 
ATOM      2  S   UNL     1       7.243   6.972  17.463  0.00  0.00    +0.000 S 
ENDROOT
BRANCH   1   3
ATOM      3  N   UNL     1       5.027   5.711  17.013  0.00  0.00    +0.000 N 
ATOM      4  C   UNL     1       4.845   4.778  18.003  0.00  0.00    +0.000 A 
ATOM      5  N   UNL     1       5.759   4.140  18.701  0.00  0.00    +0.000 NA
ATOM      6  N   UNL     1       5.080   3.311  19.560  0.00  0.00    +0.000 NA
ATOM      7  N   UNL     1       3.773   3.434  19.401  0.00  0.00    +0.000 NA
ATOM      8  N   UNL     1       3.619   4.351  18.437  0.00  0.00    +0.000 N 
ATOM      9  H   UNL     1       4.226   6.133  16.555  0.00  0.00    +0.000 HD
ATOM     10  H   UNL     1       2.689   4.609  18.134  0.00  0.00    +0.000 HD
ENDBRANCH   1   3
BRANCH   1  13
ATOM     11  C   UNL     1       6.408   4.363  14.641  0.00  0.00    +0.000 C 
ATOM     12  O   UNL     1       6.089   3.352  15.263  0.00  0.00    +0.000 OA
ATOM     13  N   UNL     1       6.504   5.640  15.185  0.00  0.00    +0.000 N 
ATOM     14  H   UNL     1       6.905   6.345  14.580  0.00  0.00    +0.000 HD
BRANCH  11  15
ATOM     15  C   UNL     1       6.779   4.271  13.173  0.00  0.00    +0.000 C 
BRANCH  15  16
ATOM     16  C   UNL     1       5.962   3.268  12.360  0.00  0.00    +0.000 C 
BRANCH  16  17
ATOM     17  C   UNL     1       4.541   3.756  12.068  0.00  0.00    +0.000 C 
BRANCH  17  19
ATOM     18  C   UNL     1       3.155   3.917   9.975  0.00  0.00    +0.000 C 
ATOM     19  C   UNL     1       3.916   2.985  10.905  0.00  0.00    +0.000 C 
ENDBRANCH  17  19
ENDBRANCH  16  17
ENDBRANCH  15  16
ENDBRANCH  11  15
ENDBRANCH   1  13
TORSDOF 6
ENDMDL
MODEL 7
REMARK VINA RESULT:      -6.0      1.588      1.877
REMARK  Name = 
REMARK  7 active torsions:
REMARK  status: ('A' for Active; 'I' for Inactive)
REMARK    1  A    between atoms: C_1  and  C_2
REMARK    2  A    between atoms: C_2  and  C_3
REMARK    3  A    between atoms: C_3  and  C_4
REMARK    4  A    between atoms: C_4  and  C_5
REMARK    5  A    between atoms: C_5  and  C_6
REMARK    6  A    between atoms: N_8  and  C_9
REMARK    7  A    between atoms: C_9  and  N_11
REMARK                            x       y       z     vdW  Elec       q    Type
REMARK                         _______ _______ _______ _____ _____    ______ ____
ROOT
ATOM      1  C   UNL     1       3.735   5.687  17.633  0.00  0.00    +0.000 C 
ATOM      2  S   UNL     1       3.157   7.089  18.338  0.00  0.00    +0.000 S 
ENDROOT
BRANCH   1   3
ATOM      3  N   UNL     1       4.414   5.844  16.447  0.00  0.00    +0.000 N 
ATOM      4  C   UNL     1       5.706   5.437  16.228  0.00  0.00    +0.000 A 
ATOM      5  N   UNL     1       6.488   4.738  17.021  0.00  0.00    +0.000 NA
ATOM      6  N   UNL     1       7.682   4.595  16.359  0.00  0.00    +0.000 NA
ATOM      7  N   UNL     1       7.642   5.190  15.179  0.00  0.00    +0.000 NA
ATOM      8  N   UNL     1       6.412   5.712  15.087  0.00  0.00    +0.000 N 
ATOM      9  H   UNL     1       3.920   6.380  15.741  0.00  0.00    +0.000 HD
ATOM     10  H   UNL     1       6.147   6.230  14.260  0.00  0.00    +0.000 HD
ENDBRANCH   1   3
BRANCH   1  13
ATOM     11  C   UNL     1       2.936   3.312  17.599  0.00  0.00    +0.000 C 
ATOM     12  O   UNL     1       2.255   3.338  16.575  0.00  0.00    +0.000 OA
ATOM     13  N   UNL     1       3.629   4.397  18.127  0.00  0.00    +0.000 N 
ATOM     14  H   UNL     1       4.035   4.255  19.042  0.00  0.00    +0.000 HD
BRANCH  11  15
ATOM     15  C   UNL     1       3.035   2.039  18.418  0.00  0.00    +0.000 C 
BRANCH  15  16
ATOM     16  C   UNL     1       1.874   1.800  19.384  0.00  0.00    +0.000 C 
BRANCH  16  17
ATOM     17  C   UNL     1       0.913   2.988  19.465  0.00  0.00    +0.000 C 
BRANCH  17  19
ATOM     18  C   UNL     1       2.025   3.052  21.720  0.00  0.00    +0.000 C 
ATOM     19  C   UNL     1       1.139   3.803  20.738  0.00  0.00    +0.000 C 
ENDBRANCH  17  19
ENDBRANCH  16  17
ENDBRANCH  15  16
ENDBRANCH  11  15
ENDBRANCH   1  13
TORSDOF 6
ENDMDL
MODEL 8
REMARK VINA RESULT:      -6.0      2.311      2.798
REMARK  Name = 
REMARK  7 active torsions:
REMARK  status: ('A' for Active; 'I' for Inactive)
REMARK    1  A    between atoms: C_1  and  C_2
REMARK    2  A    between atoms: C_2  and  C_3
REMARK    3  A    between atoms: C_3  and  C_4
REMARK    4  A    between atoms: C_4  and  C_5
REMARK    5  A    between atoms: C_5  and  C_6
REMARK    6  A    between atoms: N_8  and  C_9
REMARK    7  A    between atoms: C_9  and  N_11
REMARK                            x       y       z     vdW  Elec       q    Type
REMARK                         _______ _______ _______ _____ _____    ______ ____
ROOT
ATOM      1  C   UNL     1       5.424   4.474  16.748  0.00  0.00    +0.000 C 
ATOM      2  S   UNL     1       6.098   4.038  15.281  0.00  0.00    +0.000 S 
ENDROOT
BRANCH   1   3
ATOM      3  N   UNL     1       6.306   4.901  17.714  0.00  0.00    +0.000 N 
ATOM      4  C   UNL     1       6.918   6.129  17.723  0.00  0.00    +0.000 A 
ATOM      5  N   UNL     1       6.711   7.151  16.921  0.00  0.00    +0.000 NA
ATOM      6  N   UNL     1       7.570   8.142  17.328  0.00  0.00    +0.000 NA
ATOM      7  N   UNL     1       8.292   7.746  18.363  0.00  0.00    +0.000 NA
ATOM      8  N   UNL     1       7.887   6.494  18.618  0.00  0.00    +0.000 N 
ATOM      9  H   UNL     1       6.560   4.198  18.400  0.00  0.00    +0.000 HD
ATOM     10  H   UNL     1       8.312   5.975  19.375  0.00  0.00    +0.000 HD
ENDBRANCH   1   3
BRANCH   1  13
ATOM     11  C   UNL     1       3.447   5.094  18.158  0.00  0.00    +0.000 C 
ATOM     12  O   UNL     1       4.015   5.738  19.038  0.00  0.00    +0.000 OA
ATOM     13  N   UNL     1       4.080   4.479  17.082  0.00  0.00    +0.000 N 
ATOM     14  H   UNL     1       3.497   3.876  16.517  0.00  0.00    +0.000 HD
BRANCH  11  15
ATOM     15  C   UNL     1       1.946   4.879  18.216  0.00  0.00    +0.000 C 
BRANCH  15  16
ATOM     16  C   UNL     1       1.482   3.460  17.890  0.00  0.00    +0.000 C 
BRANCH  16  17
ATOM     17  C   UNL     1       1.401   2.561  19.125  0.00  0.00    +0.000 C 
BRANCH  17  19
ATOM     18  C   UNL     1       1.752   2.914  21.592  0.00  0.00    +0.000 C 
ATOM     19  C   UNL     1       0.972   3.351  20.361  0.00  0.00    +0.000 C 
ENDBRANCH  17  19
ENDBRANCH  16  17
ENDBRANCH  15  16
ENDBRANCH  11  15
ENDBRANCH   1  13
TORSDOF 6
ENDMDL
MODEL 9
REMARK VINA RESULT:      -6.0      2.533      3.171
REMARK  Name = 
REMARK  7 active torsions:
REMARK  status: ('A' for Active; 'I' for Inactive)
REMARK    1  A    between atoms: C_1  and  C_2
REMARK    2  A    between atoms: C_2  and  C_3
REMARK    3  A    between atoms: C_3  and  C_4
REMARK    4  A    between atoms: C_4  and  C_5
REMARK    5  A    between atoms: C_5  and  C_6
REMARK    6  A    between atoms: N_8  and  C_9
REMARK    7  A    between atoms: C_9  and  N_11
REMARK                            x       y       z     vdW  Elec       q    Type
REMARK                         _______ _______ _______ _____ _____    ______ ____
ROOT
ATOM      1  C   UNL     1       5.501   4.236  16.163  0.00  0.00    +0.000 C 
ATOM      2  S   UNL     1       5.550   4.625  14.537  0.00  0.00    +0.000 S 
ENDROOT
BRANCH   1   3
ATOM      3  N   UNL     1       6.718   4.047  16.775  0.00  0.00    +0.000 N 
ATOM      4  C   UNL     1       7.076   4.589  17.984  0.00  0.00    +0.000 A 
ATOM      5  N   UNL     1       6.329   5.266  18.829  0.00  0.00    +0.000 NA
ATOM      6  N   UNL     1       7.142   5.596  19.885  0.00  0.00    +0.000 NA
ATOM      7  N   UNL     1       8.367   5.132  19.702  0.00  0.00    +0.000 NA
ATOM      8  N   UNL     1       8.331   4.498  18.522  0.00  0.00    +0.000 N 
ATOM      9  H   UNL     1       7.400   3.540  16.221  0.00  0.00    +0.000 HD
ATOM     10  H   UNL     1       9.170   4.061  18.163  0.00  0.00    +0.000 HD
ENDBRANCH   1   3
BRANCH   1  13
ATOM     11  C   UNL     1       3.547   5.109  17.466  0.00  0.00    +0.000 C 
ATOM     12  O   UNL     1       3.710   6.317  17.300  0.00  0.00    +0.000 OA
ATOM     13  N   UNL     1       4.375   4.112  16.959  0.00  0.00    +0.000 N 
ATOM     14  H   UNL     1       4.186   3.175  17.290  0.00  0.00    +0.000 HD
BRANCH  11  15
ATOM     15  C   UNL     1       2.396   4.605  18.317  0.00  0.00    +0.000 C 
BRANCH  15  16
ATOM     16  C   UNL     1       1.858   3.228  17.926  0.00  0.00    +0.000 C 
BRANCH  16  17
ATOM     17  C   UNL     1       0.996   2.594  19.020  0.00  0.00    +0.000 C 
BRANCH  17  19
ATOM     18  C   UNL     1       1.549   2.769  21.468  0.00  0.00    +0.000 C 
ATOM     19  C   UNL     1       0.940   3.477  20.267  0.00  0.00    +0.000 C 
ENDBRANCH  17  19
ENDBRANCH  16  17
ENDBRANCH  15  16
ENDBRANCH  11  15
ENDBRANCH   1  13
TORSDOF 6
ENDMDL
