MODEL 1
REMARK VINA RESULT:      -8.1      0.000      0.000
REMARK  Name = 
REMARK  6 active torsions:
REMARK  status: ('A' for Active; 'I' for Inactive)
REMARK    1  A    between atoms: C_1  and  C_2
REMARK    2  A    between atoms: C_4  and  C_5
REMARK    3  A    between atoms: C_6  and  C_7
REMARK    4  A    between atoms: N_9  and  C_10
REMARK    5  A    between atoms: C_10  and  C_11
REMARK    6  A    between atoms: C_14  and  C_15
REMARK                            x       y       z     vdW  Elec       q    Type
REMARK                         _______ _______ _______ _____ _____    ______ ____
ROOT
ATOM      1  C   UNL     1       1.611   7.404  19.277  0.00  0.00    +0.000 C 
ATOM      2  C   UNL     1       1.009   8.166  20.480  0.00  0.00    +0.000 C 
ATOM      3  C   UNL     1       1.247   9.676  20.545  0.00  0.00    +0.000 C 
ATOM      4  C   UNL     1       1.205  10.387  19.192  0.00  0.00    +0.000 C 
ATOM      5  C   UNL     1       2.189   9.705  18.244  0.00  0.00    +0.000 C 
ATOM      6  C   UNL     1       1.848   8.239  18.006  0.00  0.00    +0.000 C 
ENDROOT
BRANCH   4   7
ATOM      7  C   UNL     1      -0.185  10.469  18.621  0.00  0.00    +0.000 A 
ATOM      8  N   UNL     1      -1.246  11.028  19.170  0.00  0.00    +0.000 NA
ATOM      9  C   UNL     1      -2.254  10.919  18.244  0.00  0.00    +0.000 A 
ATOM     10  C   UNL     1      -3.578  11.376  18.297  0.00  0.00    +0.000 A 
ATOM     11  C   UNL     1      -4.409  11.163  17.189  0.00  0.00    +0.000 A 
ATOM     12  C   UNL     1      -3.933  10.497  16.057  0.00  0.00    +0.000 A 
ATOM     13  C   UNL     1      -2.618  10.017  15.994  0.00  0.00    +0.000 A 
ATOM     14  C   UNL     1      -1.810  10.253  17.109  0.00  0.00    +0.000 A 
ATOM     15  N   UNL     1      -0.502   9.950  17.386  0.00  0.00    +0.000 N 
ATOM     16  H   UNL     1       0.131   9.459  16.775  0.00  0.00    +0.000 HD
ENDBRANCH   4   7
BRANCH   1  17
ATOM     17  C   UNL     1       2.866   6.602  19.668  0.00  0.00    +0.000 C 
BRANCH  17  20
ATOM     18  C   UNL     1       4.902   5.683  18.562  0.00  0.00    +0.000 C 
ATOM     19  O   UNL     1       5.375   5.318  19.636  0.00  0.00    +0.000 OA
ATOM     20  N   UNL     1       3.680   6.319  18.500  0.00  0.00    +0.000 N 
ATOM     21  H   UNL     1       3.407   6.715  17.609  0.00  0.00    +0.000 HD
BRANCH  18  27
ATOM     22  C   UNL     1       6.504   4.016  13.802  0.00  0.00    +0.000 C 
ATOM     23  C   UNL     1       6.325   4.721  15.099  0.00  0.00    +0.000 A 
ATOM     24  N   UNL     1       7.124   5.666  15.544  0.00  0.00    +0.000 NA
ATOM     25  C   UNL     1       6.702   6.101  16.793  0.00  0.00    +0.000 A 
ATOM     26  C   UNL     1       7.498   7.162  17.469  0.00  0.00    +0.000 C 
ATOM     27  C   UNL     1       5.566   5.474  17.283  0.00  0.00    +0.000 A 
ATOM     28  S   UNL     1       5.017   4.322  16.129  0.00  0.00    +0.000 S 
ENDBRANCH  18  27
ENDBRANCH  17  20
ENDBRANCH   1  17
TORSDOF 4
ENDMDL
MODEL 2
REMARK VINA RESULT:      -8.1      3.287      8.825
REMARK  Name = 
REMARK  6 active torsions:
REMARK  status: ('A' for Active; 'I' for Inactive)
REMARK    1  A    between atoms: C_1  and  C_2
REMARK    2  A    between atoms: C_4  and  C_5
REMARK    3  A    between atoms: C_6  and  C_7
REMARK    4  A    between atoms: N_9  and  C_10
REMARK    5  A    between atoms: C_10  and  C_11
REMARK    6  A    between atoms: C_14  and  C_15
REMARK                            x       y       z     vdW  Elec       q    Type
REMARK                         _______ _______ _______ _____ _____    ______ ____
ROOT
ATOM      1  C   UNL     1       4.217   5.118  18.402  0.00  0.00    +0.000 C 
ATOM      2  C   UNL     1       4.339   6.422  17.581  0.00  0.00    +0.000 C 
ATOM      3  C   UNL     1       5.742   7.001  17.387  0.00  0.00    +0.000 C 
ATOM      4  C   UNL     1       6.840   5.957  17.184  0.00  0.00    +0.000 C 
ATOM      5  C   UNL     1       6.800   4.964  18.343  0.00  0.00    +0.000 C 
ATOM      6  C   UNL     1       5.470   4.225  18.431  0.00  0.00    +0.000 C 
ENDROOT
BRANCH   4   7
ATOM      7  C   UNL     1       6.760   5.282  15.841  0.00  0.00    +0.000 A 
ATOM      8  N   UNL     1       5.886   4.376  15.450  0.00  0.00    +0.000 NA
ATOM      9  C   UNL     1       6.169   4.120  14.131  0.00  0.00    +0.000 A 
ATOM     10  C   UNL     1       5.528   3.266  13.222  0.00  0.00    +0.000 A 
ATOM     11  C   UNL     1       6.000   3.210  11.904  0.00  0.00    +0.000 A 
ATOM     12  C   UNL     1       7.095   3.980  11.503  0.00  0.00    +0.000 A 
ATOM     13  C   UNL     1       7.759   4.824  12.403  0.00  0.00    +0.000 A 
ATOM     14  C   UNL     1       7.260   4.867  13.708  0.00  0.00    +0.000 A 
ATOM     15  N   UNL     1       7.637   5.573  14.821  0.00  0.00    +0.000 N 
ATOM     16  H   UNL     1       8.407   6.222  14.874  0.00  0.00    +0.000 HD
ENDBRANCH   4   7
BRANCH   1  17
ATOM     17  C   UNL     1       3.675   5.375  19.820  0.00  0.00    +0.000 C 
BRANCH  17  20
ATOM     18  C   UNL     1       1.815   6.924  20.416  0.00  0.00    +0.000 C 
ATOM     19  O   UNL     1       1.115   5.999  20.821  0.00  0.00    +0.000 OA
ATOM     20  N   UNL     1       3.077   6.695  19.910  0.00  0.00    +0.000 N 
ATOM     21  H   UNL     1       3.550   7.474  19.468  0.00  0.00    +0.000 HD
BRANCH  18  27
ATOM     22  C   UNL     1       0.015  11.740  21.667  0.00  0.00    +0.000 C 
ATOM     23  C   UNL     1       0.561  10.536  20.987  0.00  0.00    +0.000 A 
ATOM     24  N   UNL     1       0.825  10.467  19.701  0.00  0.00    +0.000 NA
ATOM     25  C   UNL     1       1.296   9.203  19.374  0.00  0.00    +0.000 A 
ATOM     26  C   UNL     1       1.631   8.928  17.951  0.00  0.00    +0.000 C 
ATOM     27  C   UNL     1       1.391   8.317  20.438  0.00  0.00    +0.000 A 
ATOM     28  S   UNL     1       0.887   9.111  21.879  0.00  0.00    +0.000 S 
ENDBRANCH  18  27
ENDBRANCH  17  20
ENDBRANCH   1  17
TORSDOF 4
ENDMDL
MODEL 3
REMARK VINA RESULT:      -8.0      5.959      8.443
REMARK  Name = 
REMARK  6 active torsions:
REMARK  status: ('A' for Active; 'I' for Inactive)
REMARK    1  A    between atoms: C_1  and  C_2
REMARK    2  A    between atoms: C_4  and  C_5
REMARK    3  A    between atoms: C_6  and  C_7
REMARK    4  A    between atoms: N_9  and  C_10
REMARK    5  A    between atoms: C_10  and  C_11
REMARK    6  A    between atoms: C_14  and  C_15
REMARK                            x       y       z     vdW  Elec       q    Type
REMARK                         _______ _______ _______ _____ _____    ______ ____
ROOT
ATOM      1  C   UNL     1       7.042   7.368  17.984  0.00  0.00    +0.000 C 
ATOM      2  C   UNL     1       6.115   7.128  16.770  0.00  0.00    +0.000 C 
ATOM      3  C   UNL     1       6.195   5.764  16.084  0.00  0.00    +0.000 C 
ATOM      4  C   UNL     1       6.398   4.583  17.033  0.00  0.00    +0.000 C 
ATOM      5  C   UNL     1       7.630   4.848  17.896  0.00  0.00    +0.000 C 
ATOM      6  C   UNL     1       7.487   6.106  18.745  0.00  0.00    +0.000 C 
ENDROOT
BRANCH   4   7
ATOM      7  C   UNL     1       5.173   4.278  17.854  0.00  0.00    +0.000 A 
ATOM      8  N   UNL     1       3.935   4.667  17.621  0.00  0.00    +0.000 NA
ATOM      9  C   UNL     1       3.164   4.081  18.595  0.00  0.00    +0.000 A 
ATOM     10  C   UNL     1       1.777   4.131  18.797  0.00  0.00    +0.000 A 
ATOM     11  C   UNL     1       1.226   3.406  19.862  0.00  0.00    +0.000 A 
ATOM     12  C   UNL     1       2.041   2.658  20.715  0.00  0.00    +0.000 A 
ATOM     13  C   UNL     1       3.430   2.612  20.540  0.00  0.00    +0.000 A 
ATOM     14  C   UNL     1       3.951   3.335  19.463  0.00  0.00    +0.000 A 
ATOM     15  N   UNL     1       5.227   3.502  18.990  0.00  0.00    +0.000 N 
ATOM     16  H   UNL     1       6.060   3.098  19.387  0.00  0.00    +0.000 HD
ENDBRANCH   4   7
BRANCH   1  17
ATOM     17  C   UNL     1       8.242   8.265  17.629  0.00  0.00    +0.000 C 
BRANCH  17  20
ATOM     18  C   UNL     1       9.206  10.445  18.356  0.00  0.00    +0.000 C 
ATOM     19  O   UNL     1      10.024  10.440  17.440  0.00  0.00    +0.000 OA
ATOM     20  N   UNL     1       8.304   9.414  18.514  0.00  0.00    +0.000 N 
ATOM     21  H   UNL     1       7.749   9.406  19.361  0.00  0.00    +0.000 HD
BRANCH  18  27
ATOM     22  C   UNL     1       8.956  13.431  22.718  0.00  0.00    +0.000 C 
ATOM     23  C   UNL     1       8.982  12.911  21.325  0.00  0.00    +0.000 A 
ATOM     24  N   UNL     1       8.772  13.647  20.256  0.00  0.00    +0.000 NA
ATOM     25  C   UNL     1       8.837  12.862  19.113  0.00  0.00    +0.000 A 
ATOM     26  C   UNL     1       8.605  13.520  17.799  0.00  0.00    +0.000 C 
ATOM     27  C   UNL     1       9.107  11.519  19.335  0.00  0.00    +0.000 A 
ATOM     28  S   UNL     1       9.295  11.255  21.025  0.00  0.00    +0.000 S 
ENDBRANCH  18  27
ENDBRANCH  17  20
ENDBRANCH   1  17
TORSDOF 4
ENDMDL
MODEL 4
REMARK VINA RESULT:      -7.9      3.273      8.841
REMARK  Name = 
REMARK  6 active torsions:
REMARK  status: ('A' for Active; 'I' for Inactive)
REMARK    1  A    between atoms: C_1  and  C_2
REMARK    2  A    between atoms: C_4  and  C_5
REMARK    3  A    between atoms: C_6  and  C_7
REMARK    4  A    between atoms: N_9  and  C_10
REMARK    5  A    between atoms: C_10  and  C_11
REMARK    6  A    between atoms: C_14  and  C_15
REMARK                            x       y       z     vdW  Elec       q    Type
REMARK                         _______ _______ _______ _____ _____    ______ ____
ROOT
ATOM      1  C   UNL     1       4.188   5.292  18.239  0.00  0.00    +0.000 C 
ATOM      2  C   UNL     1       4.513   6.639  17.552  0.00  0.00    +0.000 C 
ATOM      3  C   UNL     1       5.987   7.032  17.441  0.00  0.00    +0.000 C 
ATOM      4  C   UNL     1       6.938   5.870  17.154  0.00  0.00    +0.000 C 
ATOM      5  C   UNL     1       6.726   4.786  18.209  0.00  0.00    +0.000 C 
ATOM      6  C   UNL     1       5.306   4.234  18.200  0.00  0.00    +0.000 C 
ENDROOT
BRANCH   4   7
ATOM      7  C   UNL     1       6.807   5.343  15.750  0.00  0.00    +0.000 A 
ATOM      8  N   UNL     1       7.643   5.521  14.746  0.00  0.00    +0.000 NA
ATOM      9  C   UNL     1       7.138   4.791  13.698  0.00  0.00    +0.000 A 
ATOM     10  C   UNL     1       7.647   4.600  12.406  0.00  0.00    +0.000 A 
ATOM     11  C   UNL     1       6.945   3.769  11.522  0.00  0.00    +0.000 A 
ATOM     12  C   UNL     1       5.755   3.152  11.914  0.00  0.00    +0.000 A 
ATOM     13  C   UNL     1       5.222   3.347  13.195  0.00  0.00    +0.000 A 
ATOM     14  C   UNL     1       5.948   4.171  14.058  0.00  0.00    +0.000 A 
ATOM     15  N   UNL     1       5.744   4.563  15.356  0.00  0.00    +0.000 N 
ATOM     16  H   UNL     1       4.962   4.298  15.935  0.00  0.00    +0.000 HD
ENDBRANCH   4   7
BRANCH   1  17
ATOM     17  C   UNL     1       3.643   5.486  19.666  0.00  0.00    +0.000 C 
BRANCH  17  20
ATOM     18  C   UNL     1       1.796   6.985  20.408  0.00  0.00    +0.000 C 
ATOM     19  O   UNL     1       1.155   6.042  20.866  0.00  0.00    +0.000 OA
ATOM     20  N   UNL     1       3.019   6.790  19.805  0.00  0.00    +0.000 N 
ATOM     21  H   UNL     1       3.435   7.581  19.328  0.00  0.00    +0.000 HD
BRANCH  18  27
ATOM     22  C   UNL     1      -0.114  11.725  21.784  0.00  0.00    +0.000 C 
ATOM     23  C   UNL     1       0.458  10.551  21.072  0.00  0.00    +0.000 A 
ATOM     24  N   UNL     1       0.716  10.519  19.783  0.00  0.00    +0.000 NA
ATOM     25  C   UNL     1       1.216   9.275  19.425  0.00  0.00    +0.000 A 
ATOM     26  C   UNL     1       1.550   9.042  17.993  0.00  0.00    +0.000 C 
ATOM     27  C   UNL     1       1.338   8.366  20.466  0.00  0.00    +0.000 A 
ATOM     28  S   UNL     1       0.823   9.113  21.928  0.00  0.00    +0.000 S 
ENDBRANCH  18  27
ENDBRANCH  17  20
ENDBRANCH   1  17
TORSDOF 4
ENDMDL
MODEL 5
REMARK VINA RESULT:      -7.8      3.156      8.797
REMARK  Name = 
REMARK  6 active torsions:
REMARK  status: ('A' for Active; 'I' for Inactive)
REMARK    1  A    between atoms: C_1  and  C_2
REMARK    2  A    between atoms: C_4  and  C_5
REMARK    3  A    between atoms: C_6  and  C_7
REMARK    4  A    between atoms: N_9  and  C_10
REMARK    5  A    between atoms: C_10  and  C_11
REMARK    6  A    between atoms: C_14  and  C_15
REMARK                            x       y       z     vdW  Elec       q    Type
REMARK                         _______ _______ _______ _____ _____    ______ ____
ROOT
ATOM      1  C   UNL     1       3.810   5.418  18.329  0.00  0.00    +0.000 C 
ATOM      2  C   UNL     1       4.115   6.704  17.526  0.00  0.00    +0.000 C 
ATOM      3  C   UNL     1       5.574   7.159  17.457  0.00  0.00    +0.000 C 
ATOM      4  C   UNL     1       6.592   6.024  17.345  0.00  0.00    +0.000 C 
ATOM      5  C   UNL     1       6.366   5.042  18.494  0.00  0.00    +0.000 C 
ATOM      6  C   UNL     1       4.974   4.421  18.463  0.00  0.00    +0.000 C 
ENDROOT
BRANCH   4   7
ATOM      7  C   UNL     1       6.571   5.352  15.998  0.00  0.00    +0.000 A 
ATOM      8  N   UNL     1       5.683   4.488  15.547  0.00  0.00    +0.000 NA
ATOM      9  C   UNL     1       6.042   4.219  14.249  0.00  0.00    +0.000 A 
ATOM     10  C   UNL     1       5.424   3.397  13.296  0.00  0.00    +0.000 A 
ATOM     11  C   UNL     1       5.981   3.318  12.013  0.00  0.00    +0.000 A 
ATOM     12  C   UNL     1       7.136   4.034  11.690  0.00  0.00    +0.000 A 
ATOM     13  C   UNL     1       7.777   4.846  12.635  0.00  0.00    +0.000 A 
ATOM     14  C   UNL     1       7.194   4.913  13.903  0.00  0.00    +0.000 A 
ATOM     15  N   UNL     1       7.528   5.601  15.041  0.00  0.00    +0.000 N 
ATOM     16  H   UNL     1       8.323   6.212  15.148  0.00  0.00    +0.000 HD
ENDBRANCH   4   7
BRANCH   1  17
ATOM     17  C   UNL     1       3.171   5.727  19.695  0.00  0.00    +0.000 C 
BRANCH  17  20
ATOM     18  C   UNL     1       1.538   7.455  20.443  0.00  0.00    +0.000 C 
ATOM     19  O   UNL     1       0.905   6.635  21.103  0.00  0.00    +0.000 OA
ATOM     20  N   UNL     1       2.656   7.085  19.727  0.00  0.00    +0.000 N 
ATOM     21  H   UNL     1       3.055   7.771  19.098  0.00  0.00    +0.000 HD
BRANCH  18  27
ATOM     22  C   UNL     1       0.576  12.450  18.985  0.00  0.00    +0.000 C 
ATOM     23  C   UNL     1       0.740  11.168  19.719  0.00  0.00    +0.000 A 
ATOM     24  N   UNL     1       0.571  11.031  21.016  0.00  0.00    +0.000 NA
ATOM     25  C   UNL     1       0.825   9.720  21.397  0.00  0.00    +0.000 A 
ATOM     26  C   UNL     1       0.703   9.375  22.839  0.00  0.00    +0.000 C 
ATOM     27  C   UNL     1       1.182   8.865  20.364  0.00  0.00    +0.000 A 
ATOM     28  S   UNL     1       1.181   9.740  18.883  0.00  0.00    +0.000 S 
ENDBRANCH  18  27
ENDBRANCH  17  20
ENDBRANCH   1  17
TORSDOF 4
ENDMDL
MODEL 6
REMARK VINA RESULT:      -7.8      3.153      8.965
REMARK  Name = 
REMARK  6 active torsions:
REMARK  status: ('A' for Active; 'I' for Inactive)
REMARK    1  A    between atoms: C_1  and  C_2
REMARK    2  A    between atoms: C_4  and  C_5
REMARK    3  A    between atoms: C_6  and  C_7
REMARK    4  A    between atoms: N_9  and  C_10
REMARK    5  A    between atoms: C_10  and  C_11
REMARK    6  A    between atoms: C_14  and  C_15
REMARK                            x       y       z     vdW  Elec       q    Type
REMARK                         _______ _______ _______ _____ _____    ______ ____
ROOT
ATOM      1  C   UNL     1       3.590   5.861  17.876  0.00  0.00    +0.000 C 
ATOM      2  C   UNL     1       4.730   6.890  17.700  0.00  0.00    +0.000 C 
ATOM      3  C   UNL     1       6.152   6.424  18.018  0.00  0.00    +0.000 C 
ATOM      4  C   UNL     1       6.458   4.984  17.605  0.00  0.00    +0.000 C 
ATOM      5  C   UNL     1       5.414   4.058  18.225  0.00  0.00    +0.000 C 
ATOM      6  C   UNL     1       3.999   4.382  17.759  0.00  0.00    +0.000 C 
ENDROOT
BRANCH   4   7
ATOM      7  C   UNL     1       6.566   4.816  16.113  0.00  0.00    +0.000 A 
ATOM      8  N   UNL     1       7.384   5.445  15.292  0.00  0.00    +0.000 NA
ATOM      9  C   UNL     1       7.164   4.905  14.049  0.00  0.00    +0.000 A 
ATOM     10  C   UNL     1       7.788   5.181  12.824  0.00  0.00    +0.000 A 
ATOM     11  C   UNL     1       7.397   4.456  11.691  0.00  0.00    +0.000 A 
ATOM     12  C   UNL     1       6.397   3.484  11.775  0.00  0.00    +0.000 A 
ATOM     13  C   UNL     1       5.750   3.208  12.987  0.00  0.00    +0.000 A 
ATOM     14  C   UNL     1       6.168   3.939  14.102  0.00  0.00    +0.000 A 
ATOM     15  N   UNL     1       5.782   3.924  15.418  0.00  0.00    +0.000 N 
ATOM     16  H   UNL     1       5.067   3.335  15.815  0.00  0.00    +0.000 HD
ENDBRANCH   4   7
BRANCH   1  17
ATOM     17  C   UNL     1       2.766   6.121  19.151  0.00  0.00    +0.000 C 
BRANCH  17  20
ATOM     18  C   UNL     1       1.503   7.996  20.198  0.00  0.00    +0.000 C 
ATOM     19  O   UNL     1       1.187   7.304  21.162  0.00  0.00    +0.000 OA
ATOM     20  N   UNL     1       2.272   7.486  19.174  0.00  0.00    +0.000 N 
ATOM     21  H   UNL     1       2.386   8.059  18.347  0.00  0.00    +0.000 HD
BRANCH  18  27
ATOM     22  C   UNL     1       0.628  12.958  18.578  0.00  0.00    +0.000 C 
ATOM     23  C   UNL     1       0.705  11.679  19.333  0.00  0.00    +0.000 A 
ATOM     24  N   UNL     1       0.308  11.529  20.578  0.00  0.00    +0.000 NA
ATOM     25  C   UNL     1       0.540  10.227  21.001  0.00  0.00    +0.000 A 
ATOM     26  C   UNL     1       0.170   9.870  22.398  0.00  0.00    +0.000 C 
ATOM     27  C   UNL     1       1.113   9.392  20.053  0.00  0.00    +0.000 A 
ATOM     28  S   UNL     1       1.348  10.274  18.594  0.00  0.00    +0.000 S 
ENDBRANCH  18  27
ENDBRANCH  17  20
ENDBRANCH   1  17
TORSDOF 4
ENDMDL
MODEL 7
REMARK VINA RESULT:      -7.7      5.800      8.374
REMARK  Name = 
REMARK  6 active torsions:
REMARK  status: ('A' for Active; 'I' for Inactive)
REMARK    1  A    between atoms: C_1  and  C_2
REMARK    2  A    between atoms: C_4  and  C_5
REMARK    3  A    between atoms: C_6  and  C_7
REMARK    4  A    between atoms: N_9  and  C_10
REMARK    5  A    between atoms: C_10  and  C_11
REMARK    6  A    between atoms: C_14  and  C_15
REMARK                            x       y       z     vdW  Elec       q    Type
REMARK                         _______ _______ _______ _____ _____    ______ ____
ROOT
ATOM      1  C   UNL     1       7.206   7.454  18.164  0.00  0.00    +0.000 C 
ATOM      2  C   UNL     1       6.187   7.266  17.017  0.00  0.00    +0.000 C 
ATOM      3  C   UNL     1       6.173   5.912  16.305  0.00  0.00    +0.000 C 
ATOM      4  C   UNL     1       6.406   4.709  17.219  0.00  0.00    +0.000 C 
ATOM      5  C   UNL     1       7.705   4.920  17.994  0.00  0.00    +0.000 C 
ATOM      6  C   UNL     1       7.663   6.166  18.871  0.00  0.00    +0.000 C 
ENDROOT
BRANCH   4   7
ATOM      7  C   UNL     1       5.234   4.427  18.121  0.00  0.00    +0.000 A 
ATOM      8  N   UNL     1       4.064   5.033  18.128  0.00  0.00    +0.000 NA
ATOM      9  C   UNL     1       3.304   4.381  19.068  0.00  0.00    +0.000 A 
ATOM     10  C   UNL     1       1.974   4.593  19.455  0.00  0.00    +0.000 A 
ATOM     11  C   UNL     1       1.415   3.756  20.429  0.00  0.00    +0.000 A 
ATOM     12  C   UNL     1       2.170   2.737  21.015  0.00  0.00    +0.000 A 
ATOM     13  C   UNL     1       3.507   2.523  20.654  0.00  0.00    +0.000 A 
ATOM     14  C   UNL     1       4.034   3.366  19.672  0.00  0.00    +0.000 A 
ATOM     15  N   UNL     1       5.267   3.436  19.076  0.00  0.00    +0.000 N 
ATOM     16  H   UNL     1       6.054   2.840  19.279  0.00  0.00    +0.000 HD
ENDBRANCH   4   7
BRANCH   1  17
ATOM     17  C   UNL     1       8.405   8.321  17.737  0.00  0.00    +0.000 C 
BRANCH  17  20
ATOM     18  C   UNL     1       9.175  10.669  18.063  0.00  0.00    +0.000 C 
ATOM     19  O   UNL     1      10.329  10.380  17.756  0.00  0.00    +0.000 OA
ATOM     20  N   UNL     1       8.180   9.714  18.078  0.00  0.00    +0.000 N 
ATOM     21  H   UNL     1       7.285   9.981  18.469  0.00  0.00    +0.000 HD
BRANCH  18  27
ATOM     22  C   UNL     1       7.171  15.563  18.244  0.00  0.00    +0.000 C 
ATOM     23  C   UNL     1       7.850  14.271  18.527  0.00  0.00    +0.000 A 
ATOM     24  N   UNL     1       8.552  14.025  19.611  0.00  0.00    +0.000 NA
ATOM     25  C   UNL     1       9.077  12.741  19.561  0.00  0.00    +0.000 A 
ATOM     26  C   UNL     1       9.921  12.286  20.700  0.00  0.00    +0.000 C 
ATOM     27  C   UNL     1       8.755  12.016  18.423  0.00  0.00    +0.000 A 
ATOM     28  S   UNL     1       7.756  12.979  17.406  0.00  0.00    +0.000 S 
ENDBRANCH  18  27
ENDBRANCH  17  20
ENDBRANCH   1  17
TORSDOF 4
ENDMDL
MODEL 8
REMARK VINA RESULT:      -7.7      5.749      8.371
REMARK  Name = 
REMARK  6 active torsions:
REMARK  status: ('A' for Active; 'I' for Inactive)
REMARK    1  A    between atoms: C_1  and  C_2
REMARK    2  A    between atoms: C_4  and  C_5
REMARK    3  A    between atoms: C_6  and  C_7
REMARK    4  A    between atoms: N_9  and  C_10
REMARK    5  A    between atoms: C_10  and  C_11
REMARK    6  A    between atoms: C_14  and  C_15
REMARK                            x       y       z     vdW  Elec       q    Type
REMARK                         _______ _______ _______ _____ _____    ______ ____
ROOT
ATOM      1  C   UNL     1       7.036   7.353  18.032  0.00  0.00    +0.000 C 
ATOM      2  C   UNL     1       6.065   7.101  16.855  0.00  0.00    +0.000 C 
ATOM      3  C   UNL     1       6.141   5.741  16.160  0.00  0.00    +0.000 C 
ATOM      4  C   UNL     1       6.404   4.561  17.095  0.00  0.00    +0.000 C 
ATOM      5  C   UNL     1       7.666   4.845  17.908  0.00  0.00    +0.000 C 
ATOM      6  C   UNL     1       7.534   6.097  18.768  0.00  0.00    +0.000 C 
ENDROOT
BRANCH   4   7
ATOM      7  C   UNL     1       5.220   4.230  17.963  0.00  0.00    +0.000 A 
ATOM      8  N   UNL     1       5.197   3.451  19.027  0.00  0.00    +0.000 NA
ATOM      9  C   UNL     1       3.918   3.519  19.520  0.00  0.00    +0.000 A 
ATOM     10  C   UNL     1       3.357   2.916  20.654  0.00  0.00    +0.000 A 
ATOM     11  C   UNL     1       2.015   3.176  20.961  0.00  0.00    +0.000 A 
ATOM     12  C   UNL     1       1.245   4.010  20.148  0.00  0.00    +0.000 A 
ATOM     13  C   UNL     1       1.783   4.607  19.000  0.00  0.00    +0.000 A 
ATOM     14  C   UNL     1       3.127   4.338  18.725  0.00  0.00    +0.000 A 
ATOM     15  N   UNL     1       3.969   4.752  17.725  0.00  0.00    +0.000 N 
ATOM     16  H   UNL     1       3.721   5.362  16.962  0.00  0.00    +0.000 HD
ENDBRANCH   4   7
BRANCH   1  17
ATOM     17  C   UNL     1       8.204   8.273  17.632  0.00  0.00    +0.000 C 
BRANCH  17  20
ATOM     18  C   UNL     1       9.184  10.449  18.353  0.00  0.00    +0.000 C 
ATOM     19  O   UNL     1       9.991  10.443  17.427  0.00  0.00    +0.000 OA
ATOM     20  N   UNL     1       8.281   9.421  18.519  0.00  0.00    +0.000 N 
ATOM     21  H   UNL     1       7.736   9.412  19.373  0.00  0.00    +0.000 HD
BRANCH  18  27
ATOM     22  C   UNL     1       8.971  13.423  22.725  0.00  0.00    +0.000 C 
ATOM     23  C   UNL     1       8.993  12.908  21.331  0.00  0.00    +0.000 A 
ATOM     24  N   UNL     1       8.801  13.651  20.263  0.00  0.00    +0.000 NA
ATOM     25  C   UNL     1       8.856  12.869  19.118  0.00  0.00    +0.000 A 
ATOM     26  C   UNL     1       8.642  13.536  17.805  0.00  0.00    +0.000 C 
ATOM     27  C   UNL     1       9.101  11.520  19.336  0.00  0.00    +0.000 A 
ATOM     28  S   UNL     1       9.277  11.247  21.025  0.00  0.00    +0.000 S 
ENDBRANCH  18  27
ENDBRANCH  17  20
ENDBRANCH   1  17
TORSDOF 4
ENDMDL
MODEL 9
REMARK VINA RESULT:      -7.7      5.872      8.485
REMARK  Name = 
REMARK  6 active torsions:
REMARK  status: ('A' for Active; 'I' for Inactive)
REMARK    1  A    between atoms: C_1  and  C_2
REMARK    2  A    between atoms: C_4  and  C_5
REMARK    3  A    between atoms: C_6  and  C_7
REMARK    4  A    between atoms: N_9  and  C_10
REMARK    5  A    between atoms: C_10  and  C_11
REMARK    6  A    between atoms: C_14  and  C_15
REMARK                            x       y       z     vdW  Elec       q    Type
REMARK                         _______ _______ _______ _____ _____    ______ ____
ROOT
ATOM      1  C   UNL     1       7.191   7.318  18.203  0.00  0.00    +0.000 C 
ATOM      2  C   UNL     1       6.194   7.187  17.029  0.00  0.00    +0.000 C 
ATOM      3  C   UNL     1       6.173   5.859  16.270  0.00  0.00    +0.000 C 
ATOM      4  C   UNL     1       6.367   4.621  17.146  0.00  0.00    +0.000 C 
ATOM      5  C   UNL     1       7.652   4.784  17.955  0.00  0.00    +0.000 C 
ATOM      6  C   UNL     1       7.612   5.999  18.874  0.00  0.00    +0.000 C 
ENDROOT
BRANCH   4   7
ATOM      7  C   UNL     1       5.171   4.328  18.013  0.00  0.00    +0.000 A 
ATOM      8  N   UNL     1       3.953   4.819  17.892  0.00  0.00    +0.000 NA
ATOM      9  C   UNL     1       3.198   4.203  18.859  0.00  0.00    +0.000 A 
ATOM     10  C   UNL     1       1.833   4.328  19.151  0.00  0.00    +0.000 A 
ATOM     11  C   UNL     1       1.291   3.551  20.184  0.00  0.00    +0.000 A 
ATOM     12  C   UNL     1       2.096   2.678  20.919  0.00  0.00    +0.000 A 
ATOM     13  C   UNL     1       3.467   2.554  20.654  0.00  0.00    +0.000 A 
ATOM     14  C   UNL     1       3.977   3.332  19.611  0.00  0.00    +0.000 A 
ATOM     15  N   UNL     1       5.233   3.454  19.074  0.00  0.00    +0.000 N 
ATOM     16  H   UNL     1       6.055   2.961  19.384  0.00  0.00    +0.000 HD
ENDBRANCH   4   7
BRANCH   1  17
ATOM     17  C   UNL     1       8.413   8.178  17.832  0.00  0.00    +0.000 C 
BRANCH  17  20
ATOM     18  C   UNL     1       9.353  10.326  18.677  0.00  0.00    +0.000 C 
ATOM     19  O   UNL     1       9.701  10.669  17.549  0.00  0.00    +0.000 OA
ATOM     20  N   UNL     1       8.720   9.121  18.893  0.00  0.00    +0.000 N 
ATOM     21  H   UNL     1       8.580   8.834  19.854  0.00  0.00    +0.000 HD
BRANCH  18  27
ATOM     22  C   UNL     1       8.921  13.105  23.160  0.00  0.00    +0.000 C 
ATOM     23  C   UNL     1       9.387  12.434  21.917  0.00  0.00    +0.000 A 
ATOM     24  N   UNL     1      10.596  12.564  21.415  0.00  0.00    +0.000 NA
ATOM     25  C   UNL     1      10.707  11.835  20.239  0.00  0.00    +0.000 A 
ATOM     26  C   UNL     1      12.005  11.875  19.512  0.00  0.00    +0.000 C 
ATOM     27  C   UNL     1       9.563  11.145  19.863  0.00  0.00    +0.000 A 
ATOM     28  S   UNL     1       8.331  11.418  21.033  0.00  0.00    +0.000 S 
ENDBRANCH  18  27
ENDBRANCH  17  20
ENDBRANCH   1  17
TORSDOF 4
ENDMDL
