MODEL 1
REMARK VINA RESULT:      -6.7      0.000      0.000
REMARK  Name = 
REMARK  5 active torsions:
REMARK  status: ('A' for Active; 'I' for Inactive)
REMARK    1  A    between atoms: C_1  and  C_2
REMARK    2  A    between atoms: C_2  and  C_3
REMARK    3  A    between atoms: N_5  and  C_6
REMARK    4  A    between atoms: C_9  and  C_10
REMARK    5  A    between atoms: C_10  and  N_11
REMARK                            x       y       z     vdW  Elec       q    Type
REMARK                         _______ _______ _______ _____ _____    ______ ____
ROOT
ATOM      1  C   UNL     1       6.230   5.464  15.908  0.00  0.00    +0.000 A 
ATOM      2  C   UNL     1       6.590   4.584  16.933  0.00  0.00    +0.000 A 
ATOM      3  C   UNL     1       5.893   4.577  18.148  0.00  0.00    +0.000 A 
ATOM      4  C   UNL     1       4.835   5.467  18.392  0.00  0.00    +0.000 A 
ATOM      5  C   UNL     1       4.536   6.404  17.391  0.00  0.00    +0.000 A 
ATOM      6 CL   UNL     1       3.319   7.616  17.600  0.00  0.00    +0.000 Cl
ATOM      7  C   UNL     1       5.211   6.384  16.160  0.00  0.00    +0.000 A 
ENDROOT
BRANCH   1  10
ATOM      8  C   UNL     1       6.676   4.542  13.621  0.00  0.00    +0.000 C 
ATOM      9  O   UNL     1       5.957   3.552  13.670  0.00  0.00    +0.000 OA
ATOM     10  N   UNL     1       6.836   5.481  14.632  0.00  0.00    +0.000 N 
ATOM     11  H   UNL     1       7.396   6.296  14.409  0.00  0.00    +0.000 HD
BRANCH   8  13
ATOM     12  C   UNL     1       8.563   5.923  12.682  0.00  0.00    +0.000 C 
ATOM     13  C   UNL     1       7.519   4.853  12.394  0.00  0.00    +0.000 C 
ENDBRANCH   8  13
ENDBRANCH   1  10
BRANCH   4  14
ATOM     14  C   UNL     1       4.018   5.326  19.671  0.00  0.00    +0.000 C 
BRANCH  14  15
ATOM     15  N   UNL     1       2.647   4.862  19.428  0.00  0.00    +0.000 NA
ATOM     16  C   UNL     1       1.762   4.788  20.604  0.00  0.00    +0.000 C 
ATOM     17  C   UNL     1       1.791   3.464  21.381  0.00  0.00    +0.000 C 
ATOM     18  O   UNL     1       1.515   2.360  20.518  0.00  0.00    +0.000 OA
ATOM     19  C   UNL     1       2.470   2.293  19.458  0.00  0.00    +0.000 C 
ATOM     20  C   UNL     1       2.573   3.607  18.656  0.00  0.00    +0.000 C 
ENDBRANCH  14  15
ENDBRANCH   4  14
TORSDOF 4
ENDMDL
MODEL 2
REMARK VINA RESULT:      -6.7      1.187      1.352
REMARK  Name = 
REMARK  5 active torsions:
REMARK  status: ('A' for Active; 'I' for Inactive)
REMARK    1  A    between atoms: C_1  and  C_2
REMARK    2  A    between atoms: C_2  and  C_3
REMARK    3  A    between atoms: N_5  and  C_6
REMARK    4  A    between atoms: C_9  and  C_10
REMARK    5  A    between atoms: C_10  and  N_11
REMARK                            x       y       z     vdW  Elec       q    Type
REMARK                         _______ _______ _______ _____ _____    ______ ____
ROOT
ATOM      1  C   UNL     1       5.447   4.659  15.666  0.00  0.00    +0.000 A 
ATOM      2  C   UNL     1       5.522   3.698  16.678  0.00  0.00    +0.000 A 
ATOM      3  C   UNL     1       4.955   3.937  17.936  0.00  0.00    +0.000 A 
ATOM      4  C   UNL     1       4.322   5.154  18.237  0.00  0.00    +0.000 A 
ATOM      5  C   UNL     1       4.327   6.145  17.244  0.00  0.00    +0.000 A 
ATOM      6 CL   UNL     1       3.665   7.721  17.516  0.00  0.00    +0.000 Cl
ATOM      7  C   UNL     1       4.862   5.890  15.971  0.00  0.00    +0.000 A 
ENDROOT
BRANCH   1  10
ATOM      8  C   UNL     1       7.137   4.916  13.833  0.00  0.00    +0.000 C 
ATOM      9  O   UNL     1       7.992   5.539  14.447  0.00  0.00    +0.000 OA
ATOM     10  N   UNL     1       5.929   4.465  14.352  0.00  0.00    +0.000 N 
ATOM     11  H   UNL     1       5.364   3.882  13.746  0.00  0.00    +0.000 HD
BRANCH   8  13
ATOM     12  C   UNL     1       6.498   3.335  11.977  0.00  0.00    +0.000 C 
ATOM     13  C   UNL     1       7.309   4.565  12.363  0.00  0.00    +0.000 C 
ENDBRANCH   8  13
ENDBRANCH   1  10
BRANCH   4  14
ATOM     14  C   UNL     1       3.599   5.312  19.569  0.00  0.00    +0.000 C 
BRANCH  14  15
ATOM     15  N   UNL     1       2.141   5.190  19.449  0.00  0.00    +0.000 NA
ATOM     16  C   UNL     1       1.415   4.782  20.664  0.00  0.00    +0.000 C 
ATOM     17  C   UNL     1       1.259   3.269  20.874  0.00  0.00    +0.000 C 
ATOM     18  O   UNL     1       0.649   2.657  19.736  0.00  0.00    +0.000 OA
ATOM     19  C   UNL     1       1.427   2.882  18.560  0.00  0.00    +0.000 C 
ATOM     20  C   UNL     1       1.707   4.376  18.298  0.00  0.00    +0.000 C 
ENDBRANCH  14  15
ENDBRANCH   4  14
TORSDOF 4
ENDMDL
MODEL 3
REMARK VINA RESULT:      -6.7      3.673      7.769
REMARK  Name = 
REMARK  5 active torsions:
REMARK  status: ('A' for Active; 'I' for Inactive)
REMARK    1  A    between atoms: C_1  and  C_2
REMARK    2  A    between atoms: C_2  and  C_3
REMARK    3  A    between atoms: N_5  and  C_6
REMARK    4  A    between atoms: C_9  and  C_10
REMARK    5  A    between atoms: C_10  and  N_11
REMARK                            x       y       z     vdW  Elec       q    Type
REMARK                         _______ _______ _______ _____ _____    ______ ____
ROOT
ATOM      1  C   UNL     1       1.501   7.628  20.313  0.00  0.00    +0.000 A 
ATOM      2  C   UNL     1       2.028   8.230  19.167  0.00  0.00    +0.000 A 
ATOM      3  C   UNL     1       2.844   7.507  18.288  0.00  0.00    +0.000 A 
ATOM      4  C   UNL     1       3.188   6.169  18.540  0.00  0.00    +0.000 A 
ATOM      5  C   UNL     1       2.726   5.598  19.735  0.00  0.00    +0.000 A 
ATOM      6 CL   UNL     1       3.153   3.990  20.210  0.00  0.00    +0.000 Cl
ATOM      7  C   UNL     1       1.877   6.313  20.595  0.00  0.00    +0.000 A 
ENDROOT
BRANCH   1  10
ATOM      8  C   UNL     1       0.954   9.093  22.271  0.00  0.00    +0.000 C 
ATOM      9  O   UNL     1       2.091   9.418  22.590  0.00  0.00    +0.000 OA
ATOM     10  N   UNL     1       0.613   8.268  21.207  0.00  0.00    +0.000 N 
ATOM     11  H   UNL     1      -0.376   8.164  21.012  0.00  0.00    +0.000 HD
BRANCH   8  13
ATOM     12  C   UNL     1      -0.710  10.956  22.604  0.00  0.00    +0.000 C 
ATOM     13  C   UNL     1      -0.259   9.572  23.053  0.00  0.00    +0.000 C 
ENDBRANCH   8  13
ENDBRANCH   1  10
BRANCH   4  14
ATOM     14  C   UNL     1       3.961   5.384  17.486  0.00  0.00    +0.000 C 
BRANCH  14  15
ATOM     15  N   UNL     1       5.217   6.034  17.093  0.00  0.00    +0.000 NA
ATOM     16  C   UNL     1       5.711   5.738  15.737  0.00  0.00    +0.000 C 
ATOM     17  C   UNL     1       6.617   4.505  15.609  0.00  0.00    +0.000 C 
ATOM     18  O   UNL     1       7.728   4.594  16.504  0.00  0.00    +0.000 OA
ATOM     19  C   UNL     1       7.283   4.701  17.857  0.00  0.00    +0.000 C 
ATOM     20  C   UNL     1       6.303   5.872  18.077  0.00  0.00    +0.000 C 
ENDBRANCH  14  15
ENDBRANCH   4  14
TORSDOF 4
ENDMDL
MODEL 4
REMARK VINA RESULT:      -6.6      0.685      1.313
REMARK  Name = 
REMARK  5 active torsions:
REMARK  status: ('A' for Active; 'I' for Inactive)
REMARK    1  A    between atoms: C_1  and  C_2
REMARK    2  A    between atoms: C_2  and  C_3
REMARK    3  A    between atoms: N_5  and  C_6
REMARK    4  A    between atoms: C_9  and  C_10
REMARK    5  A    between atoms: C_10  and  N_11
REMARK                            x       y       z     vdW  Elec       q    Type
REMARK                         _______ _______ _______ _____ _____    ______ ____
ROOT
ATOM      1  C   UNL     1       6.284   5.396  15.885  0.00  0.00    +0.000 A 
ATOM      2  C   UNL     1       6.684   4.552  16.924  0.00  0.00    +0.000 A 
ATOM      3  C   UNL     1       5.977   4.519  18.133  0.00  0.00    +0.000 A 
ATOM      4  C   UNL     1       4.867   5.350  18.357  0.00  0.00    +0.000 A 
ATOM      5  C   UNL     1       4.525   6.256  17.342  0.00  0.00    +0.000 A 
ATOM      6 CL   UNL     1       3.238   7.398  17.525  0.00  0.00    +0.000 Cl
ATOM      7  C   UNL     1       5.211   6.260  16.116  0.00  0.00    +0.000 A 
ENDROOT
BRANCH   1  10
ATOM      8  C   UNL     1       6.721   4.527  13.575  0.00  0.00    +0.000 C 
ATOM      9  O   UNL     1       5.976   3.556  13.592  0.00  0.00    +0.000 OA
ATOM     10  N   UNL     1       6.900   5.433  14.614  0.00  0.00    +0.000 N 
ATOM     11  H   UNL     1       7.482   6.239  14.418  0.00  0.00    +0.000 HD
BRANCH   8  13
ATOM     12  C   UNL     1       8.570   5.971  12.654  0.00  0.00    +0.000 C 
ATOM     13  C   UNL     1       7.581   4.850  12.364  0.00  0.00    +0.000 C 
ENDBRANCH   8  13
ENDBRANCH   1  10
BRANCH   4  14
ATOM     14  C   UNL     1       4.048   5.178  19.631  0.00  0.00    +0.000 C 
BRANCH  14  15
ATOM     15  N   UNL     1       3.509   3.821  19.787  0.00  0.00    +0.000 NA
ATOM     16  C   UNL     1       2.928   3.205  18.581  0.00  0.00    +0.000 C 
ATOM     17  C   UNL     1       1.438   3.484  18.339  0.00  0.00    +0.000 C 
ATOM     18  O   UNL     1       0.658   3.113  19.477  0.00  0.00    +0.000 OA
ATOM     19  C   UNL     1       1.079   3.832  20.637  0.00  0.00    +0.000 C 
ATOM     20  C   UNL     1       2.586   3.677  20.928  0.00  0.00    +0.000 C 
ENDBRANCH  14  15
ENDBRANCH   4  14
TORSDOF 4
ENDMDL
MODEL 5
REMARK VINA RESULT:      -6.4      2.490      3.086
REMARK  Name = 
REMARK  5 active torsions:
REMARK  status: ('A' for Active; 'I' for Inactive)
REMARK    1  A    between atoms: C_1  and  C_2
REMARK    2  A    between atoms: C_2  and  C_3
REMARK    3  A    between atoms: N_5  and  C_6
REMARK    4  A    between atoms: C_9  and  C_10
REMARK    5  A    between atoms: C_10  and  N_11
REMARK                            x       y       z     vdW  Elec       q    Type
REMARK                         _______ _______ _______ _____ _____    ______ ____
ROOT
ATOM      1  C   UNL     1       5.856   4.158  14.661  0.00  0.00    +0.000 A 
ATOM      2  C   UNL     1       5.759   5.539  14.849  0.00  0.00    +0.000 A 
ATOM      3  C   UNL     1       5.188   6.066  16.014  0.00  0.00    +0.000 A 
ATOM      4  C   UNL     1       4.666   5.232  17.017  0.00  0.00    +0.000 A 
ATOM      5  C   UNL     1       4.689   3.849  16.781  0.00  0.00    +0.000 A 
ATOM      6 CL   UNL     1       3.996   2.717  17.892  0.00  0.00    +0.000 Cl
ATOM      7  C   UNL     1       5.296   3.322  15.630  0.00  0.00    +0.000 A 
ENDROOT
BRANCH   1  10
ATOM      8  C   UNL     1       5.895   3.242  12.328  0.00  0.00    +0.000 C 
ATOM      9  O   UNL     1       4.734   3.469  12.014  0.00  0.00    +0.000 OA
ATOM     10  N   UNL     1       6.482   3.552  13.549  0.00  0.00    +0.000 N 
ATOM     11  H   UNL     1       7.479   3.385  13.628  0.00  0.00    +0.000 HD
BRANCH   8  13
ATOM     12  C   UNL     1       6.447   1.110  11.104  0.00  0.00    +0.000 C 
ATOM     13  C   UNL     1       6.857   2.551  11.375  0.00  0.00    +0.000 C 
ENDBRANCH   8  13
ENDBRANCH   1  10
BRANCH   4  14
ATOM     14  C   UNL     1       4.184   5.847  18.326  0.00  0.00    +0.000 C 
BRANCH  14  15
ATOM     15  N   UNL     1       2.727   6.018  18.377  0.00  0.00    +0.000 NA
ATOM     16  C   UNL     1       2.237   7.384  18.631  0.00  0.00    +0.000 C 
ATOM     17  C   UNL     1       2.069   7.771  20.107  0.00  0.00    +0.000 C 
ATOM     18  O   UNL     1       1.228   6.838  20.786  0.00  0.00    +0.000 OA
ATOM     19  C   UNL     1       1.771   5.519  20.715  0.00  0.00    +0.000 C 
ATOM     20  C   UNL     1       2.048   5.059  19.269  0.00  0.00    +0.000 C 
ENDBRANCH  14  15
ENDBRANCH   4  14
TORSDOF 4
ENDMDL
MODEL 6
REMARK VINA RESULT:      -6.4      1.778      2.150
REMARK  Name = 
REMARK  5 active torsions:
REMARK  status: ('A' for Active; 'I' for Inactive)
REMARK    1  A    between atoms: C_1  and  C_2
REMARK    2  A    between atoms: C_2  and  C_3
REMARK    3  A    between atoms: N_5  and  C_6
REMARK    4  A    between atoms: C_9  and  C_10
REMARK    5  A    between atoms: C_10  and  N_11
REMARK                            x       y       z     vdW  Elec       q    Type
REMARK                         _______ _______ _______ _____ _____    ______ ____
ROOT
ATOM      1  C   UNL     1       5.377   4.729  15.489  0.00  0.00    +0.000 A 
ATOM      2  C   UNL     1       5.056   6.012  15.940  0.00  0.00    +0.000 A 
ATOM      3  C   UNL     1       4.576   6.215  17.240  0.00  0.00    +0.000 A 
ATOM      4  C   UNL     1       4.370   5.141  18.122  0.00  0.00    +0.000 A 
ATOM      5  C   UNL     1       4.614   3.849  17.632  0.00  0.00    +0.000 A 
ATOM      6 CL   UNL     1       4.314   2.435  18.583  0.00  0.00    +0.000 Cl
ATOM      7  C   UNL     1       5.131   3.652  16.342  0.00  0.00    +0.000 A 
ENDROOT
BRANCH   1  10
ATOM      8  C   UNL     1       7.155   4.902  13.730  0.00  0.00    +0.000 C 
ATOM      9  O   UNL     1       7.959   5.595  14.339  0.00  0.00    +0.000 OA
ATOM     10  N   UNL     1       5.934   4.453  14.220  0.00  0.00    +0.000 N 
ATOM     11  H   UNL     1       5.418   3.810  13.631  0.00  0.00    +0.000 HD
BRANCH   8  13
ATOM     12  C   UNL     1       6.493   3.307  11.895  0.00  0.00    +0.000 C 
ATOM     13  C   UNL     1       7.415   4.448  12.302  0.00  0.00    +0.000 C 
ENDBRANCH   8  13
ENDBRANCH   1  10
BRANCH   4  14
ATOM     14  C   UNL     1       3.982   5.425  19.568  0.00  0.00    +0.000 C 
BRANCH  14  15
ATOM     15  N   UNL     1       2.532   5.554  19.758  0.00  0.00    +0.000 NA
ATOM     16  C   UNL     1       1.989   5.041  21.028  0.00  0.00    +0.000 C 
ATOM     17  C   UNL     1       1.591   3.558  21.035  0.00  0.00    +0.000 C 
ATOM     18  O   UNL     1       0.668   3.273  19.982  0.00  0.00    +0.000 OA
ATOM     19  C   UNL     1       1.234   3.592  18.710  0.00  0.00    +0.000 C 
ATOM     20  C   UNL     1       1.737   5.048  18.623  0.00  0.00    +0.000 C 
ENDBRANCH  14  15
ENDBRANCH   4  14
TORSDOF 4
ENDMDL
MODEL 7
REMARK VINA RESULT:      -6.3      3.339      7.283
REMARK  Name = 
REMARK  5 active torsions:
REMARK  status: ('A' for Active; 'I' for Inactive)
REMARK    1  A    between atoms: C_1  and  C_2
REMARK    2  A    between atoms: C_2  and  C_3
REMARK    3  A    between atoms: N_5  and  C_6
REMARK    4  A    between atoms: C_9  and  C_10
REMARK    5  A    between atoms: C_10  and  N_11
REMARK                            x       y       z     vdW  Elec       q    Type
REMARK                         _______ _______ _______ _____ _____    ______ ____
ROOT
ATOM      1  C   UNL     1       2.291   6.716  20.012  0.00  0.00    +0.000 A 
ATOM      2  C   UNL     1       2.659   7.293  18.794  0.00  0.00    +0.000 A 
ATOM      3  C   UNL     1       3.246   6.520  17.784  0.00  0.00    +0.000 A 
ATOM      4  C   UNL     1       3.515   5.154  17.968  0.00  0.00    +0.000 A 
ATOM      5  C   UNL     1       3.222   4.603  19.225  0.00  0.00    +0.000 A 
ATOM      6 CL   UNL     1       3.589   2.958  19.614  0.00  0.00    +0.000 Cl
ATOM      7  C   UNL     1       2.598   5.370  20.222  0.00  0.00    +0.000 A 
ENDROOT
BRANCH   1  10
ATOM      8  C   UNL     1       1.087   8.689  20.982  0.00  0.00    +0.000 C 
ATOM      9  O   UNL     1       1.076   9.411  19.993  0.00  0.00    +0.000 OA
ATOM     10  N   UNL     1       1.630   7.412  21.050  0.00  0.00    +0.000 N 
ATOM     11  H   UNL     1       1.480   6.901  21.912  0.00  0.00    +0.000 HD
BRANCH   8  13
ATOM     12  C   UNL     1      -0.492  10.291  22.118  0.00  0.00    +0.000 C 
ATOM     13  C   UNL     1       0.490   9.143  22.305  0.00  0.00    +0.000 C 
ENDBRANCH   8  13
ENDBRANCH   1  10
BRANCH   4  14
ATOM     14  C   UNL     1       4.024   4.327  16.794  0.00  0.00    +0.000 C 
BRANCH  14  15
ATOM     15  N   UNL     1       5.459   4.032  16.879  0.00  0.00    +0.000 NA
ATOM     16  C   UNL     1       6.283   4.997  17.629  0.00  0.00    +0.000 C 
ATOM     17  C   UNL     1       6.842   6.173  16.816  0.00  0.00    +0.000 C 
ATOM     18  O   UNL     1       7.580   5.706  15.685  0.00  0.00    +0.000 OA
ATOM     19  C   UNL     1       6.756   4.909  14.834  0.00  0.00    +0.000 C 
ATOM     20  C   UNL     1       6.083   3.735  15.575  0.00  0.00    +0.000 C 
ENDBRANCH  14  15
ENDBRANCH   4  14
TORSDOF 4
ENDMDL
MODEL 8
REMARK VINA RESULT:      -6.3      2.882      3.479
REMARK  Name = 
REMARK  5 active torsions:
REMARK  status: ('A' for Active; 'I' for Inactive)
REMARK    1  A    between atoms: C_1  and  C_2
REMARK    2  A    between atoms: C_2  and  C_3
REMARK    3  A    between atoms: N_5  and  C_6
REMARK    4  A    between atoms: C_9  and  C_10
REMARK    5  A    between atoms: C_10  and  N_11
REMARK                            x       y       z     vdW  Elec       q    Type
REMARK                         _______ _______ _______ _____ _____    ______ ____
ROOT
ATOM      1  C   UNL     1       4.966   6.176  17.507  0.00  0.00    +0.000 A 
ATOM      2  C   UNL     1       4.813   4.978  16.805  0.00  0.00    +0.000 A 
ATOM      3  C   UNL     1       3.734   4.125  17.070  0.00  0.00    +0.000 A 
ATOM      4  C   UNL     1       2.789   4.424  18.065  0.00  0.00    +0.000 A 
ATOM      5  C   UNL     1       2.998   5.586  18.823  0.00  0.00    +0.000 A 
ATOM      6 CL   UNL     1       1.962   6.022  20.138  0.00  0.00    +0.000 Cl
ATOM      7  C   UNL     1       4.058   6.459  18.530  0.00  0.00    +0.000 A 
ENDROOT
BRANCH   1  10
ATOM      8  C   UNL     1       7.259   7.145  17.800  0.00  0.00    +0.000 C 
ATOM      9  O   UNL     1       7.713   6.326  18.590  0.00  0.00    +0.000 OA
ATOM     10  N   UNL     1       5.984   7.121  17.248  0.00  0.00    +0.000 N 
ATOM     11  H   UNL     1       5.784   7.817  16.538  0.00  0.00    +0.000 HD
BRANCH   8  13
ATOM     12  C   UNL     1       8.541   9.199  18.497  0.00  0.00    +0.000 C 
ATOM     13  C   UNL     1       8.079   8.336  17.331  0.00  0.00    +0.000 C 
ENDBRANCH   8  13
ENDBRANCH   1  10
BRANCH   4  14
ATOM     14  C   UNL     1       1.558   3.538  18.218  0.00  0.00    +0.000 C 
BRANCH  14  15
ATOM     15  N   UNL     1       1.807   2.349  19.042  0.00  0.00    +0.000 NA
ATOM     16  C   UNL     1       1.299   2.392  20.425  0.00  0.00    +0.000 C 
ATOM     17  C   UNL     1       2.252   2.989  21.469  0.00  0.00    +0.000 C 
ATOM     18  O   UNL     1       3.513   2.316  21.453  0.00  0.00    +0.000 OA
ATOM     19  C   UNL     1       4.123   2.410  20.166  0.00  0.00    +0.000 C 
ATOM     20  C   UNL     1       3.212   1.901  19.029  0.00  0.00    +0.000 C 
ENDBRANCH  14  15
ENDBRANCH   4  14
TORSDOF 4
ENDMDL
MODEL 9
REMARK VINA RESULT:      -6.3      4.247      7.433
REMARK  Name = 
REMARK  5 active torsions:
REMARK  status: ('A' for Active; 'I' for Inactive)
REMARK    1  A    between atoms: C_1  and  C_2
REMARK    2  A    between atoms: C_2  and  C_3
REMARK    3  A    between atoms: N_5  and  C_6
REMARK    4  A    between atoms: C_9  and  C_10
REMARK    5  A    between atoms: C_10  and  N_11
REMARK                            x       y       z     vdW  Elec       q    Type
REMARK                         _______ _______ _______ _____ _____    ______ ____
ROOT
ATOM      1  C   UNL     1       1.621   8.777  19.139  0.00  0.00    +0.000 A 
ATOM      2  C   UNL     1       2.365   8.961  17.971  0.00  0.00    +0.000 A 
ATOM      3  C   UNL     1       3.192   7.943  17.481  0.00  0.00    +0.000 A 
ATOM      4  C   UNL     1       3.329   6.719  18.157  0.00  0.00    +0.000 A 
ATOM      5  C   UNL     1       2.645   6.575  19.373  0.00  0.00    +0.000 A 
ATOM      6 CL   UNL     1       2.800   5.156  20.351  0.00  0.00    +0.000 Cl
ATOM      7  C   UNL     1       1.787   7.583  19.843  0.00  0.00    +0.000 A 
ENDROOT
BRANCH   1  10
ATOM      8  C   UNL     1      -0.396  10.259  19.006  0.00  0.00    +0.000 C 
ATOM      9  O   UNL     1      -0.774   9.967  17.878  0.00  0.00    +0.000 OA
ATOM     10  N   UNL     1       0.711   9.727  19.656  0.00  0.00    +0.000 N 
ATOM     11  H   UNL     1       0.844  10.000  20.623  0.00  0.00    +0.000 HD
BRANCH   8  13
ATOM     12  C   UNL     1      -2.220  11.998  19.053  0.00  0.00    +0.000 C 
ATOM     13  C   UNL     1      -1.126  11.295  19.846  0.00  0.00    +0.000 C 
ENDBRANCH   8  13
ENDBRANCH   1  10
BRANCH   4  14
ATOM     14  C   UNL     1       4.128   5.593  17.512  0.00  0.00    +0.000 C 
BRANCH  14  15
ATOM     15  N   UNL     1       5.335   6.068  16.823  0.00  0.00    +0.000 NA
ATOM     16  C   UNL     1       5.648   5.426  15.534  0.00  0.00    +0.000 C 
ATOM     17  C   UNL     1       6.510   4.158  15.610  0.00  0.00    +0.000 C 
ATOM     18  O   UNL     1       7.726   4.410  16.315  0.00  0.00    +0.000 OA
ATOM     19  C   UNL     1       7.459   4.865  17.642  0.00  0.00    +0.000 C 
ATOM     20  C   UNL     1       6.534   6.099  17.681  0.00  0.00    +0.000 C 
ENDBRANCH  14  15
ENDBRANCH   4  14
TORSDOF 4
ENDMDL
