MODEL 1
REMARK VINA RESULT:      -7.5      0.000      0.000
REMARK  Name = 
REMARK  10 active torsions:
REMARK  status: ('A' for Active; 'I' for Inactive)
REMARK    1  A    between atoms: C_1  and  O_2
REMARK    2  A    between atoms: O_2  and  C_3
REMARK    3  A    between atoms: C_7  and  O_8
REMARK    4  A    between atoms: O_8  and  C_9
REMARK    5  A    between atoms: C_9  and  C_11
REMARK    6  A    between atoms: C_11  and  O_12
REMARK    7  A    between atoms: O_12  and  C_13
REMARK    8  A    between atoms: C_13  and  C_15
REMARK    9  A    between atoms: C_18  and  O_19
REMARK   10  A    between atoms: C_20  and  O_21
REMARK                            x       y       z     vdW  Elec       q    Type
REMARK                         _______ _______ _______ _____ _____    ______ ____
ROOT
ATOM      1  O   UNL     1       5.150   5.965  18.241  0.00  0.00    +0.000 OA
ENDROOT
BRANCH   1   2
ATOM      2  C   UNL     1       5.063   4.933  19.120  0.00  0.00    +0.000 C 
ATOM      3  O   UNL     1       5.904   4.655  19.963  0.00  0.00    +0.000 OA
BRANCH   2   4
ATOM      4  C   UNL     1       3.804   4.162  18.943  0.00  0.00    +0.000 A 
ATOM      5  C   UNL     1       3.730   3.254  17.869  0.00  0.00    +0.000 A 
ATOM      6  C   UNL     1       2.579   2.489  17.654  0.00  0.00    +0.000 A 
ATOM      7  C   UNL     1       1.505   2.638  18.520  0.00  0.00    +0.000 A 
ATOM      8  C   UNL     1       1.575   3.536  19.584  0.00  0.00    +0.000 A 
ATOM      9  C   UNL     1       2.713   4.299  19.808  0.00  0.00    +0.000 A 
BRANCH   7  10
ATOM     10  O   UNL     1       0.350   1.921  18.366  0.00  0.00    +0.000 OA
ATOM     11  H   UNL     1      -0.318   2.498  17.955  0.00  0.00    +0.000 HD
ENDBRANCH   7  10
BRANCH   8  12
ATOM     12  O   UNL     1       0.507   3.672  20.425  0.00  0.00    +0.000 OA
ATOM     13  H   UNL     1       0.320   4.632  20.437  0.00  0.00    +0.000 HD
ENDBRANCH   8  12
ENDBRANCH   2   4
ENDBRANCH   1   2
BRANCH   1  14
ATOM     14  C   UNL     1       6.480   6.190  17.755  0.00  0.00    +0.000 C 
BRANCH  14  15
ATOM     15  C   UNL     1       6.871   5.178  16.687  0.00  0.00    +0.000 C 
ATOM     16  O   UNL     1       7.867   4.465  16.739  0.00  0.00    +0.000 OA
BRANCH  15  17
ATOM     17  O   UNL     1       5.915   5.191  15.671  0.00  0.00    +0.000 OA
BRANCH  17  22
ATOM     18  C   UNL     1       5.910   3.438  12.400  0.00  0.00    +0.000 A 
ATOM     19  C   UNL     1       7.057   3.998  11.832  0.00  0.00    +0.000 A 
ATOM     20  C   UNL     1       7.823   4.929  12.542  0.00  0.00    +0.000 A 
ATOM     21  C   UNL     1       7.453   5.298  13.836  0.00  0.00    +0.000 A 
ATOM     22  C   UNL     1       6.318   4.726  14.405  0.00  0.00    +0.000 A 
ATOM     23  C   UNL     1       5.532   3.820  13.686  0.00  0.00    +0.000 A 
BRANCH  18  25
ATOM     24  C   UNL     1       3.958   2.964  11.139  0.00  0.00    +0.000 C 
ATOM     25  O   UNL     1       5.237   2.547  11.609  0.00  0.00    +0.000 OA
ENDBRANCH  18  25
ENDBRANCH  17  22
ENDBRANCH  15  17
ENDBRANCH  14  15
ENDBRANCH   1  14
TORSDOF 9
ENDMDL
MODEL 2
REMARK VINA RESULT:      -7.2      1.580      2.055
REMARK  Name = 
REMARK  10 active torsions:
REMARK  status: ('A' for Active; 'I' for Inactive)
REMARK    1  A    between atoms: C_1  and  O_2
REMARK    2  A    between atoms: O_2  and  C_3
REMARK    3  A    between atoms: C_7  and  O_8
REMARK    4  A    between atoms: O_8  and  C_9
REMARK    5  A    between atoms: C_9  and  C_11
REMARK    6  A    between atoms: C_11  and  O_12
REMARK    7  A    between atoms: O_12  and  C_13
REMARK    8  A    between atoms: C_13  and  C_15
REMARK    9  A    between atoms: C_18  and  O_19
REMARK   10  A    between atoms: C_20  and  O_21
REMARK                            x       y       z     vdW  Elec       q    Type
REMARK                         _______ _______ _______ _____ _____    ______ ____
ROOT
ATOM      1  O   UNL     1       4.523   7.072  17.507  0.00  0.00    +0.000 OA
ENDROOT
BRANCH   1   2
ATOM      2  C   UNL     1       3.378   6.595  18.063  0.00  0.00    +0.000 C 
ATOM      3  O   UNL     1       2.426   7.281  18.406  0.00  0.00    +0.000 OA
BRANCH   2   4
ATOM      4  C   UNL     1       3.410   5.117  18.209  0.00  0.00    +0.000 A 
ATOM      5  C   UNL     1       2.486   4.358  17.465  0.00  0.00    +0.000 A 
ATOM      6  C   UNL     1       2.472   2.962  17.547  0.00  0.00    +0.000 A 
ATOM      7  C   UNL     1       3.387   2.331  18.377  0.00  0.00    +0.000 A 
ATOM      8  C   UNL     1       4.303   3.079  19.116  0.00  0.00    +0.000 A 
ATOM      9  C   UNL     1       4.328   4.464  19.040  0.00  0.00    +0.000 A 
BRANCH   7  10
ATOM     10  O   UNL     1       3.427   0.969  18.505  0.00  0.00    +0.000 OA
ATOM     11  H   UNL     1       3.229   0.741  19.430  0.00  0.00    +0.000 HD
ENDBRANCH   7  10
BRANCH   8  12
ATOM     12  O   UNL     1       5.195   2.441  19.930  0.00  0.00    +0.000 OA
ATOM     13  H   UNL     1       6.065   2.824  19.697  0.00  0.00    +0.000 HD
ENDBRANCH   8  12
ENDBRANCH   2   4
ENDBRANCH   1   2
BRANCH   1  14
ATOM     14  C   UNL     1       4.950   6.331  16.356  0.00  0.00    +0.000 C 
BRANCH  14  15
ATOM     15  C   UNL     1       6.444   6.041  16.393  0.00  0.00    +0.000 C 
ATOM     16  O   UNL     1       7.297   6.845  16.753  0.00  0.00    +0.000 OA
BRANCH  15  17
ATOM     17  O   UNL     1       6.668   4.731  15.971  0.00  0.00    +0.000 OA
BRANCH  17  22
ATOM     18  C   UNL     1       6.083   3.495  12.521  0.00  0.00    +0.000 A 
ATOM     19  C   UNL     1       7.004   4.286  11.829  0.00  0.00    +0.000 A 
ATOM     20  C   UNL     1       7.816   5.199  12.512  0.00  0.00    +0.000 A 
ATOM     21  C   UNL     1       7.720   5.319  13.899  0.00  0.00    +0.000 A 
ATOM     22  C   UNL     1       6.812   4.518  14.587  0.00  0.00    +0.000 A 
ATOM     23  C   UNL     1       5.977   3.628  13.904  0.00  0.00    +0.000 A 
BRANCH  18  25
ATOM     24  C   UNL     1       4.104   3.162  11.257  0.00  0.00    +0.000 C 
ATOM     25  O   UNL     1       5.338   2.647  11.747  0.00  0.00    +0.000 OA
ENDBRANCH  18  25
ENDBRANCH  17  22
ENDBRANCH  15  17
ENDBRANCH  14  15
ENDBRANCH   1  14
TORSDOF 9
ENDMDL
MODEL 3
REMARK VINA RESULT:      -7.2      3.387      7.589
REMARK  Name = 
REMARK  10 active torsions:
REMARK  status: ('A' for Active; 'I' for Inactive)
REMARK    1  A    between atoms: C_1  and  O_2
REMARK    2  A    between atoms: O_2  and  C_3
REMARK    3  A    between atoms: C_7  and  O_8
REMARK    4  A    between atoms: O_8  and  C_9
REMARK    5  A    between atoms: C_9  and  C_11
REMARK    6  A    between atoms: C_11  and  O_12
REMARK    7  A    between atoms: O_12  and  C_13
REMARK    8  A    between atoms: C_13  and  C_15
REMARK    9  A    between atoms: C_18  and  O_19
REMARK   10  A    between atoms: C_20  and  O_21
REMARK                            x       y       z     vdW  Elec       q    Type
REMARK                         _______ _______ _______ _____ _____    ______ ____
ROOT
ATOM      1  O   UNL     1       2.800   4.507  17.627  0.00  0.00    +0.000 OA
ENDROOT
BRANCH   1   2
ATOM      2  C   UNL     1       3.834   3.628  17.560  0.00  0.00    +0.000 C 
ATOM      3  O   UNL     1       3.864   2.537  18.111  0.00  0.00    +0.000 OA
BRANCH   2   4
ATOM      4  C   UNL     1       4.946   4.148  16.723  0.00  0.00    +0.000 A 
ATOM      5  C   UNL     1       5.159   3.556  15.463  0.00  0.00    +0.000 A 
ATOM      6  C   UNL     1       6.180   4.007  14.621  0.00  0.00    +0.000 A 
ATOM      7  C   UNL     1       6.987   5.052  15.047  0.00  0.00    +0.000 A 
ATOM      8  C   UNL     1       6.780   5.640  16.294  0.00  0.00    +0.000 A 
ATOM      9  C   UNL     1       5.767   5.203  17.137  0.00  0.00    +0.000 A 
BRANCH   7  10
ATOM     10  O   UNL     1       8.005   5.541  14.274  0.00  0.00    +0.000 OA
ATOM     11  H   UNL     1       8.393   4.801  13.774  0.00  0.00    +0.000 HD
ENDBRANCH   7  10
BRANCH   8  12
ATOM     12  O   UNL     1       7.585   6.667  16.700  0.00  0.00    +0.000 OA
ATOM     13  H   UNL     1       7.286   7.440  16.180  0.00  0.00    +0.000 HD
ENDBRANCH   8  12
ENDBRANCH   2   4
ENDBRANCH   1   2
BRANCH   1  14
ATOM     14  C   UNL     1       1.966   4.322  18.779  0.00  0.00    +0.000 C 
BRANCH  14  15
ATOM     15  C   UNL     1       2.481   5.100  19.982  0.00  0.00    +0.000 C 
ATOM     16  O   UNL     1       2.358   4.737  21.147  0.00  0.00    +0.000 OA
BRANCH  15  17
ATOM     17  O   UNL     1       3.116   6.261  19.540  0.00  0.00    +0.000 OA
BRANCH  17  22
ATOM     18  C   UNL     1       0.906   9.149  20.275  0.00  0.00    +0.000 A 
ATOM     19  C   UNL     1       0.912   9.774  19.026  0.00  0.00    +0.000 A 
ATOM     20  C   UNL     1       1.629   9.224  17.957  0.00  0.00    +0.000 A 
ATOM     21  C   UNL     1       2.336   8.034  18.128  0.00  0.00    +0.000 A 
ATOM     22  C   UNL     1       2.315   7.405  19.371  0.00  0.00    +0.000 A 
ATOM     23  C   UNL     1       1.626   7.969  20.449  0.00  0.00    +0.000 A 
BRANCH  18  25
ATOM     24  C   UNL     1       0.459   9.405  22.591  0.00  0.00    +0.000 C 
ATOM     25  O   UNL     1       0.179   9.784  21.246  0.00  0.00    +0.000 OA
ENDBRANCH  18  25
ENDBRANCH  17  22
ENDBRANCH  15  17
ENDBRANCH  14  15
ENDBRANCH   1  14
TORSDOF 9
ENDMDL
MODEL 4
REMARK VINA RESULT:      -7.0      3.953      6.627
REMARK  Name = 
REMARK  10 active torsions:
REMARK  status: ('A' for Active; 'I' for Inactive)
REMARK    1  A    between atoms: C_1  and  O_2
REMARK    2  A    between atoms: O_2  and  C_3
REMARK    3  A    between atoms: C_7  and  O_8
REMARK    4  A    between atoms: O_8  and  C_9
REMARK    5  A    between atoms: C_9  and  C_11
REMARK    6  A    between atoms: C_11  and  O_12
REMARK    7  A    between atoms: O_12  and  C_13
REMARK    8  A    between atoms: C_13  and  C_15
REMARK    9  A    between atoms: C_18  and  O_19
REMARK   10  A    between atoms: C_20  and  O_21
REMARK                            x       y       z     vdW  Elec       q    Type
REMARK                         _______ _______ _______ _____ _____    ______ ____
ROOT
ATOM      1  O   UNL     1       2.002   5.913  20.904  0.00  0.00    +0.000 OA
ENDROOT
BRANCH   1   2
ATOM      2  C   UNL     1       2.028   6.883  19.953  0.00  0.00    +0.000 C 
ATOM      3  O   UNL     1       2.420   6.730  18.805  0.00  0.00    +0.000 OA
BRANCH   2   4
ATOM      4  C   UNL     1       1.512   8.177  20.470  0.00  0.00    +0.000 A 
ATOM      5  C   UNL     1       1.310   9.224  19.550  0.00  0.00    +0.000 A 
ATOM      6  C   UNL     1       0.815  10.463  19.970  0.00  0.00    +0.000 A 
ATOM      7  C   UNL     1       0.525  10.647  21.315  0.00  0.00    +0.000 A 
ATOM      8  C   UNL     1       0.724   9.613  22.228  0.00  0.00    +0.000 A 
ATOM      9  C   UNL     1       1.212   8.379  21.822  0.00  0.00    +0.000 A 
BRANCH   7  10
ATOM     10  O   UNL     1       0.039  11.834  21.792  0.00  0.00    +0.000 OA
ATOM     11  H   UNL     1       0.132  12.507  21.095  0.00  0.00    +0.000 HD
ENDBRANCH   7  10
BRANCH   8  12
ATOM     12  O   UNL     1       0.435   9.812  23.548  0.00  0.00    +0.000 OA
ATOM     13  H   UNL     1       0.766  10.712  23.744  0.00  0.00    +0.000 HD
ENDBRANCH   8  12
ENDBRANCH   2   4
ENDBRANCH   1   2
BRANCH   1  14
ATOM     14  C   UNL     1       1.267   4.746  20.510  0.00  0.00    +0.000 C 
BRANCH  14  15
ATOM     15  C   UNL     1       1.958   3.465  20.956  0.00  0.00    +0.000 C 
ATOM     16  O   UNL     1       2.126   3.140  22.127  0.00  0.00    +0.000 OA
BRANCH  15  17
ATOM     17  O   UNL     1       2.342   2.734  19.832  0.00  0.00    +0.000 OA
BRANCH  17  22
ATOM     18  C   UNL     1       5.505   4.194  18.553  0.00  0.00    +0.000 A 
ATOM     19  C   UNL     1       5.181   4.305  17.198  0.00  0.00    +0.000 A 
ATOM     20  C   UNL     1       3.920   3.916  16.732  0.00  0.00    +0.000 A 
ATOM     21  C   UNL     1       2.966   3.422  17.623  0.00  0.00    +0.000 A 
ATOM     22  C   UNL     1       3.287   3.327  18.975  0.00  0.00    +0.000 A 
ATOM     23  C   UNL     1       4.557   3.685  19.439  0.00  0.00    +0.000 A 
BRANCH  18  25
ATOM     24  C   UNL     1       7.131   5.920  18.508  0.00  0.00    +0.000 C 
ATOM     25  O   UNL     1       6.769   4.596  18.890  0.00  0.00    +0.000 OA
ENDBRANCH  18  25
ENDBRANCH  17  22
ENDBRANCH  15  17
ENDBRANCH  14  15
ENDBRANCH   1  14
TORSDOF 9
ENDMDL
MODEL 5
REMARK VINA RESULT:      -6.9      2.989      7.170
REMARK  Name = 
REMARK  10 active torsions:
REMARK  status: ('A' for Active; 'I' for Inactive)
REMARK    1  A    between atoms: C_1  and  O_2
REMARK    2  A    between atoms: O_2  and  C_3
REMARK    3  A    between atoms: C_7  and  O_8
REMARK    4  A    between atoms: O_8  and  C_9
REMARK    5  A    between atoms: C_9  and  C_11
REMARK    6  A    between atoms: C_11  and  O_12
REMARK    7  A    between atoms: O_12  and  C_13
REMARK    8  A    between atoms: C_13  and  C_15
REMARK    9  A    between atoms: C_18  and  O_19
REMARK   10  A    between atoms: C_20  and  O_21
REMARK                            x       y       z     vdW  Elec       q    Type
REMARK                         _______ _______ _______ _____ _____    ______ ____
ROOT
ATOM      1  O   UNL     1       3.713   2.698  20.519  0.00  0.00    +0.000 OA
ENDROOT
BRANCH   1   2
ATOM      2  C   UNL     1       3.613   2.508  19.178  0.00  0.00    +0.000 C 
ATOM      3  O   UNL     1       2.915   1.660  18.640  0.00  0.00    +0.000 OA
BRANCH   2   4
ATOM      4  C   UNL     1       4.459   3.465  18.420  0.00  0.00    +0.000 A 
ATOM      5  C   UNL     1       4.217   3.615  17.040  0.00  0.00    +0.000 A 
ATOM      6  C   UNL     1       4.969   4.508  16.272  0.00  0.00    +0.000 A 
ATOM      7  C   UNL     1       5.965   5.251  16.891  0.00  0.00    +0.000 A 
ATOM      8  C   UNL     1       6.208   5.106  18.256  0.00  0.00    +0.000 A 
ATOM      9  C   UNL     1       5.465   4.223  19.029  0.00  0.00    +0.000 A 
BRANCH   7  10
ATOM     10  O   UNL     1       6.738   6.142  16.198  0.00  0.00    +0.000 OA
ATOM     11  H   UNL     1       7.010   6.851  16.806  0.00  0.00    +0.000 HD
ENDBRANCH   7  10
BRANCH   8  12
ATOM     12  O   UNL     1       7.193   5.842  18.850  0.00  0.00    +0.000 OA
ATOM     13  H   UNL     1       8.028   5.466  18.506  0.00  0.00    +0.000 HD
ENDBRANCH   8  12
ENDBRANCH   2   4
ENDBRANCH   1   2
BRANCH   1  14
ATOM     14  C   UNL     1       2.452   2.938  21.158  0.00  0.00    +0.000 C 
BRANCH  14  15
ATOM     15  C   UNL     1       1.744   4.153  20.573  0.00  0.00    +0.000 C 
ATOM     16  O   UNL     1       0.654   4.115  20.011  0.00  0.00    +0.000 OA
BRANCH  15  17
ATOM     17  O   UNL     1       2.521   5.289  20.796  0.00  0.00    +0.000 OA
BRANCH  17  22
ATOM     18  C   UNL     1       1.281   8.659  19.861  0.00  0.00    +0.000 A 
ATOM     19  C   UNL     1       1.808   8.753  18.570  0.00  0.00    +0.000 A 
ATOM     20  C   UNL     1       2.546   7.698  18.022  0.00  0.00    +0.000 A 
ATOM     21  C   UNL     1       2.753   6.532  18.760  0.00  0.00    +0.000 A 
ATOM     22  C   UNL     1       2.213   6.435  20.040  0.00  0.00    +0.000 A 
ATOM     23  C   UNL     1       1.503   7.500  20.603  0.00  0.00    +0.000 A 
BRANCH  18  25
ATOM     24  C   UNL     1       0.884  10.211  21.610  0.00  0.00    +0.000 C 
ATOM     25  O   UNL     1       0.586   9.756  20.293  0.00  0.00    +0.000 OA
ENDBRANCH  18  25
ENDBRANCH  17  22
ENDBRANCH  15  17
ENDBRANCH  14  15
ENDBRANCH   1  14
TORSDOF 9
ENDMDL
MODEL 6
REMARK VINA RESULT:      -6.9      1.960      3.789
REMARK  Name = 
REMARK  10 active torsions:
REMARK  status: ('A' for Active; 'I' for Inactive)
REMARK    1  A    between atoms: C_1  and  O_2
REMARK    2  A    between atoms: O_2  and  C_3
REMARK    3  A    between atoms: C_7  and  O_8
REMARK    4  A    between atoms: O_8  and  C_9
REMARK    5  A    between atoms: C_9  and  C_11
REMARK    6  A    between atoms: C_11  and  O_12
REMARK    7  A    between atoms: O_12  and  C_13
REMARK    8  A    between atoms: C_13  and  C_15
REMARK    9  A    between atoms: C_18  and  O_19
REMARK   10  A    between atoms: C_20  and  O_21
REMARK                            x       y       z     vdW  Elec       q    Type
REMARK                         _______ _______ _______ _____ _____    ______ ____
ROOT
ATOM      1  O   UNL     1       2.392   5.837  20.553  0.00  0.00    +0.000 OA
ENDROOT
BRANCH   1   2
ATOM      2  C   UNL     1       1.575   4.781  20.299  0.00  0.00    +0.000 C 
ATOM      3  O   UNL     1       0.378   4.745  20.546  0.00  0.00    +0.000 OA
BRANCH   2   4
ATOM      4  C   UNL     1       2.311   3.653  19.672  0.00  0.00    +0.000 A 
ATOM      5  C   UNL     1       1.831   3.148  18.448  0.00  0.00    +0.000 A 
ATOM      6  C   UNL     1       2.484   2.096  17.799  0.00  0.00    +0.000 A 
ATOM      7  C   UNL     1       3.620   1.552  18.382  0.00  0.00    +0.000 A 
ATOM      8  C   UNL     1       4.098   2.048  19.594  0.00  0.00    +0.000 A 
ATOM      9  C   UNL     1       3.459   3.094  20.245  0.00  0.00    +0.000 A 
BRANCH   7  10
ATOM     10  O   UNL     1       4.306   0.521  17.801  0.00  0.00    +0.000 OA
ATOM     11  H   UNL     1       4.936   0.893  17.159  0.00  0.00    +0.000 HD
ENDBRANCH   7  10
BRANCH   8  12
ATOM     12  O   UNL     1       5.216   1.500  20.156  0.00  0.00    +0.000 OA
ATOM     13  H   UNL     1       5.246   1.866  21.062  0.00  0.00    +0.000 HD
ENDBRANCH   8  12
ENDBRANCH   2   4
ENDBRANCH   1   2
BRANCH   1  14
ATOM     14  C   UNL     1       2.186   6.945  19.666  0.00  0.00    +0.000 C 
BRANCH  14  15
ATOM     15  C   UNL     1       3.249   7.003  18.577  0.00  0.00    +0.000 C 
ATOM     16  O   UNL     1       3.225   7.776  17.626  0.00  0.00    +0.000 OA
BRANCH  15  17
ATOM     17  O   UNL     1       4.239   6.059  18.851  0.00  0.00    +0.000 OA
BRANCH  17  22
ATOM     18  C   UNL     1       5.544   4.789  15.618  0.00  0.00    +0.000 A 
ATOM     19  C   UNL     1       6.848   5.287  15.680  0.00  0.00    +0.000 A 
ATOM     20  C   UNL     1       7.282   6.016  16.792  0.00  0.00    +0.000 A 
ATOM     21  C   UNL     1       6.414   6.242  17.862  0.00  0.00    +0.000 A 
ATOM     22  C   UNL     1       5.120   5.731  17.804  0.00  0.00    +0.000 A 
ATOM     23  C   UNL     1       4.674   5.030  16.679  0.00  0.00    +0.000 A 
BRANCH  18  25
ATOM     24  C   UNL     1       6.302   3.874  13.565  0.00  0.00    +0.000 C 
ATOM     25  O   UNL     1       5.231   4.101  14.477  0.00  0.00    +0.000 OA
ENDBRANCH  18  25
ENDBRANCH  17  22
ENDBRANCH  15  17
ENDBRANCH  14  15
ENDBRANCH   1  14
TORSDOF 9
ENDMDL
MODEL 7
REMARK VINA RESULT:      -6.9      3.161      5.492
REMARK  Name = 
REMARK  10 active torsions:
REMARK  status: ('A' for Active; 'I' for Inactive)
REMARK    1  A    between atoms: C_1  and  O_2
REMARK    2  A    between atoms: O_2  and  C_3
REMARK    3  A    between atoms: C_7  and  O_8
REMARK    4  A    between atoms: O_8  and  C_9
REMARK    5  A    between atoms: C_9  and  C_11
REMARK    6  A    between atoms: C_11  and  O_12
REMARK    7  A    between atoms: O_12  and  C_13
REMARK    8  A    between atoms: C_13  and  C_15
REMARK    9  A    between atoms: C_18  and  O_19
REMARK   10  A    between atoms: C_20  and  O_21
REMARK                            x       y       z     vdW  Elec       q    Type
REMARK                         _______ _______ _______ _____ _____    ______ ____
ROOT
ATOM      1  O   UNL     1       3.368   5.003  20.166  0.00  0.00    +0.000 OA
ENDROOT
BRANCH   1   2
ATOM      2  C   UNL     1       2.142   5.581  20.266  0.00  0.00    +0.000 C 
ATOM      3  O   UNL     1       1.186   5.101  20.858  0.00  0.00    +0.000 OA
BRANCH   2   4
ATOM      4  C   UNL     1       2.091   6.889  19.563  0.00  0.00    +0.000 A 
ATOM      5  C   UNL     1       2.674   6.976  18.283  0.00  0.00    +0.000 A 
ATOM      6  C   UNL     1       2.648   8.175  17.563  0.00  0.00    +0.000 A 
ATOM      7  C   UNL     1       2.037   9.284  18.130  0.00  0.00    +0.000 A 
ATOM      8  C   UNL     1       1.459   9.201  19.396  0.00  0.00    +0.000 A 
ATOM      9  C   UNL     1       1.476   8.016  20.119  0.00  0.00    +0.000 A 
BRANCH   7  10
ATOM     10  O   UNL     1       1.977  10.486  17.480  0.00  0.00    +0.000 OA
ATOM     11  H   UNL     1       2.551  10.440  16.695  0.00  0.00    +0.000 HD
ENDBRANCH   7  10
BRANCH   8  12
ATOM     12  O   UNL     1       0.864  10.303  19.941  0.00  0.00    +0.000 OA
ATOM     13  H   UNL     1       0.897  10.980  19.235  0.00  0.00    +0.000 HD
ENDBRANCH   8  12
ENDBRANCH   2   4
ENDBRANCH   1   2
BRANCH   1  14
ATOM     14  C   UNL     1       3.317   3.577  20.021  0.00  0.00    +0.000 C 
BRANCH  14  15
ATOM     15  C   UNL     1       3.413   3.153  18.562  0.00  0.00    +0.000 C 
ATOM     16  O   UNL     1       2.449   2.875  17.856  0.00  0.00    +0.000 OA
BRANCH  15  17
ATOM     17  O   UNL     1       4.752   3.152  18.172  0.00  0.00    +0.000 OA
BRANCH  17  22
ATOM     18  C   UNL     1       6.860   6.180  17.774  0.00  0.00    +0.000 A 
ATOM     19  C   UNL     1       6.405   6.621  16.528  0.00  0.00    +0.000 A 
ATOM     20  C   UNL     1       5.399   5.924  15.849  0.00  0.00    +0.000 A 
ATOM     21  C   UNL     1       4.830   4.785  16.419  0.00  0.00    +0.000 A 
ATOM     22  C   UNL     1       5.275   4.357  17.668  0.00  0.00    +0.000 A 
ATOM     23  C   UNL     1       6.302   5.032  18.334  0.00  0.00    +0.000 A 
BRANCH  18  25
ATOM     24  C   UNL     1       7.994   8.263  17.839  0.00  0.00    +0.000 C 
ATOM     25  O   UNL     1       7.853   6.935  18.337  0.00  0.00    +0.000 OA
ENDBRANCH  18  25
ENDBRANCH  17  22
ENDBRANCH  15  17
ENDBRANCH  14  15
ENDBRANCH   1  14
TORSDOF 9
ENDMDL
MODEL 8
REMARK VINA RESULT:      -6.8      5.283      8.065
REMARK  Name = 
REMARK  10 active torsions:
REMARK  status: ('A' for Active; 'I' for Inactive)
REMARK    1  A    between atoms: C_1  and  O_2
REMARK    2  A    between atoms: O_2  and  C_3
REMARK    3  A    between atoms: C_7  and  O_8
REMARK    4  A    between atoms: O_8  and  C_9
REMARK    5  A    between atoms: C_9  and  C_11
REMARK    6  A    between atoms: C_11  and  O_12
REMARK    7  A    between atoms: O_12  and  C_13
REMARK    8  A    between atoms: C_13  and  C_15
REMARK    9  A    between atoms: C_18  and  O_19
REMARK   10  A    between atoms: C_20  and  O_21
REMARK                            x       y       z     vdW  Elec       q    Type
REMARK                         _______ _______ _______ _____ _____    ______ ____
ROOT
ATOM      1  O   UNL     1       2.637   6.361  18.428  0.00  0.00    +0.000 OA
ENDROOT
BRANCH   1   2
ATOM      2  C   UNL     1       3.711   5.680  18.908  0.00  0.00    +0.000 C 
ATOM      3  O   UNL     1       3.806   5.227  20.039  0.00  0.00    +0.000 OA
BRANCH   2   4
ATOM      4  C   UNL     1       4.779   5.543  17.884  0.00  0.00    +0.000 A 
ATOM      5  C   UNL     1       4.567   6.133  16.623  0.00  0.00    +0.000 A 
ATOM      6  C   UNL     1       5.538   6.051  15.619  0.00  0.00    +0.000 A 
ATOM      7  C   UNL     1       6.720   5.376  15.885  0.00  0.00    +0.000 A 
ATOM      8  C   UNL     1       6.934   4.790  17.132  0.00  0.00    +0.000 A 
ATOM      9  C   UNL     1       5.979   4.867  18.136  0.00  0.00    +0.000 A 
BRANCH   7  10
ATOM     10  O   UNL     1       7.710   5.258  14.948  0.00  0.00    +0.000 OA
ATOM     11  H   UNL     1       8.468   4.804  15.357  0.00  0.00    +0.000 HD
ENDBRANCH   7  10
BRANCH   8  12
ATOM     12  O   UNL     1       8.103   4.127  17.376  0.00  0.00    +0.000 OA
ATOM     13  H   UNL     1       8.405   4.464  18.243  0.00  0.00    +0.000 HD
ENDBRANCH   8  12
ENDBRANCH   2   4
ENDBRANCH   1   2
BRANCH   1  14
ATOM     14  C   UNL     1       2.222   7.442  19.274  0.00  0.00    +0.000 C 
BRANCH  14  15
ATOM     15  C   UNL     1       1.972   8.717  18.481  0.00  0.00    +0.000 C 
ATOM     16  O   UNL     1       2.353   8.903  17.330  0.00  0.00    +0.000 OA
BRANCH  15  17
ATOM     17  O   UNL     1       1.239   9.609  19.264  0.00  0.00    +0.000 OA
BRANCH  17  22
ATOM     18  C   UNL     1      -1.804  10.347  17.273  0.00  0.00    +0.000 A 
ATOM     19  C   UNL     1      -1.956  11.704  17.572  0.00  0.00    +0.000 A 
ATOM     20  C   UNL     1      -1.044  12.357  18.407  0.00  0.00    +0.000 A 
ATOM     21  C   UNL     1       0.039  11.658  18.943  0.00  0.00    +0.000 A 
ATOM     22  C   UNL     1       0.196  10.310  18.631  0.00  0.00    +0.000 A 
ATOM     23  C   UNL     1      -0.732   9.646  17.823  0.00  0.00    +0.000 A 
BRANCH  18  25
ATOM     24  C   UNL     1      -3.213  10.645  15.388  0.00  0.00    +0.000 C 
ATOM     25  O   UNL     1      -2.763   9.814  16.454  0.00  0.00    +0.000 OA
ENDBRANCH  18  25
ENDBRANCH  17  22
ENDBRANCH  15  17
ENDBRANCH  14  15
ENDBRANCH   1  14
TORSDOF 9
ENDMDL
MODEL 9
REMARK VINA RESULT:      -6.8      3.430      7.423
REMARK  Name = 
REMARK  10 active torsions:
REMARK  status: ('A' for Active; 'I' for Inactive)
REMARK    1  A    between atoms: C_1  and  O_2
REMARK    2  A    between atoms: O_2  and  C_3
REMARK    3  A    between atoms: C_7  and  O_8
REMARK    4  A    between atoms: O_8  and  C_9
REMARK    5  A    between atoms: C_9  and  C_11
REMARK    6  A    between atoms: C_11  and  O_12
REMARK    7  A    between atoms: O_12  and  C_13
REMARK    8  A    between atoms: C_13  and  C_15
REMARK    9  A    between atoms: C_18  and  O_19
REMARK   10  A    between atoms: C_20  and  O_21
REMARK                            x       y       z     vdW  Elec       q    Type
REMARK                         _______ _______ _______ _____ _____    ______ ____
ROOT
ATOM      1  O   UNL     1       2.267   4.177  17.902  0.00  0.00    +0.000 OA
ENDROOT
BRANCH   1   2
ATOM      2  C   UNL     1       3.430   3.486  18.036  0.00  0.00    +0.000 C 
ATOM      3  O   UNL     1       3.517   2.324  18.407  0.00  0.00    +0.000 OA
BRANCH   2   4
ATOM      4  C   UNL     1       4.608   4.314  17.671  0.00  0.00    +0.000 A 
ATOM      5  C   UNL     1       4.488   5.189  16.573  0.00  0.00    +0.000 A 
ATOM      6  C   UNL     1       5.556   6.005  16.185  0.00  0.00    +0.000 A 
ATOM      7  C   UNL     1       6.743   5.940  16.901  0.00  0.00    +0.000 A 
ATOM      8  C   UNL     1       6.865   5.076  17.988  0.00  0.00    +0.000 A 
ATOM      9  C   UNL     1       5.812   4.263  18.383  0.00  0.00    +0.000 A 
BRANCH   7  10
ATOM     10  O   UNL     1       7.825   6.710  16.575  0.00  0.00    +0.000 OA
ATOM     11  H   UNL     1       7.705   7.592  16.969  0.00  0.00    +0.000 HD
ENDBRANCH   7  10
BRANCH   8  12
ATOM     12  O   UNL     1       8.041   5.023  18.681  0.00  0.00    +0.000 OA
ATOM     13  H   UNL     1       8.017   5.800  19.275  0.00  0.00    +0.000 HD
ENDBRANCH   8  12
ENDBRANCH   2   4
ENDBRANCH   1   2
BRANCH   1  14
ATOM     14  C   UNL     1       1.519   4.277  19.121  0.00  0.00    +0.000 C 
BRANCH  14  15
ATOM     15  C   UNL     1       2.325   4.945  20.226  0.00  0.00    +0.000 C 
ATOM     16  O   UNL     1       2.345   4.569  21.394  0.00  0.00    +0.000 OA
BRANCH  15  17
ATOM     17  O   UNL     1       3.032   6.022  19.692  0.00  0.00    +0.000 OA
BRANCH  17  22
ATOM     18  C   UNL     1       1.004   9.093  20.163  0.00  0.00    +0.000 A 
ATOM     19  C   UNL     1       1.053   9.609  18.865  0.00  0.00    +0.000 A 
ATOM     20  C   UNL     1       1.737   8.927  17.852  0.00  0.00    +0.000 A 
ATOM     21  C   UNL     1       2.369   7.714  18.129  0.00  0.00    +0.000 A 
ATOM     22  C   UNL     1       2.304   7.195  19.420  0.00  0.00    +0.000 A 
ATOM     23  C   UNL     1       1.649   7.890  20.441  0.00  0.00    +0.000 A 
BRANCH  18  25
ATOM     24  C   UNL     1       0.592  11.249  21.062  0.00  0.00    +0.000 C 
ATOM     25  O   UNL     1       0.315   9.852  21.070  0.00  0.00    +0.000 OA
ENDBRANCH  18  25
ENDBRANCH  17  22
ENDBRANCH  15  17
ENDBRANCH  14  15
ENDBRANCH   1  14
TORSDOF 9
ENDMDL
