MODEL 1
REMARK VINA RESULT:      -8.5      0.000      0.000
REMARK  Name = 
REMARK  3 active torsions:
REMARK  status: ('A' for Active; 'I' for Inactive)
REMARK    1  A    between atoms: C_4  and  N_5
REMARK    2  A    between atoms: C_7  and  C_8
REMARK    3  A    between atoms: C_15  and  C_16
REMARK                            x       y       z     vdW  Elec       q    Type
REMARK                         _______ _______ _______ _____ _____    ______ ____
ROOT
ATOM      1  N   UNL     1       2.784   6.510  18.785  0.00  0.00    +0.000 N 
ATOM      2  N   UNL     1       3.812   6.418  17.886  0.00  0.00    +0.000 NA
ATOM      3  C   UNL     1       4.181   5.137  17.985  0.00  0.00    +0.000 A 
ATOM      4  N   UNL     1       3.514   4.425  18.930  0.00  0.00    +0.000 NA
ATOM      5  C   UNL     1       2.637   5.280  19.420  0.00  0.00    +0.000 A 
ENDROOT
BRANCH   1   9
ATOM      6  C   UNL     1       0.522  10.015  19.444  0.00  0.00    +0.000 A 
ATOM      7  C   UNL     1       1.003   9.742  18.169  0.00  0.00    +0.000 A 
ATOM      8  C   UNL     1       1.805   8.623  17.946  0.00  0.00    +0.000 A 
ATOM      9  C   UNL     1       2.113   7.749  18.997  0.00  0.00    +0.000 A 
ATOM     10  C   UNL     1       1.698   8.078  20.296  0.00  0.00    +0.000 A 
ATOM     11  C   UNL     1       0.891   9.200  20.513  0.00  0.00    +0.000 A 
ENDBRANCH   1   9
BRANCH   3  12
ATOM     12  C   UNL     1       5.275   4.510  17.178  0.00  0.00    +0.000 C 
ATOM     13  C   UNL     1       6.660   4.887  17.735  0.00  0.00    +0.000 C 
ATOM     14  C   UNL     1       7.778   4.451  16.799  0.00  0.00    +0.000 C 
ATOM     15  O   UNL     1       7.572   4.973  15.489  0.00  0.00    +0.000 OA
ATOM     16  C   UNL     1       6.369   4.482  14.903  0.00  0.00    +0.000 C 
ATOM     17  C   UNL     1       5.158   4.924  15.706  0.00  0.00    +0.000 C 
ENDBRANCH   3  12
BRANCH   5  18
ATOM     18  C   UNL     1       1.676   4.955  20.526  0.00  0.00    +0.000 C 
ATOM     19  C   UNL     1       0.733   3.840  20.088  0.00  0.00    +0.000 C 
ATOM     20  C   UNL     1       1.513   2.585  20.417  0.00  0.00    +0.000 C 
ATOM     21  C   UNL     1       2.215   2.951  21.709  0.00  0.00    +0.000 C 
ATOM     22  N   UNL     1       2.365   4.412  21.719  0.00  0.00    +0.000 NA
ATOM     23  H   UNL     1       3.359   4.643  21.640  0.00  0.00    +0.000 HD
ENDBRANCH   5  18
TORSDOF 3
ENDMDL
MODEL 2
REMARK VINA RESULT:      -8.4      0.339      1.082
REMARK  Name = 
REMARK  3 active torsions:
REMARK  status: ('A' for Active; 'I' for Inactive)
REMARK    1  A    between atoms: C_4  and  N_5
REMARK    2  A    between atoms: C_7  and  C_8
REMARK    3  A    between atoms: C_15  and  C_16
REMARK                            x       y       z     vdW  Elec       q    Type
REMARK                         _______ _______ _______ _____ _____    ______ ____
ROOT
ATOM      1  N   UNL     1       2.671   6.670  18.838  0.00  0.00    +0.000 N 
ATOM      2  N   UNL     1       3.629   6.643  17.862  0.00  0.00    +0.000 NA
ATOM      3  C   UNL     1       4.073   5.384  17.914  0.00  0.00    +0.000 A 
ATOM      4  N   UNL     1       3.520   4.627  18.897  0.00  0.00    +0.000 NA
ATOM      5  C   UNL     1       2.639   5.428  19.465  0.00  0.00    +0.000 A 
ENDROOT
BRANCH   1   9
ATOM      6  C   UNL     1       0.822  10.378  19.660  0.00  0.00    +0.000 A 
ATOM      7  C   UNL     1       0.946   9.436  20.675  0.00  0.00    +0.000 A 
ATOM      8  C   UNL     1       1.496   8.183  20.406  0.00  0.00    +0.000 A 
ATOM      9  C   UNL     1       1.952   7.869  19.119  0.00  0.00    +0.000 A 
ATOM     10  C   UNL     1       1.744   8.790  18.082  0.00  0.00    +0.000 A 
ATOM     11  C   UNL     1       1.195  10.047  18.358  0.00  0.00    +0.000 A 
ENDBRANCH   1   9
BRANCH   3  12
ATOM     12  C   UNL     1       5.134   4.825  17.017  0.00  0.00    +0.000 C 
ATOM     13  C   UNL     1       6.506   4.822  17.717  0.00  0.00    +0.000 C 
ATOM     14  C   UNL     1       7.627   4.476  16.749  0.00  0.00    +0.000 C 
ATOM     15  O   UNL     1       7.609   5.347  15.621  0.00  0.00    +0.000 OA
ATOM     16  C   UNL     1       6.403   5.221  14.871  0.00  0.00    +0.000 C 
ATOM     17  C   UNL     1       5.201   5.623  15.709  0.00  0.00    +0.000 C 
ENDBRANCH   3  12
BRANCH   5  18
ATOM     18  C   UNL     1       1.785   5.040  20.636  0.00  0.00    +0.000 C 
ATOM     19  C   UNL     1       0.742   4.014  20.206  0.00  0.00    +0.000 C 
ATOM     20  C   UNL     1       1.485   2.700  20.331  0.00  0.00    +0.000 C 
ATOM     21  C   UNL     1       2.338   2.910  21.565  0.00  0.00    +0.000 C 
ATOM     22  N   UNL     1       2.567   4.355  21.691  0.00  0.00    +0.000 NA
ATOM     23  H   UNL     1       3.557   4.550  21.524  0.00  0.00    +0.000 HD
ENDBRANCH   5  18
TORSDOF 3
ENDMDL
MODEL 3
REMARK VINA RESULT:      -8.2      2.462      5.858
REMARK  Name = 
REMARK  3 active torsions:
REMARK  status: ('A' for Active; 'I' for Inactive)
REMARK    1  A    between atoms: C_4  and  N_5
REMARK    2  A    between atoms: C_7  and  C_8
REMARK    3  A    between atoms: C_15  and  C_16
REMARK                            x       y       z     vdW  Elec       q    Type
REMARK                         _______ _______ _______ _____ _____    ______ ____
ROOT
ATOM      1  N   UNL     1       3.928   5.872  18.401  0.00  0.00    +0.000 N 
ATOM      2  N   UNL     1       3.558   7.167  18.157  0.00  0.00    +0.000 NA
ATOM      3  C   UNL     1       2.608   7.382  19.072  0.00  0.00    +0.000 A 
ATOM      4  N   UNL     1       2.295   6.301  19.834  0.00  0.00    +0.000 NA
ATOM      5  C   UNL     1       3.127   5.364  19.420  0.00  0.00    +0.000 A 
ENDROOT
BRANCH   1   9
ATOM      6  C   UNL     1       7.016   4.293  15.990  0.00  0.00    +0.000 A 
ATOM      7  C   UNL     1       5.710   4.296  15.513  0.00  0.00    +0.000 A 
ATOM      8  C   UNL     1       4.669   4.754  16.321  0.00  0.00    +0.000 A 
ATOM      9  C   UNL     1       4.930   5.241  17.609  0.00  0.00    +0.000 A 
ATOM     10  C   UNL     1       6.235   5.153  18.114  0.00  0.00    +0.000 A 
ATOM     11  C   UNL     1       7.276   4.695  17.299  0.00  0.00    +0.000 A 
ENDBRANCH   1   9
BRANCH   3  12
ATOM     12  C   UNL     1       1.880   8.680  19.243  0.00  0.00    +0.000 C 
ATOM     13  C   UNL     1       1.003   8.661  20.508  0.00  0.00    +0.000 C 
ATOM     14  C   UNL     1       0.086   9.873  20.572  0.00  0.00    +0.000 C 
ATOM     15  O   UNL     1      -0.695   9.980  19.385  0.00  0.00    +0.000 OA
ATOM     16  C   UNL     1       0.116  10.174  18.229  0.00  0.00    +0.000 C 
ATOM     17  C   UNL     1       1.028   8.981  18.003  0.00  0.00    +0.000 C 
ENDBRANCH   3  12
BRANCH   5  18
ATOM     18  C   UNL     1       3.145   3.963  19.956  0.00  0.00    +0.000 C 
ATOM     19  C   UNL     1       2.115   3.817  21.072  0.00  0.00    +0.000 C 
ATOM     20  C   UNL     1       0.840   3.498  20.320  0.00  0.00    +0.000 C 
ATOM     21  C   UNL     1       1.326   2.618  19.187  0.00  0.00    +0.000 C 
ATOM     22  N   UNL     1       2.729   2.973  18.936  0.00  0.00    +0.000 NA
ATOM     23  H   UNL     1       2.798   3.420  18.018  0.00  0.00    +0.000 HD
ENDBRANCH   5  18
TORSDOF 3
ENDMDL
MODEL 4
REMARK VINA RESULT:      -8.1      2.610      6.062
REMARK  Name = 
REMARK  3 active torsions:
REMARK  status: ('A' for Active; 'I' for Inactive)
REMARK    1  A    between atoms: C_4  and  N_5
REMARK    2  A    between atoms: C_7  and  C_8
REMARK    3  A    between atoms: C_15  and  C_16
REMARK                            x       y       z     vdW  Elec       q    Type
REMARK                         _______ _______ _______ _____ _____    ______ ____
ROOT
ATOM      1  N   UNL     1       3.995   6.061  17.483  0.00  0.00    +0.000 N 
ATOM      2  N   UNL     1       3.840   7.382  17.806  0.00  0.00    +0.000 NA
ATOM      3  C   UNL     1       2.643   7.405  18.399  0.00  0.00    +0.000 A 
ATOM      4  N   UNL     1       1.992   6.212  18.415  0.00  0.00    +0.000 NA
ATOM      5  C   UNL     1       2.842   5.374  17.853  0.00  0.00    +0.000 A 
ENDROOT
BRANCH   1   9
ATOM      6  C   UNL     1       7.303   4.455  15.405  0.00  0.00    +0.000 A 
ATOM      7  C   UNL     1       7.345   4.544  16.792  0.00  0.00    +0.000 A 
ATOM      8  C   UNL     1       6.288   5.130  17.489  0.00  0.00    +0.000 A 
ATOM      9  C   UNL     1       5.164   5.611  16.804  0.00  0.00    +0.000 A 
ATOM     10  C   UNL     1       5.169   5.597  15.402  0.00  0.00    +0.000 A 
ATOM     11  C   UNL     1       6.229   5.006  14.708  0.00  0.00    +0.000 A 
ENDBRANCH   1   9
BRANCH   3  12
ATOM     12  C   UNL     1       2.005   8.637  18.965  0.00  0.00    +0.000 C 
ATOM     13  C   UNL     1       1.319   8.337  20.310  0.00  0.00    +0.000 C 
ATOM     14  C   UNL     1       0.476   9.512  20.782  0.00  0.00    +0.000 C 
ATOM     15  O   UNL     1      -0.462   9.896  19.781  0.00  0.00    +0.000 OA
ATOM     16  C   UNL     1       0.181  10.342  18.590  0.00  0.00    +0.000 C 
ATOM     17  C   UNL     1       0.998   9.222  17.967  0.00  0.00    +0.000 C 
ENDBRANCH   3  12
BRANCH   5  18
ATOM     18  C   UNL     1       2.556   3.920  17.620  0.00  0.00    +0.000 C 
ATOM     19  C   UNL     1       3.358   3.066  18.597  0.00  0.00    +0.000 C 
ATOM     20  C   UNL     1       2.471   3.030  19.825  0.00  0.00    +0.000 C 
ATOM     21  C   UNL     1       1.078   2.962  19.234  0.00  0.00    +0.000 C 
ATOM     22  N   UNL     1       1.142   3.580  17.904  0.00  0.00    +0.000 NA
ATOM     23  H   UNL     1       0.606   4.451  17.917  0.00  0.00    +0.000 HD
ENDBRANCH   5  18
TORSDOF 3
ENDMDL
MODEL 5
REMARK VINA RESULT:      -8.1      2.550      5.940
REMARK  Name = 
REMARK  3 active torsions:
REMARK  status: ('A' for Active; 'I' for Inactive)
REMARK    1  A    between atoms: C_4  and  N_5
REMARK    2  A    between atoms: C_7  and  C_8
REMARK    3  A    between atoms: C_15  and  C_16
REMARK                            x       y       z     vdW  Elec       q    Type
REMARK                         _______ _______ _______ _____ _____    ______ ____
ROOT
ATOM      1  N   UNL     1       3.937   5.646  17.347  0.00  0.00    +0.000 N 
ATOM      2  N   UNL     1       3.873   6.971  17.685  0.00  0.00    +0.000 NA
ATOM      3  C   UNL     1       2.736   7.046  18.383  0.00  0.00    +0.000 A 
ATOM      4  N   UNL     1       2.035   5.885  18.454  0.00  0.00    +0.000 NA
ATOM      5  C   UNL     1       2.791   5.011  17.817  0.00  0.00    +0.000 A 
ENDROOT
BRANCH   1   9
ATOM      6  C   UNL     1       7.262   4.463  15.027  0.00  0.00    +0.000 A 
ATOM      7  C   UNL     1       6.008   4.543  14.433  0.00  0.00    +0.000 A 
ATOM      8  C   UNL     1       4.889   4.870  15.198  0.00  0.00    +0.000 A 
ATOM      9  C   UNL     1       5.019   5.146  16.566  0.00  0.00    +0.000 A 
ATOM     10  C   UNL     1       6.271   4.977  17.175  0.00  0.00    +0.000 A 
ATOM     11  C   UNL     1       7.391   4.652  16.402  0.00  0.00    +0.000 A 
ENDBRANCH   1   9
BRANCH   3  12
ATOM     12  C   UNL     1       2.210   8.303  19.005  0.00  0.00    +0.000 C 
ATOM     13  C   UNL     1       1.478   8.002  20.326  0.00  0.00    +0.000 C 
ATOM     14  C   UNL     1       0.743   9.226  20.850  0.00  0.00    +0.000 C 
ATOM     15  O   UNL     1      -0.139   9.749  19.861  0.00  0.00    +0.000 OA
ATOM     16  C   UNL     1       0.563  10.192  18.701  0.00  0.00    +0.000 C 
ATOM     17  C   UNL     1       1.279   9.032  18.029  0.00  0.00    +0.000 C 
ENDBRANCH   3  12
BRANCH   5  18
ATOM     18  C   UNL     1       2.417   3.573  17.608  0.00  0.00    +0.000 C 
ATOM     19  C   UNL     1       3.318   2.672  18.446  0.00  0.00    +0.000 C 
ATOM     20  C   UNL     1       2.618   2.644  19.788  0.00  0.00    +0.000 C 
ATOM     21  C   UNL     1       1.152   2.639  19.406  0.00  0.00    +0.000 C 
ATOM     22  N   UNL     1       1.047   3.280  18.089  0.00  0.00    +0.000 NA
ATOM     23  H   UNL     1       0.554   4.170  18.192  0.00  0.00    +0.000 HD
ENDBRANCH   5  18
TORSDOF 3
ENDMDL
MODEL 6
REMARK VINA RESULT:      -8.1      2.338      5.799
REMARK  Name = 
REMARK  3 active torsions:
REMARK  status: ('A' for Active; 'I' for Inactive)
REMARK    1  A    between atoms: C_4  and  N_5
REMARK    2  A    between atoms: C_7  and  C_8
REMARK    3  A    between atoms: C_15  and  C_16
REMARK                            x       y       z     vdW  Elec       q    Type
REMARK                         _______ _______ _______ _____ _____    ______ ____
ROOT
ATOM      1  N   UNL     1       3.877   5.727  18.549  0.00  0.00    +0.000 N 
ATOM      2  N   UNL     1       3.357   6.945  18.206  0.00  0.00    +0.000 NA
ATOM      3  C   UNL     1       2.355   7.097  19.076  0.00  0.00    +0.000 A 
ATOM      4  N   UNL     1       2.151   6.036  19.900  0.00  0.00    +0.000 NA
ATOM      5  C   UNL     1       3.108   5.188  19.576  0.00  0.00    +0.000 A 
ENDROOT
BRANCH   1   9
ATOM      6  C   UNL     1       7.237   4.402  16.359  0.00  0.00    +0.000 A 
ATOM      7  C   UNL     1       5.967   4.268  15.809  0.00  0.00    +0.000 A 
ATOM      8  C   UNL     1       4.842   4.641  16.545  0.00  0.00    +0.000 A 
ATOM      9  C   UNL     1       4.980   5.178  17.831  0.00  0.00    +0.000 A 
ATOM     10  C   UNL     1       6.255   5.229  18.411  0.00  0.00    +0.000 A 
ATOM     11  C   UNL     1       7.381   4.856  17.668  0.00  0.00    +0.000 A 
ENDBRANCH   1   9
BRANCH   3  12
ATOM     12  C   UNL     1       1.464   8.300  19.135  0.00  0.00    +0.000 C 
ATOM     13  C   UNL     1       2.025   9.447  18.276  0.00  0.00    +0.000 C 
ATOM     14  C   UNL     1       1.262  10.743  18.506  0.00  0.00    +0.000 C 
ATOM     15  O   UNL     1       1.241  11.079  19.891  0.00  0.00    +0.000 OA
ATOM     16  C   UNL     1       0.564  10.093  20.667  0.00  0.00    +0.000 C 
ATOM     17  C   UNL     1       1.282   8.757  20.588  0.00  0.00    +0.000 C 
ENDBRANCH   3  12
BRANCH   5  18
ATOM     18  C   UNL     1       3.281   3.837  20.207  0.00  0.00    +0.000 C 
ATOM     19  C   UNL     1       2.229   3.629  21.292  0.00  0.00    +0.000 C 
ATOM     20  C   UNL     1       1.041   3.099  20.517  0.00  0.00    +0.000 C 
ATOM     21  C   UNL     1       1.687   2.220  19.465  0.00  0.00    +0.000 C 
ATOM     22  N   UNL     1       3.042   2.739  19.243  0.00  0.00    +0.000 NA
ATOM     23  H   UNL     1       3.096   3.132  18.300  0.00  0.00    +0.000 HD
ENDBRANCH   5  18
TORSDOF 3
ENDMDL
MODEL 7
REMARK VINA RESULT:      -8.1      3.442      6.942
REMARK  Name = 
REMARK  3 active torsions:
REMARK  status: ('A' for Active; 'I' for Inactive)
REMARK    1  A    between atoms: C_4  and  N_5
REMARK    2  A    between atoms: C_7  and  C_8
REMARK    3  A    between atoms: C_15  and  C_16
REMARK                            x       y       z     vdW  Elec       q    Type
REMARK                         _______ _______ _______ _____ _____    ______ ____
ROOT
ATOM      1  N   UNL     1       5.290   4.369  15.715  0.00  0.00    +0.000 N 
ATOM      2  N   UNL     1       3.966   4.102  15.931  0.00  0.00    +0.000 NA
ATOM      3  C   UNL     1       3.849   4.233  17.256  0.00  0.00    +0.000 A 
ATOM      4  N   UNL     1       5.013   4.492  17.907  0.00  0.00    +0.000 NA
ATOM      5  C   UNL     1       5.908   4.587  16.943  0.00  0.00    +0.000 A 
ENDROOT
BRANCH   1   9
ATOM      6  C   UNL     1       7.025   3.924  11.889  0.00  0.00    +0.000 A 
ATOM      7  C   UNL     1       7.600   4.800  12.802  0.00  0.00    +0.000 A 
ATOM      8  C   UNL     1       7.004   5.008  14.047  0.00  0.00    +0.000 A 
ATOM      9  C   UNL     1       5.837   4.317  14.399  0.00  0.00    +0.000 A 
ATOM     10  C   UNL     1       5.216   3.503  13.441  0.00  0.00    +0.000 A 
ATOM     11  C   UNL     1       5.819   3.296  12.197  0.00  0.00    +0.000 A 
ENDBRANCH   1   9
BRANCH   3  12
ATOM     12  C   UNL     1       2.567   4.059  18.011  0.00  0.00    +0.000 C 
ATOM     13  C   UNL     1       2.721   4.507  19.476  0.00  0.00    +0.000 C 
ATOM     14  C   UNL     1       1.507   4.125  20.309  0.00  0.00    +0.000 C 
ATOM     15  O   UNL     1       1.241   2.729  20.205  0.00  0.00    +0.000 OA
ATOM     16  C   UNL     1       0.925   2.344  18.869  0.00  0.00    +0.000 C 
ATOM     17  C   UNL     1       2.101   2.599  17.941  0.00  0.00    +0.000 C 
ENDBRANCH   3  12
BRANCH   5  18
ATOM     18  C   UNL     1       7.368   4.844  17.176  0.00  0.00    +0.000 C 
ATOM     19  C   UNL     1       7.670   6.330  17.014  0.00  0.00    +0.000 C 
ATOM     20  C   UNL     1       7.366   6.891  18.388  0.00  0.00    +0.000 C 
ATOM     21  C   UNL     1       7.846   5.793  19.315  0.00  0.00    +0.000 C 
ATOM     22  N   UNL     1       7.771   4.532  18.567  0.00  0.00    +0.000 NA
ATOM     23  H   UNL     1       7.044   3.944  18.980  0.00  0.00    +0.000 HD
ENDBRANCH   5  18
TORSDOF 3
ENDMDL
MODEL 8
REMARK VINA RESULT:      -8.0      2.426      5.955
REMARK  Name = 
REMARK  3 active torsions:
REMARK  status: ('A' for Active; 'I' for Inactive)
REMARK    1  A    between atoms: C_4  and  N_5
REMARK    2  A    between atoms: C_7  and  C_8
REMARK    3  A    between atoms: C_15  and  C_16
REMARK                            x       y       z     vdW  Elec       q    Type
REMARK                         _______ _______ _______ _____ _____    ______ ____
ROOT
ATOM      1  N   UNL     1       3.832   5.835  18.876  0.00  0.00    +0.000 N 
ATOM      2  N   UNL     1       3.254   7.069  18.758  0.00  0.00    +0.000 NA
ATOM      3  C   UNL     1       2.247   7.011  19.634  0.00  0.00    +0.000 A 
ATOM      4  N   UNL     1       2.096   5.809  20.249  0.00  0.00    +0.000 NA
ATOM      5  C   UNL     1       3.093   5.081  19.782  0.00  0.00    +0.000 A 
ENDROOT
BRANCH   1   9
ATOM      6  C   UNL     1       7.081   4.477  16.543  0.00  0.00    +0.000 A 
ATOM      7  C   UNL     1       7.315   4.954  17.828  0.00  0.00    +0.000 A 
ATOM      8  C   UNL     1       6.263   5.465  18.588  0.00  0.00    +0.000 A 
ATOM      9  C   UNL     1       4.959   5.480  18.077  0.00  0.00    +0.000 A 
ATOM     10  C   UNL     1       4.746   5.080  16.750  0.00  0.00    +0.000 A 
ATOM     11  C   UNL     1       5.804   4.565  15.993  0.00  0.00    +0.000 A 
ENDBRANCH   1   9
BRANCH   3  12
ATOM     12  C   UNL     1       1.300   8.139  19.908  0.00  0.00    +0.000 C 
ATOM     13  C   UNL     1       1.548   9.316  18.947  0.00  0.00    +0.000 C 
ATOM     14  C   UNL     1       0.758  10.549  19.357  0.00  0.00    +0.000 C 
ATOM     15  O   UNL     1       1.033  10.900  20.710  0.00  0.00    +0.000 OA
ATOM     16  C   UNL     1       0.639   9.874  21.618  0.00  0.00    +0.000 C 
ATOM     17  C   UNL     1       1.426   8.599  21.365  0.00  0.00    +0.000 C 
ENDBRANCH   3  12
BRANCH   5  18
ATOM     18  C   UNL     1       3.331   3.647  20.156  0.00  0.00    +0.000 C 
ATOM     19  C   UNL     1       2.393   3.239  21.287  0.00  0.00    +0.000 C 
ATOM     20  C   UNL     1       1.135   2.823  20.553  0.00  0.00    +0.000 C 
ATOM     21  C   UNL     1       1.677   2.146  19.310  0.00  0.00    +0.000 C 
ATOM     22  N   UNL     1       3.002   2.722  19.047  0.00  0.00    +0.000 NA
ATOM     23  H   UNL     1       2.960   3.268  18.184  0.00  0.00    +0.000 HD
ENDBRANCH   5  18
TORSDOF 3
ENDMDL
MODEL 9
REMARK VINA RESULT:      -8.0      0.945      1.636
REMARK  Name = 
REMARK  3 active torsions:
REMARK  status: ('A' for Active; 'I' for Inactive)
REMARK    1  A    between atoms: C_4  and  N_5
REMARK    2  A    between atoms: C_7  and  C_8
REMARK    3  A    between atoms: C_15  and  C_16
REMARK                            x       y       z     vdW  Elec       q    Type
REMARK                         _______ _______ _______ _____ _____    ______ ____
ROOT
ATOM      1  N   UNL     1       2.381   7.042  19.219  0.00  0.00    +0.000 N 
ATOM      2  N   UNL     1       3.279   7.277  18.214  0.00  0.00    +0.000 NA
ATOM      3  C   UNL     1       3.753   6.057  17.947  0.00  0.00    +0.000 A 
ATOM      4  N   UNL     1       3.277   5.072  18.753  0.00  0.00    +0.000 NA
ATOM      5  C   UNL     1       2.414   5.688  19.539  0.00  0.00    +0.000 A 
ENDROOT
BRANCH   1   9
ATOM      6  C   UNL     1       0.499  10.396  20.966  0.00  0.00    +0.000 A 
ATOM      7  C   UNL     1       0.769   9.280  21.749  0.00  0.00    +0.000 A 
ATOM      8  C   UNL     1       1.331   8.140  21.174  0.00  0.00    +0.000 A 
ATOM      9  C   UNL     1       1.654   8.116  19.811  0.00  0.00    +0.000 A 
ATOM     10  C   UNL     1       1.298   9.212  19.012  0.00  0.00    +0.000 A 
ATOM     11  C   UNL     1       0.737  10.354  19.593  0.00  0.00    +0.000 A 
ENDBRANCH   1   9
BRANCH   3  12
ATOM     12  C   UNL     1       4.771   5.760  16.889  0.00  0.00    +0.000 C 
ATOM     13  C   UNL     1       4.900   4.244  16.654  0.00  0.00    +0.000 C 
ATOM     14  C   UNL     1       6.083   3.915  15.757  0.00  0.00    +0.000 C 
ATOM     15  O   UNL     1       7.285   4.476  16.278  0.00  0.00    +0.000 OA
ATOM     16  C   UNL     1       7.229   5.899  16.331  0.00  0.00    +0.000 C 
ATOM     17  C   UNL     1       6.128   6.362  17.271  0.00  0.00    +0.000 C 
ENDBRANCH   3  12
BRANCH   5  18
ATOM     18  C   UNL     1       1.641   5.009  20.631  0.00  0.00    +0.000 C 
ATOM     19  C   UNL     1       0.809   3.869  20.051  0.00  0.00    +0.000 C 
ATOM     20  C   UNL     1       1.783   2.709  20.038  0.00  0.00    +0.000 C 
ATOM     21  C   UNL     1       2.576   2.919  21.312  0.00  0.00    +0.000 C 
ATOM     22  N   UNL     1       2.531   4.354  21.617  0.00  0.00    +0.000 NA
ATOM     23  H   UNL     1       3.469   4.746  21.502  0.00  0.00    +0.000 HD
ENDBRANCH   5  18
TORSDOF 3
ENDMDL
