MODEL 1
REMARK VINA RESULT:      -7.9      0.000      0.000
REMARK  Name = 
REMARK  6 active torsions:
REMARK  status: ('A' for Active; 'I' for Inactive)
REMARK    1  A    between atoms: C_2  and  C_3
REMARK    2  A    between atoms: C_3  and  C_4
REMARK    3  A    between atoms: C_3  and  C_13
REMARK    4  A    between atoms: N_6  and  C_7
REMARK    5  A    between atoms: C_22  and  N_23
REMARK    6  A    between atoms: N_26  and  C_27
REMARK                            x       y       z     vdW  Elec       q    Type
REMARK                         _______ _______ _______ _____ _____    ______ ____
ROOT
ATOM      1  C   UNL     1      -0.457  10.682  19.773  0.00  0.00    +0.000 A 
ATOM      2  N   UNL     1      -1.608  11.415  19.701  0.00  0.00    +0.000 NA
ATOM      3  C   UNL     1      -2.419  11.211  18.662  0.00  0.00    +0.000 A 
ATOM      4  C   UNL     1      -3.600  11.948  18.570  0.00  0.00    +0.000 A 
ATOM      5  C   UNL     1      -4.485  11.752  17.516  0.00  0.00    +0.000 A 
ATOM      6  C   UNL     1      -4.186  10.803  16.546  0.00  0.00    +0.000 A 
ATOM      7  C   UNL     1      -2.999  10.074  16.636  0.00  0.00    +0.000 A 
ATOM      8  C   UNL     1      -2.089  10.271  17.676  0.00  0.00    +0.000 A 
ATOM      9  N   UNL     1      -0.920   9.587  17.730  0.00  0.00    +0.000 NA
ATOM     10  C   UNL     1      -0.047   9.800  18.749  0.00  0.00    +0.000 A 
ENDROOT
BRANCH  10  11
ATOM     11  N   UNL     1       1.141   9.094  18.723  0.00  0.00    +0.000 N 
ATOM     12  C   UNL     1       1.709   8.246  19.782  0.00  0.00    +0.000 C 
ATOM     13  C   UNL     1       2.333   6.990  19.153  0.00  0.00    +0.000 C 
ATOM     14  N   UNL     1       3.411   7.378  18.238  0.00  0.00    +0.000 N 
ATOM     15  C   UNL     1       3.010   8.405  17.234  0.00  0.00    +0.000 C 
ATOM     16  C   UNL     1       2.268   9.604  17.899  0.00  0.00    +0.000 C 
BRANCH  14  17
ATOM     17  C   UNL     1       4.452   6.488  18.016  0.00  0.00    +0.000 A 
ATOM     18  C   UNL     1       4.842   5.522  18.975  0.00  0.00    +0.000 A 
ATOM     19  C   UNL     1       5.987   4.744  18.829  0.00  0.00    +0.000 A 
ATOM     20  C   UNL     1       6.765   4.891  17.698  0.00  0.00    +0.000 A 
ATOM     21  F   UNL     1       7.886   4.175  17.563  0.00  0.00    +0.000 F 
ATOM     22  C   UNL     1       6.397   5.789  16.704  0.00  0.00    +0.000 A 
ATOM     23  C   UNL     1       5.253   6.572  16.865  0.00  0.00    +0.000 A 
ENDBRANCH  14  17
ENDBRANCH  10  11
BRANCH   1  24
ATOM     24  C   UNL     1       0.421  11.003  20.955  0.00  0.00    +0.000 C 
BRANCH  24  25
ATOM     25  C   UNL     1      -0.328  11.314  22.256  0.00  0.00    +0.000 C 
ATOM     26  O   UNL     1      -0.273  10.530  23.207  0.00  0.00    +0.000 OA
ATOM     27  N   UNL     1      -1.049  12.483  22.336  0.00  0.00    +0.000 N 
ATOM     28  H   UNL     1      -1.082  13.067  21.506  0.00  0.00    +0.000 HD
BRANCH  27  29
ATOM     29  C   UNL     1      -1.790  12.910  23.528  0.00  0.00    +0.000 C 
ATOM     30  C   UNL     1      -1.871  14.438  23.599  0.00  0.00    +0.000 C 
ATOM     31  C   UNL     1      -2.629  14.997  22.395  0.00  0.00    +0.000 C 
ATOM     32  C   UNL     1      -4.027  14.392  22.264  0.00  0.00    +0.000 C 
ATOM     33  C   UNL     1      -4.055  12.866  22.372  0.00  0.00    +0.000 C 
ATOM     34  C   UNL     1      -3.214  12.338  23.536  0.00  0.00    +0.000 C 
ENDBRANCH  27  29
ENDBRANCH  24  25
BRANCH  24  36
ATOM     35  N   UNL     1       2.028  13.108  20.110  0.00  0.00    +0.000 NA
ATOM     36  C   UNL     1       1.300  12.153  20.493  0.00  0.00    +0.000 C 
ENDBRANCH  24  36
ENDBRANCH   1  24
TORSDOF 6
ENDMDL
MODEL 2
REMARK VINA RESULT:      -7.9      2.854      4.819
REMARK  Name = 
REMARK  6 active torsions:
REMARK  status: ('A' for Active; 'I' for Inactive)
REMARK    1  A    between atoms: C_2  and  C_3
REMARK    2  A    between atoms: C_3  and  C_4
REMARK    3  A    between atoms: C_3  and  C_13
REMARK    4  A    between atoms: N_6  and  C_7
REMARK    5  A    between atoms: C_22  and  N_23
REMARK    6  A    between atoms: N_26  and  C_27
REMARK                            x       y       z     vdW  Elec       q    Type
REMARK                         _______ _______ _______ _____ _____    ______ ____
ROOT
ATOM      1  C   UNL     1      -0.508  12.405  19.124  0.00  0.00    +0.000 A 
ATOM      2  N   UNL     1      -0.650  13.764  19.098  0.00  0.00    +0.000 NA
ATOM      3  C   UNL     1       0.425  14.504  18.819  0.00  0.00    +0.000 A 
ATOM      4  C   UNL     1       0.301  15.893  18.787  0.00  0.00    +0.000 A 
ATOM      5  C   UNL     1       1.389  16.701  18.479  0.00  0.00    +0.000 A 
ATOM      6  C   UNL     1       2.614  16.110  18.195  0.00  0.00    +0.000 A 
ATOM      7  C   UNL     1       2.737  14.720  18.238  0.00  0.00    +0.000 A 
ATOM      8  C   UNL     1       1.661  13.894  18.565  0.00  0.00    +0.000 A 
ATOM      9  N   UNL     1       1.803  12.548  18.643  0.00  0.00    +0.000 NA
ATOM     10  C   UNL     1       0.741  11.765  18.969  0.00  0.00    +0.000 A 
ENDROOT
BRANCH  10  11
ATOM     11  N   UNL     1       0.964  10.403  19.065  0.00  0.00    +0.000 N 
ATOM     12  C   UNL     1       1.085   9.429  17.971  0.00  0.00    +0.000 C 
ATOM     13  C   UNL     1       2.204   8.428  18.297  0.00  0.00    +0.000 C 
ATOM     14  N   UNL     1       1.877   7.705  19.530  0.00  0.00    +0.000 N 
ATOM     15  C   UNL     1       1.526   8.593  20.675  0.00  0.00    +0.000 C 
ATOM     16  C   UNL     1       0.481   9.675  20.268  0.00  0.00    +0.000 C 
BRANCH  14  17
ATOM     17  C   UNL     1       2.384   6.426  19.708  0.00  0.00    +0.000 A 
ATOM     18  C   UNL     1       3.404   5.891  18.884  0.00  0.00    +0.000 A 
ATOM     19  C   UNL     1       3.795   4.557  18.950  0.00  0.00    +0.000 A 
ATOM     20  C   UNL     1       3.194   3.720  19.869  0.00  0.00    +0.000 A 
ATOM     21  F   UNL     1       3.536   2.429  19.916  0.00  0.00    +0.000 F 
ATOM     22  C   UNL     1       2.224   4.208  20.735  0.00  0.00    +0.000 A 
ATOM     23  C   UNL     1       1.831   5.545  20.653  0.00  0.00    +0.000 A 
ENDBRANCH  14  17
ENDBRANCH  10  11
BRANCH   1  24
ATOM     24  C   UNL     1      -1.759  11.648  19.486  0.00  0.00    +0.000 C 
BRANCH  24  25
ATOM     25  C   UNL     1      -2.903  11.759  18.472  0.00  0.00    +0.000 C 
ATOM     26  O   UNL     1      -2.702  11.514  17.279  0.00  0.00    +0.000 OA
ATOM     27  N   UNL     1      -4.149  12.128  18.923  0.00  0.00    +0.000 N 
ATOM     28  H   UNL     1      -4.239  12.349  19.911  0.00  0.00    +0.000 HD
BRANCH  27  29
ATOM     29  C   UNL     1      -5.332  12.248  18.064  0.00  0.00    +0.000 C 
ATOM     30  C   UNL     1      -6.140  10.946  18.064  0.00  0.00    +0.000 C 
ATOM     31  C   UNL     1      -6.655  10.630  19.468  0.00  0.00    +0.000 C 
ATOM     32  C   UNL     1      -7.485  11.775  20.049  0.00  0.00    +0.000 C 
ATOM     33  C   UNL     1      -6.824  13.148  19.916  0.00  0.00    +0.000 C 
ATOM     34  C   UNL     1      -6.242  13.396  18.523  0.00  0.00    +0.000 C 
ENDBRANCH  27  29
ENDBRANCH  24  25
BRANCH  24  36
ATOM     35  N   UNL     1      -2.465  12.584  22.007  0.00  0.00    +0.000 NA
ATOM     36  C   UNL     1      -2.145  12.159  20.864  0.00  0.00    +0.000 C 
ENDBRANCH  24  36
ENDBRANCH   1  24
TORSDOF 6
ENDMDL
MODEL 3
REMARK VINA RESULT:      -7.5      3.018      4.956
REMARK  Name = 
REMARK  6 active torsions:
REMARK  status: ('A' for Active; 'I' for Inactive)
REMARK    1  A    between atoms: C_2  and  C_3
REMARK    2  A    between atoms: C_3  and  C_4
REMARK    3  A    between atoms: C_3  and  C_13
REMARK    4  A    between atoms: N_6  and  C_7
REMARK    5  A    between atoms: C_22  and  N_23
REMARK    6  A    between atoms: N_26  and  C_27
REMARK                            x       y       z     vdW  Elec       q    Type
REMARK                         _______ _______ _______ _____ _____    ______ ____
ROOT
ATOM      1  C   UNL     1      -0.640  12.857  19.170  0.00  0.00    +0.000 A 
ATOM      2  N   UNL     1      -1.053  14.157  19.083  0.00  0.00    +0.000 NA
ATOM      3  C   UNL     1      -0.132  15.095  18.855  0.00  0.00    +0.000 A 
ATOM      4  C   UNL     1      -0.533  16.428  18.762  0.00  0.00    +0.000 A 
ATOM      5  C   UNL     1       0.390  17.435  18.503  0.00  0.00    +0.000 A 
ATOM      6  C   UNL     1       1.728  17.102  18.329  0.00  0.00    +0.000 A 
ATOM      7  C   UNL     1       2.126  15.768  18.432  0.00  0.00    +0.000 A 
ATOM      8  C   UNL     1       1.218  14.746  18.712  0.00  0.00    +0.000 A 
ATOM      9  N   UNL     1       1.623  13.460  18.851  0.00  0.00    +0.000 NA
ATOM     10  C   UNL     1       0.721  12.483  19.129  0.00  0.00    +0.000 A 
ENDROOT
BRANCH  10  11
ATOM     11  N   UNL     1       1.207  11.199  19.292  0.00  0.00    +0.000 N 
ATOM     12  C   UNL     1       1.427  10.471  20.550  0.00  0.00    +0.000 C 
ATOM     13  C   UNL     1       0.999   9.005  20.376  0.00  0.00    +0.000 C 
ATOM     14  N   UNL     1       1.805   8.376  19.326  0.00  0.00    +0.000 N 
ATOM     15  C   UNL     1       1.832   9.139  18.045  0.00  0.00    +0.000 C 
ATOM     16  C   UNL     1       2.147  10.648  18.280  0.00  0.00    +0.000 C 
BRANCH  14  17
ATOM     17  C   UNL     1       2.019   7.006  19.379  0.00  0.00    +0.000 A 
ATOM     18  C   UNL     1       2.423   6.256  18.247  0.00  0.00    +0.000 A 
ATOM     19  C   UNL     1       2.475   4.865  18.252  0.00  0.00    +0.000 A 
ATOM     20  C   UNL     1       2.149   4.180  19.406  0.00  0.00    +0.000 A 
ATOM     21  F   UNL     1       2.160   2.843  19.411  0.00  0.00    +0.000 F 
ATOM     22  C   UNL     1       1.796   4.871  20.557  0.00  0.00    +0.000 A 
ATOM     23  C   UNL     1       1.736   6.265  20.539  0.00  0.00    +0.000 A 
ENDBRANCH  14  17
ENDBRANCH  10  11
BRANCH   1  24
ATOM     24  C   UNL     1      -1.736  11.867  19.470  0.00  0.00    +0.000 C 
BRANCH  24  25
ATOM     25  C   UNL     1      -2.848  11.789  18.418  0.00  0.00    +0.000 C 
ATOM     26  O   UNL     1      -2.579  11.494  17.250  0.00  0.00    +0.000 OA
ATOM     27  N   UNL     1      -4.142  12.047  18.808  0.00  0.00    +0.000 N 
ATOM     28  H   UNL     1      -4.291  12.318  19.776  0.00  0.00    +0.000 HD
BRANCH  27  29
ATOM     29  C   UNL     1      -5.299  11.984  17.908  0.00  0.00    +0.000 C 
ATOM     30  C   UNL     1      -6.195  10.791  18.256  0.00  0.00    +0.000 C 
ATOM     31  C   UNL     1      -6.754  10.929  19.672  0.00  0.00    +0.000 C 
ATOM     32  C   UNL     1      -7.513  12.242  19.866  0.00  0.00    +0.000 C 
ATOM     33  C   UNL     1      -6.756  13.474  19.365  0.00  0.00    +0.000 C 
ATOM     34  C   UNL     1      -6.135  13.269  17.983  0.00  0.00    +0.000 C 
ENDBRANCH  27  29
ENDBRANCH  24  25
BRANCH  24  36
ATOM     35  N   UNL     1      -2.685  12.581  21.984  0.00  0.00    +0.000 NA
ATOM     36  C   UNL     1      -2.255  12.257  20.844  0.00  0.00    +0.000 C 
ENDBRANCH  24  36
ENDBRANCH   1  24
TORSDOF 6
ENDMDL
MODEL 4
REMARK VINA RESULT:      -7.4      7.271      9.826
REMARK  Name = 
REMARK  6 active torsions:
REMARK  status: ('A' for Active; 'I' for Inactive)
REMARK    1  A    between atoms: C_2  and  C_3
REMARK    2  A    between atoms: C_3  and  C_4
REMARK    3  A    between atoms: C_3  and  C_13
REMARK    4  A    between atoms: N_6  and  C_7
REMARK    5  A    between atoms: C_22  and  N_23
REMARK    6  A    between atoms: N_26  and  C_27
REMARK                            x       y       z     vdW  Elec       q    Type
REMARK                         _______ _______ _______ _____ _____    ______ ____
ROOT
ATOM      1  C   UNL     1       5.845   5.461  16.972  0.00  0.00    +0.000 A 
ATOM      2  N   UNL     1       5.346   4.544  16.091  0.00  0.00    +0.000 NA
ATOM      3  C   UNL     1       5.927   4.439  14.895  0.00  0.00    +0.000 A 
ATOM      4  C   UNL     1       5.432   3.509  13.981  0.00  0.00    +0.000 A 
ATOM      5  C   UNL     1       6.022   3.351  12.731  0.00  0.00    +0.000 A 
ATOM      6  C   UNL     1       7.123   4.130  12.397  0.00  0.00    +0.000 A 
ATOM      7  C   UNL     1       7.609   5.066  13.311  0.00  0.00    +0.000 A 
ATOM      8  C   UNL     1       7.018   5.253  14.561  0.00  0.00    +0.000 A 
ATOM      9  N   UNL     1       7.474   6.195  15.424  0.00  0.00    +0.000 NA
ATOM     10  C   UNL     1       6.878   6.362  16.633  0.00  0.00    +0.000 A 
ENDROOT
BRANCH  10  11
ATOM     11  N   UNL     1       7.372   7.364  17.449  0.00  0.00    +0.000 N 
ATOM     12  C   UNL     1       8.009   7.222  18.767  0.00  0.00    +0.000 C 
ATOM     13  C   UNL     1       9.193   8.196  18.871  0.00  0.00    +0.000 C 
ATOM     14  N   UNL     1       8.714   9.574  18.731  0.00  0.00    +0.000 N 
ATOM     15  C   UNL     1       7.868   9.800  17.524  0.00  0.00    +0.000 C 
ATOM     16  C   UNL     1       6.756   8.715  17.387  0.00  0.00    +0.000 C 
BRANCH  14  17
ATOM     17  C   UNL     1       9.431  10.595  19.338  0.00  0.00    +0.000 A 
ATOM     18  C   UNL     1       9.188  11.005  20.672  0.00  0.00    +0.000 A 
ATOM     19  C   UNL     1       9.783  12.134  21.227  0.00  0.00    +0.000 A 
ATOM     20  C   UNL     1      10.666  12.875  20.468  0.00  0.00    +0.000 A 
ATOM     21  F   UNL     1      11.216  13.981  20.979  0.00  0.00    +0.000 F 
ATOM     22  C   UNL     1      10.977  12.486  19.172  0.00  0.00    +0.000 A 
ATOM     23  C   UNL     1      10.367  11.359  18.621  0.00  0.00    +0.000 A 
ENDBRANCH  14  17
ENDBRANCH  10  11
BRANCH   1  24
ATOM     24  C   UNL     1       5.106   5.543  18.282  0.00  0.00    +0.000 C 
BRANCH  24  25
ATOM     25  C   UNL     1       4.811   4.194  18.949  0.00  0.00    +0.000 C 
ATOM     26  O   UNL     1       5.678   3.631  19.624  0.00  0.00    +0.000 OA
ATOM     27  N   UNL     1       3.564   3.636  18.781  0.00  0.00    +0.000 N 
ATOM     28  H   UNL     1       2.909   4.134  18.185  0.00  0.00    +0.000 HD
BRANCH  27  29
ATOM     29  C   UNL     1       3.146   2.365  19.382  0.00  0.00    +0.000 C 
ATOM     30  C   UNL     1       2.926   2.523  20.890  0.00  0.00    +0.000 C 
ATOM     31  C   UNL     1       1.807   3.524  21.172  0.00  0.00    +0.000 C 
ATOM     32  C   UNL     1       0.500   3.139  20.479  0.00  0.00    +0.000 C 
ATOM     33  C   UNL     1       0.666   2.781  19.001  0.00  0.00    +0.000 C 
ATOM     34  C   UNL     1       1.849   1.846  18.745  0.00  0.00    +0.000 C 
ENDBRANCH  27  29
ENDBRANCH  24  25
BRANCH  24  36
ATOM     35  N   UNL     1       2.800   6.990  17.722  0.00  0.00    +0.000 NA
ATOM     36  C   UNL     1       3.846   6.334  17.976  0.00  0.00    +0.000 C 
ENDBRANCH  24  36
ENDBRANCH   1  24
TORSDOF 6
ENDMDL
MODEL 5
REMARK VINA RESULT:      -7.2      2.564      4.249
REMARK  Name = 
REMARK  6 active torsions:
REMARK  status: ('A' for Active; 'I' for Inactive)
REMARK    1  A    between atoms: C_2  and  C_3
REMARK    2  A    between atoms: C_3  and  C_4
REMARK    3  A    between atoms: C_3  and  C_13
REMARK    4  A    between atoms: N_6  and  C_7
REMARK    5  A    between atoms: C_22  and  N_23
REMARK    6  A    between atoms: N_26  and  C_27
REMARK                            x       y       z     vdW  Elec       q    Type
REMARK                         _______ _______ _______ _____ _____    ______ ____
ROOT
ATOM      1  C   UNL     1       0.072  12.258  19.564  0.00  0.00    +0.000 A 
ATOM      2  N   UNL     1       0.046  13.624  19.605  0.00  0.00    +0.000 NA
ATOM      3  C   UNL     1       1.076  14.288  19.077  0.00  0.00    +0.000 A 
ATOM      4  C   UNL     1       1.069  15.682  19.108  0.00  0.00    +0.000 A 
ATOM      5  C   UNL     1       2.110  16.415  18.549  0.00  0.00    +0.000 A 
ATOM      6  C   UNL     1       3.166  15.743  17.947  0.00  0.00    +0.000 A 
ATOM      7  C   UNL     1       3.174  14.347  17.926  0.00  0.00    +0.000 A 
ATOM      8  C   UNL     1       2.149  13.595  18.500  0.00  0.00    +0.000 A 
ATOM      9  N   UNL     1       2.188  12.239  18.510  0.00  0.00    +0.000 NA
ATOM     10  C   UNL     1       1.180  11.529  19.080  0.00  0.00    +0.000 A 
ENDROOT
BRANCH  10  11
ATOM     11  N   UNL     1       1.301  10.151  19.086  0.00  0.00    +0.000 N 
ATOM     12  C   UNL     1       1.329   9.243  17.930  0.00  0.00    +0.000 C 
ATOM     13  C   UNL     1       2.374   8.142  18.168  0.00  0.00    +0.000 C 
ATOM     14  N   UNL     1       2.015   7.368  19.360  0.00  0.00    +0.000 N 
ATOM     15  C   UNL     1       1.752   8.204  20.567  0.00  0.00    +0.000 C 
ATOM     16  C   UNL     1       0.785   9.385  20.251  0.00  0.00    +0.000 C 
BRANCH  14  17
ATOM     17  C   UNL     1       2.426   6.046  19.447  0.00  0.00    +0.000 A 
ATOM     18  C   UNL     1       3.140   5.402  18.406  0.00  0.00    +0.000 A 
ATOM     19  C   UNL     1       3.406   4.036  18.417  0.00  0.00    +0.000 A 
ATOM     20  C   UNL     1       2.988   3.274  19.488  0.00  0.00    +0.000 A 
ATOM     21  F   UNL     1       3.206   1.955  19.492  0.00  0.00    +0.000 F 
ATOM     22  C   UNL     1       2.329   3.866  20.558  0.00  0.00    +0.000 A 
ATOM     23  C   UNL     1       2.058   5.235  20.533  0.00  0.00    +0.000 A 
ENDBRANCH  14  17
ENDBRANCH  10  11
BRANCH   1  24
ATOM     24  C   UNL     1      -1.107  11.586  20.218  0.00  0.00    +0.000 C 
BRANCH  24  25
ATOM     25  C   UNL     1      -2.478  12.152  19.828  0.00  0.00    +0.000 C 
ATOM     26  O   UNL     1      -2.986  11.855  18.743  0.00  0.00    +0.000 OA
ATOM     27  N   UNL     1      -3.122  12.986  20.712  0.00  0.00    +0.000 N 
ATOM     28  H   UNL     1      -2.633  13.218  21.572  0.00  0.00    +0.000 HD
BRANCH  27  29
ATOM     29  C   UNL     1      -4.444  13.574  20.472  0.00  0.00    +0.000 C 
ATOM     30  C   UNL     1      -5.521  12.837  21.274  0.00  0.00    +0.000 C 
ATOM     31  C   UNL     1      -5.259  12.960  22.774  0.00  0.00    +0.000 C 
ATOM     32  C   UNL     1      -5.161  14.418  23.224  0.00  0.00    +0.000 C 
ATOM     33  C   UNL     1      -4.241  15.275  22.352  0.00  0.00    +0.000 C 
ATOM     34  C   UNL     1      -4.471  15.061  20.856  0.00  0.00    +0.000 C 
ENDBRANCH  27  29
ENDBRANCH  24  25
BRANCH  24  36
ATOM     35  N   UNL     1      -0.613  11.759  22.949  0.00  0.00    +0.000 NA
ATOM     36  C   UNL     1      -0.837  11.680  21.711  0.00  0.00    +0.000 C 
ENDBRANCH  24  36
ENDBRANCH   1  24
TORSDOF 6
ENDMDL
MODEL 6
REMARK VINA RESULT:      -7.0      1.132      1.209
REMARK  Name = 
REMARK  6 active torsions:
REMARK  status: ('A' for Active; 'I' for Inactive)
REMARK    1  A    between atoms: C_2  and  C_3
REMARK    2  A    between atoms: C_3  and  C_4
REMARK    3  A    between atoms: C_3  and  C_13
REMARK    4  A    between atoms: N_6  and  C_7
REMARK    5  A    between atoms: C_22  and  N_23
REMARK    6  A    between atoms: N_26  and  C_27
REMARK                            x       y       z     vdW  Elec       q    Type
REMARK                         _______ _______ _______ _____ _____    ______ ____
ROOT
ATOM      1  C   UNL     1      -0.901  11.576  19.953  0.00  0.00    +0.000 A 
ATOM      2  N   UNL     1      -2.041  12.328  19.902  0.00  0.00    +0.000 NA
ATOM      3  C   UNL     1      -3.039  11.905  19.123  0.00  0.00    +0.000 A 
ATOM      4  C   UNL     1      -4.211  12.657  19.057  0.00  0.00    +0.000 A 
ATOM      5  C   UNL     1      -5.283  12.243  18.276  0.00  0.00    +0.000 A 
ATOM      6  C   UNL     1      -5.182  11.057  17.558  0.00  0.00    +0.000 A 
ATOM      7  C   UNL     1      -4.003  10.312  17.619  0.00  0.00    +0.000 A 
ATOM      8  C   UNL     1      -2.909  10.723  18.381  0.00  0.00    +0.000 A 
ATOM      9  N   UNL     1      -1.755  10.011  18.400  0.00  0.00    +0.000 NA
ATOM     10  C   UNL     1      -0.701  10.435  19.146  0.00  0.00    +0.000 A 
ENDROOT
BRANCH  10  11
ATOM     11  N   UNL     1       0.457   9.681  19.091  0.00  0.00    +0.000 N 
ATOM     12  C   UNL     1       1.172   9.044  20.207  0.00  0.00    +0.000 C 
ATOM     13  C   UNL     1       1.668   7.656  19.773  0.00  0.00    +0.000 C 
ATOM     14  N   UNL     1       2.592   7.792  18.644  0.00  0.00    +0.000 N 
ATOM     15  C   UNL     1       2.054   8.606  17.516  0.00  0.00    +0.000 C 
ATOM     16  C   UNL     1       1.446   9.952  18.015  0.00  0.00    +0.000 C 
BRANCH  14  17
ATOM     17  C   UNL     1       3.571   6.825  18.462  0.00  0.00    +0.000 A 
ATOM     18  C   UNL     1       3.793   5.784  19.396  0.00  0.00    +0.000 A 
ATOM     19  C   UNL     1       4.877   4.916  19.303  0.00  0.00    +0.000 A 
ATOM     20  C   UNL     1       5.760   5.046  18.251  0.00  0.00    +0.000 A 
ATOM     21  F   UNL     1       6.825   4.241  18.171  0.00  0.00    +0.000 F 
ATOM     22  C   UNL     1       5.558   6.018  17.279  0.00  0.00    +0.000 A 
ATOM     23  C   UNL     1       4.473   6.891  17.387  0.00  0.00    +0.000 A 
ENDBRANCH  14  17
ENDBRANCH  10  11
BRANCH   1  24
ATOM     24  C   UNL     1       0.189  12.144  20.823  0.00  0.00    +0.000 C 
BRANCH  24  25
ATOM     25  C   UNL     1      -0.296  12.978  22.015  0.00  0.00    +0.000 C 
ATOM     26  O   UNL     1       0.444  13.823  22.525  0.00  0.00    +0.000 OA
ATOM     27  N   UNL     1      -1.569  12.764  22.492  0.00  0.00    +0.000 N 
ATOM     28  H   UNL     1      -2.114  12.029  22.051  0.00  0.00    +0.000 HD
BRANCH  27  29
ATOM     29  C   UNL     1      -2.163  13.508  23.609  0.00  0.00    +0.000 C 
ATOM     30  C   UNL     1      -2.437  14.961  23.210  0.00  0.00    +0.000 C 
ATOM     31  C   UNL     1      -3.443  15.027  22.062  0.00  0.00    +0.000 C 
ATOM     32  C   UNL     1      -4.751  14.309  22.400  0.00  0.00    +0.000 C 
ATOM     33  C   UNL     1      -4.555  12.910  22.986  0.00  0.00    +0.000 C 
ATOM     34  C   UNL     1      -3.478  12.865  24.071  0.00  0.00    +0.000 C 
ENDBRANCH  27  29
ENDBRANCH  24  25
BRANCH  24  36
ATOM     35  N   UNL     1       1.813  13.593  19.092  0.00  0.00    +0.000 NA
ATOM     36  C   UNL     1       1.077  12.936  19.877  0.00  0.00    +0.000 C 
ENDBRANCH  24  36
ENDBRANCH   1  24
TORSDOF 6
ENDMDL
MODEL 7
REMARK VINA RESULT:      -7.0      2.998      5.330
REMARK  Name = 
REMARK  6 active torsions:
REMARK  status: ('A' for Active; 'I' for Inactive)
REMARK    1  A    between atoms: C_2  and  C_3
REMARK    2  A    between atoms: C_3  and  C_4
REMARK    3  A    between atoms: C_3  and  C_13
REMARK    4  A    between atoms: N_6  and  C_7
REMARK    5  A    between atoms: C_22  and  N_23
REMARK    6  A    between atoms: N_26  and  C_27
REMARK                            x       y       z     vdW  Elec       q    Type
REMARK                         _______ _______ _______ _____ _____    ______ ____
ROOT
ATOM      1  C   UNL     1      -0.331  12.977  21.388  0.00  0.00    +0.000 A 
ATOM      2  N   UNL     1      -0.941  14.109  21.851  0.00  0.00    +0.000 NA
ATOM      3  C   UNL     1      -1.936  13.974  22.730  0.00  0.00    +0.000 A 
ATOM      4  C   UNL     1      -2.571  15.117  23.214  0.00  0.00    +0.000 A 
ATOM      5  C   UNL     1      -3.597  15.024  24.148  0.00  0.00    +0.000 A 
ATOM      6  C   UNL     1      -3.986  13.771  24.605  0.00  0.00    +0.000 A 
ATOM      7  C   UNL     1      -3.355  12.628  24.110  0.00  0.00    +0.000 A 
ATOM      8  C   UNL     1      -2.337  12.701  23.158  0.00  0.00    +0.000 A 
ATOM      9  N   UNL     1      -1.760  11.582  22.655  0.00  0.00    +0.000 NA
ATOM     10  C   UNL     1      -0.775  11.679  21.724  0.00  0.00    +0.000 A 
ENDROOT
BRANCH  10  11
ATOM     11  N   UNL     1      -0.254  10.498  21.228  0.00  0.00    +0.000 N 
ATOM     12  C   UNL     1      -0.423   9.934  19.880  0.00  0.00    +0.000 C 
ATOM     13  C   UNL     1       0.907   9.325  19.410  0.00  0.00    +0.000 C 
ATOM     14  N   UNL     1       1.308   8.248  20.320  0.00  0.00    +0.000 N 
ATOM     15  C   UNL     1       1.315   8.642  21.758  0.00  0.00    +0.000 C 
ATOM     16  C   UNL     1      -0.003   9.370  22.163  0.00  0.00    +0.000 C 
BRANCH  14  17
ATOM     17  C   UNL     1       2.095   7.216  19.828  0.00  0.00    +0.000 A 
ATOM     18  C   UNL     1       2.797   7.315  18.602  0.00  0.00    +0.000 A 
ATOM     19  C   UNL     1       3.449   6.229  18.025  0.00  0.00    +0.000 A 
ATOM     20  C   UNL     1       3.440   5.011  18.675  0.00  0.00    +0.000 A 
ATOM     21  F   UNL     1       4.032   3.953  18.112  0.00  0.00    +0.000 F 
ATOM     22  C   UNL     1       2.809   4.875  19.905  0.00  0.00    +0.000 A 
ATOM     23  C   UNL     1       2.150   5.968  20.470  0.00  0.00    +0.000 A 
ENDBRANCH  14  17
ENDBRANCH  10  11
BRANCH   1  24
ATOM     24  C   UNL     1       0.753  13.217  20.370  0.00  0.00    +0.000 C 
BRANCH  24  25
ATOM     25  C   UNL     1       1.580  14.489  20.587  0.00  0.00    +0.000 C 
ATOM     26  O   UNL     1       2.397  14.549  21.511  0.00  0.00    +0.000 OA
ATOM     27  N   UNL     1       1.395  15.549  19.730  0.00  0.00    +0.000 N 
ATOM     28  H   UNL     1       0.683  15.448  19.012  0.00  0.00    +0.000 HD
BRANCH  27  29
ATOM     29  C   UNL     1       2.137  16.811  19.813  0.00  0.00    +0.000 C 
ATOM     30  C   UNL     1       3.457  16.718  19.040  0.00  0.00    +0.000 C 
ATOM     31  C   UNL     1       3.198  16.465  17.555  0.00  0.00    +0.000 C 
ATOM     32  C   UNL     1       2.290  17.530  16.939  0.00  0.00    +0.000 C 
ATOM     33  C   UNL     1       1.030  17.819  17.757  0.00  0.00    +0.000 C 
ATOM     34  C   UNL     1       1.316  17.980  19.251  0.00  0.00    +0.000 C 
ENDBRANCH  27  29
ENDBRANCH  24  25
BRANCH  24  36
ATOM     35  N   UNL     1      -0.547  13.188  17.912  0.00  0.00    +0.000 NA
ATOM     36  C   UNL     1       0.043  13.201  19.027  0.00  0.00    +0.000 C 
ENDBRANCH  24  36
ENDBRANCH   1  24
TORSDOF 6
ENDMDL
MODEL 8
REMARK VINA RESULT:      -6.9      2.769      4.667
REMARK  Name = 
REMARK  6 active torsions:
REMARK  status: ('A' for Active; 'I' for Inactive)
REMARK    1  A    between atoms: C_2  and  C_3
REMARK    2  A    between atoms: C_3  and  C_4
REMARK    3  A    between atoms: C_3  and  C_13
REMARK    4  A    between atoms: N_6  and  C_7
REMARK    5  A    between atoms: C_22  and  N_23
REMARK    6  A    between atoms: N_26  and  C_27
REMARK                            x       y       z     vdW  Elec       q    Type
REMARK                         _______ _______ _______ _____ _____    ______ ____
ROOT
ATOM      1  C   UNL     1       0.821  12.578  21.263  0.00  0.00    +0.000 A 
ATOM      2  N   UNL     1       0.317  13.638  21.962  0.00  0.00    +0.000 NA
ATOM      3  C   UNL     1      -0.843  13.476  22.601  0.00  0.00    +0.000 A 
ATOM      4  C   UNL     1      -1.374  14.545  23.321  0.00  0.00    +0.000 A 
ATOM      5  C   UNL     1      -2.569  14.413  24.020  0.00  0.00    +0.000 A 
ATOM      6  C   UNL     1      -3.235  13.194  24.002  0.00  0.00    +0.000 A 
ATOM      7  C   UNL     1      -2.704  12.128  23.273  0.00  0.00    +0.000 A 
ATOM      8  C   UNL     1      -1.518  12.248  22.548  0.00  0.00    +0.000 A 
ATOM      9  N   UNL     1      -1.034  11.219  21.810  0.00  0.00    +0.000 NA
ATOM     10  C   UNL     1       0.121  11.362  21.109  0.00  0.00    +0.000 A 
ENDROOT
BRANCH  10  11
ATOM     11  N   UNL     1       0.538  10.283  20.350  0.00  0.00    +0.000 N 
ATOM     12  C   UNL     1       0.424  10.107  18.894  0.00  0.00    +0.000 C 
ATOM     13  C   UNL     1       1.708   9.458  18.355  0.00  0.00    +0.000 C 
ATOM     14  N   UNL     1       1.893   8.141  18.971  0.00  0.00    +0.000 N 
ATOM     15  C   UNL     1       1.819   8.155  20.460  0.00  0.00    +0.000 C 
ATOM     16  C   UNL     1       0.567   8.932  20.968  0.00  0.00    +0.000 C 
BRANCH  14  17
ATOM     17  C   UNL     1       2.592   7.168  18.270  0.00  0.00    +0.000 A 
ATOM     18  C   UNL     1       2.243   5.797  18.322  0.00  0.00    +0.000 A 
ATOM     19  C   UNL     1       3.037   4.802  17.761  0.00  0.00    +0.000 A 
ATOM     20  C   UNL     1       4.198   5.154  17.102  0.00  0.00    +0.000 A 
ATOM     21  F   UNL     1       4.987   4.204  16.590  0.00  0.00    +0.000 F 
ATOM     22  C   UNL     1       4.559   6.490  16.979  0.00  0.00    +0.000 A 
ATOM     23  C   UNL     1       3.760   7.479  17.555  0.00  0.00    +0.000 A 
ENDBRANCH  14  17
ENDBRANCH  10  11
BRANCH   1  24
ATOM     24  C   UNL     1       2.112  12.858  20.538  0.00  0.00    +0.000 C 
BRANCH  24  25
ATOM     25  C   UNL     1       3.025  13.890  21.209  0.00  0.00    +0.000 C 
ATOM     26  O   UNL     1       3.936  13.522  21.956  0.00  0.00    +0.000 OA
ATOM     27  N   UNL     1       2.807  15.225  20.956  0.00  0.00    +0.000 N 
ATOM     28  H   UNL     1       2.019  15.463  20.360  0.00  0.00    +0.000 HD
BRANCH  27  29
ATOM     29  C   UNL     1       3.621  16.310  21.514  0.00  0.00    +0.000 C 
ATOM     30  C   UNL     1       3.540  17.560  20.632  0.00  0.00    +0.000 C 
ATOM     31  C   UNL     1       2.105  18.084  20.566  0.00  0.00    +0.000 C 
ATOM     32  C   UNL     1       1.532  18.371  21.954  0.00  0.00    +0.000 C 
ATOM     33  C   UNL     1       1.741  17.234  22.957  0.00  0.00    +0.000 C 
ATOM     34  C   UNL     1       3.165  16.676  22.934  0.00  0.00    +0.000 C 
ENDBRANCH  27  29
ENDBRANCH  24  25
BRANCH  24  36
ATOM     35  N   UNL     1       1.351  13.607  17.971  0.00  0.00    +0.000 NA
ATOM     36  C   UNL     1       1.696  13.267  19.135  0.00  0.00    +0.000 C 
ENDBRANCH  24  36
ENDBRANCH   1  24
TORSDOF 6
ENDMDL
MODEL 9
REMARK VINA RESULT:      -6.9      2.957      4.720
REMARK  Name = 
REMARK  6 active torsions:
REMARK  status: ('A' for Active; 'I' for Inactive)
REMARK    1  A    between atoms: C_2  and  C_3
REMARK    2  A    between atoms: C_3  and  C_4
REMARK    3  A    between atoms: C_3  and  C_13
REMARK    4  A    between atoms: N_6  and  C_7
REMARK    5  A    between atoms: C_22  and  N_23
REMARK    6  A    between atoms: N_26  and  C_27
REMARK                            x       y       z     vdW  Elec       q    Type
REMARK                         _______ _______ _______ _____ _____    ______ ____
ROOT
ATOM      1  C   UNL     1      -0.992  13.118  19.601  0.00  0.00    +0.000 A 
ATOM      2  N   UNL     1      -1.469  14.398  19.583  0.00  0.00    +0.000 NA
ATOM      3  C   UNL     1      -0.619  15.382  19.286  0.00  0.00    +0.000 A 
ATOM      4  C   UNL     1      -1.086  16.696  19.262  0.00  0.00    +0.000 A 
ATOM      5  C   UNL     1      -0.240  17.750  18.936  0.00  0.00    +0.000 A 
ATOM      6  C   UNL     1       1.088  17.483  18.625  0.00  0.00    +0.000 A 
ATOM      7  C   UNL     1       1.554  16.168  18.659  0.00  0.00    +0.000 A 
ATOM      8  C   UNL     1       0.725  15.100  19.004  0.00  0.00    +0.000 A 
ATOM      9  N   UNL     1       1.200  13.832  19.074  0.00  0.00    +0.000 NA
ATOM     10  C   UNL     1       0.374  12.809  19.418  0.00  0.00    +0.000 A 
ENDROOT
BRANCH  10  11
ATOM     11  N   UNL     1       0.932  11.546  19.504  0.00  0.00    +0.000 N 
ATOM     12  C   UNL     1       1.170  10.746  20.714  0.00  0.00    +0.000 C 
ATOM     13  C   UNL     1       0.832   9.275  20.430  0.00  0.00    +0.000 C 
ATOM     14  N   UNL     1       1.693   8.767  19.359  0.00  0.00    +0.000 N 
ATOM     15  C   UNL     1       1.700   9.618  18.134  0.00  0.00    +0.000 C 
ATOM     16  C   UNL     1       1.921  11.122  18.478  0.00  0.00    +0.000 C 
BRANCH  14  17
ATOM     17  C   UNL     1       1.985   7.410  19.323  0.00  0.00    +0.000 A 
ATOM     18  C   UNL     1       1.742   6.552  20.423  0.00  0.00    +0.000 A 
ATOM     19  C   UNL     1       2.186   5.233  20.454  0.00  0.00    +0.000 A 
ATOM     20  C   UNL     1       2.868   4.723  19.367  0.00  0.00    +0.000 A 
ATOM     21  F   UNL     1       3.331   3.470  19.400  0.00  0.00    +0.000 F 
ATOM     22  C   UNL     1       3.088   5.509  18.243  0.00  0.00    +0.000 A 
ATOM     23  C   UNL     1       2.647   6.833  18.226  0.00  0.00    +0.000 A 
ENDBRANCH  14  17
ENDBRANCH  10  11
BRANCH   1  24
ATOM     24  C   UNL     1      -2.007  12.073  19.985  0.00  0.00    +0.000 C 
BRANCH  24  25
ATOM     25  C   UNL     1      -3.238  11.996  19.075  0.00  0.00    +0.000 C 
ATOM     26  O   UNL     1      -3.111  11.721  17.879  0.00  0.00    +0.000 OA
ATOM     27  N   UNL     1      -4.477  12.234  19.624  0.00  0.00    +0.000 N 
ATOM     28  H   UNL     1      -4.509  12.489  20.607  0.00  0.00    +0.000 HD
BRANCH  27  29
ATOM     29  C   UNL     1      -5.735  12.170  18.871  0.00  0.00    +0.000 C 
ATOM     30  C   UNL     1      -6.725  11.215  19.546  0.00  0.00    +0.000 C 
ATOM     31  C   UNL     1      -7.084  11.710  20.947  0.00  0.00    +0.000 C 
ATOM     32  C   UNL     1      -7.640  13.134  20.931  0.00  0.00    +0.000 C 
ATOM     33  C   UNL     1      -6.800  14.117  20.112  0.00  0.00    +0.000 C 
ATOM     34  C   UNL     1      -6.385  13.555  18.752  0.00  0.00    +0.000 C 
ENDBRANCH  27  29
ENDBRANCH  24  25
BRANCH  24  36
ATOM     35  N   UNL     1      -2.657  12.635  22.629  0.00  0.00    +0.000 NA
ATOM     36  C   UNL     1      -2.363  12.380  21.430  0.00  0.00    +0.000 C 
ENDBRANCH  24  36
ENDBRANCH   1  24
TORSDOF 6
ENDMDL
