MODEL 1
REMARK VINA RESULT:      -6.8      0.000      0.000
REMARK  Name = 
REMARK  8 active torsions:
REMARK  status: ('A' for Active; 'I' for Inactive)
REMARK    1  A    between atoms: C_1  and  C_2
REMARK    2  A    between atoms: C_2  and  C_3
REMARK    3  A    between atoms: C_3  and  N_4
REMARK    4  A    between atoms: C_5  and  C_6
REMARK    5  A    between atoms: C_6  and  N_7
REMARK    6  A    between atoms: C_11  and  C_13
REMARK    7  A    between atoms: N_25  and  C_26
REMARK    8  A    between atoms: N_29  and  C_30
REMARK                            x       y       z     vdW  Elec       q    Type
REMARK                         _______ _______ _______ _____ _____    ______ ____
ROOT
ATOM      1  N   UNL     1       2.099   7.645  19.550  0.00  0.00    +0.000 N 
ATOM      2  C   UNL     1       1.269   7.413  20.652  0.00  0.00    +0.000 A 
ATOM      3  N   UNL     1       1.495   6.204  21.134  0.00  0.00    +0.000 NA
ATOM      4  C   UNL     1       2.304   5.597  20.244  0.00  0.00    +0.000 A 
ATOM      5  C   UNL     1       2.739   6.448  19.278  0.00  0.00    +0.000 A 
ATOM      6  C   UNL     1       3.633   6.010  18.244  0.00  0.00    +0.000 A 
ATOM      7  O   UNL     1       4.047   6.743  17.354  0.00  0.00    +0.000 OA
ATOM      8  N   UNL     1       3.977   4.649  18.352  0.00  0.00    +0.000 N 
ATOM      9  C   UNL     1       4.890   4.077  17.382  0.00  0.00    +0.000 C 
ATOM     10  C   UNL     1       3.455   3.744  19.297  0.00  0.00    +0.000 A 
ATOM     11  O   UNL     1       3.729   2.541  19.249  0.00  0.00    +0.000 OA
ATOM     12  N   UNL     1       2.620   4.264  20.273  0.00  0.00    +0.000 N 
ATOM     13  C   UNL     1       1.957   3.387  21.223  0.00  0.00    +0.000 C 
ENDROOT
BRANCH   1  14
ATOM     14  C   UNL     1       2.181   8.862  18.761  0.00  0.00    +0.000 C 
BRANCH  14  16
ATOM     15  C   UNL     1      -0.043   9.864  17.973  0.00  0.00    +0.000 C 
ATOM     16  C   UNL     1       1.159   8.998  17.629  0.00  0.00    +0.000 C 
ENDBRANCH  14  16
ENDBRANCH   1  14
BRANCH   2  17
ATOM     17  C   UNL     1       0.240   8.357  21.245  0.00  0.00    +0.000 C 
BRANCH  17  18
ATOM     18  N   UNL     1       0.825   9.330  22.193  0.00  0.00    +0.000 NA
ATOM     19  C   UNL     1       1.390  10.554  21.572  0.00  0.00    +0.000 C 
ATOM     20  C   UNL     1       0.370  11.612  21.117  0.00  0.00    +0.000 C 
ATOM     21  N   UNL     1      -0.531  11.987  22.204  0.00  0.00    +0.000 N 
ATOM     22  C   UNL     1      -1.085  13.283  22.168  0.00  0.00    +0.000 C 
ATOM     23  O   UNL     1      -0.825  14.045  21.235  0.00  0.00    +0.000 OA
ATOM     24  C   UNL     1      -1.145  10.842  22.883  0.00  0.00    +0.000 C 
ATOM     25  C   UNL     1      -0.122   9.741  23.250  0.00  0.00    +0.000 C 
BRANCH  22  26
ATOM     26  C   UNL     1      -1.976  13.708  23.239  0.00  0.00    +0.000 A 
ATOM     27  C   UNL     1      -1.744  14.561  24.305  0.00  0.00    +0.000 A 
ATOM     28  C   UNL     1      -2.945  14.627  25.053  0.00  0.00    +0.000 A 
ATOM     29  C   UNL     1      -3.821  13.768  24.437  0.00  0.00    +0.000 A 
ATOM     30  O   UNL     1      -3.238  13.188  23.359  0.00  0.00    +0.000 OA
ENDBRANCH  22  26
ENDBRANCH  17  18
ENDBRANCH   2  17
TORSDOF 5
ENDMDL
MODEL 2
REMARK VINA RESULT:      -6.7      2.665      9.410
REMARK  Name = 
REMARK  8 active torsions:
REMARK  status: ('A' for Active; 'I' for Inactive)
REMARK    1  A    between atoms: C_1  and  C_2
REMARK    2  A    between atoms: C_2  and  C_3
REMARK    3  A    between atoms: C_3  and  N_4
REMARK    4  A    between atoms: C_5  and  C_6
REMARK    5  A    between atoms: C_6  and  N_7
REMARK    6  A    between atoms: C_11  and  C_13
REMARK    7  A    between atoms: N_25  and  C_26
REMARK    8  A    between atoms: N_29  and  C_30
REMARK                            x       y       z     vdW  Elec       q    Type
REMARK                         _______ _______ _______ _____ _____    ______ ____
ROOT
ATOM      1  N   UNL     1      -2.253  10.744  18.473  0.00  0.00    +0.000 N 
ATOM      2  C   UNL     1      -0.933  10.526  18.882  0.00  0.00    +0.000 A 
ATOM      3  N   UNL     1      -0.695  11.198  19.995  0.00  0.00    +0.000 NA
ATOM      4  C   UNL     1      -1.769  11.986  20.188  0.00  0.00    +0.000 A 
ATOM      5  C   UNL     1      -2.771  11.717  19.310  0.00  0.00    +0.000 A 
ATOM      6  C   UNL     1      -4.018  12.427  19.359  0.00  0.00    +0.000 A 
ATOM      7  O   UNL     1      -4.945  12.218  18.586  0.00  0.00    +0.000 OA
ATOM      8  N   UNL     1      -4.061  13.397  20.378  0.00  0.00    +0.000 N 
ATOM      9  C   UNL     1      -5.271  14.177  20.554  0.00  0.00    +0.000 C 
ATOM     10  C   UNL     1      -2.992  13.741  21.228  0.00  0.00    +0.000 A 
ATOM     11  O   UNL     1      -3.084  14.682  22.023  0.00  0.00    +0.000 OA
ATOM     12  N   UNL     1      -1.836  12.983  21.127  0.00  0.00    +0.000 N 
ATOM     13  C   UNL     1      -0.652  13.333  21.890  0.00  0.00    +0.000 C 
ENDROOT
BRANCH   1  14
ATOM     14  C   UNL     1      -2.915  10.160  17.319  0.00  0.00    +0.000 C 
BRANCH  14  16
ATOM     15  C   UNL     1      -3.217  10.113  14.774  0.00  0.00    +0.000 C 
ATOM     16  C   UNL     1      -2.668  10.860  15.980  0.00  0.00    +0.000 C 
ENDBRANCH  14  16
ENDBRANCH   1  14
BRANCH   2  17
ATOM     17  C   UNL     1       0.116   9.673  18.195  0.00  0.00    +0.000 C 
BRANCH  17  18
ATOM     18  N   UNL     1       1.418   9.679  18.895  0.00  0.00    +0.000 NA
ATOM     19  C   UNL     1       1.435   8.974  20.201  0.00  0.00    +0.000 C 
ATOM     20  C   UNL     1       1.477   7.437  20.138  0.00  0.00    +0.000 C 
ATOM     21  N   UNL     1       2.590   6.968  19.314  0.00  0.00    +0.000 N 
ATOM     22  C   UNL     1       3.127   5.699  19.615  0.00  0.00    +0.000 C 
ATOM     23  O   UNL     1       2.647   5.020  20.525  0.00  0.00    +0.000 OA
ATOM     24  C   UNL     1       2.658   7.606  17.997  0.00  0.00    +0.000 C 
ATOM     25  C   UNL     1       2.518   9.145  18.065  0.00  0.00    +0.000 C 
BRANCH  22  26
ATOM     26  C   UNL     1       4.247   5.196  18.832  0.00  0.00    +0.000 A 
ATOM     27  C   UNL     1       5.609   5.375  19.008  0.00  0.00    +0.000 A 
ATOM     28  C   UNL     1       6.259   4.675  17.962  0.00  0.00    +0.000 A 
ATOM     29  C   UNL     1       5.259   4.159  17.176  0.00  0.00    +0.000 A 
ATOM     30  O   UNL     1       4.043   4.489  17.675  0.00  0.00    +0.000 OA
ENDBRANCH  22  26
ENDBRANCH  17  18
ENDBRANCH   2  17
TORSDOF 5
ENDMDL
MODEL 3
REMARK VINA RESULT:      -6.7      3.527      9.399
REMARK  Name = 
REMARK  8 active torsions:
REMARK  status: ('A' for Active; 'I' for Inactive)
REMARK    1  A    between atoms: C_1  and  C_2
REMARK    2  A    between atoms: C_2  and  C_3
REMARK    3  A    between atoms: C_3  and  N_4
REMARK    4  A    between atoms: C_5  and  C_6
REMARK    5  A    between atoms: C_6  and  N_7
REMARK    6  A    between atoms: C_11  and  C_13
REMARK    7  A    between atoms: N_25  and  C_26
REMARK    8  A    between atoms: N_29  and  C_30
REMARK                            x       y       z     vdW  Elec       q    Type
REMARK                         _______ _______ _______ _____ _____    ______ ____
ROOT
ATOM      1  N   UNL     1       0.130  13.974  20.157  0.00  0.00    +0.000 N 
ATOM      2  C   UNL     1       1.161  13.035  20.267  0.00  0.00    +0.000 A 
ATOM      3  N   UNL     1       2.284  13.550  19.798  0.00  0.00    +0.000 NA
ATOM      4  C   UNL     1       1.943  14.715  19.217  0.00  0.00    +0.000 A 
ATOM      5  C   UNL     1       0.644  15.044  19.446  0.00  0.00    +0.000 A 
ATOM      6  C   UNL     1       0.082  16.263  18.936  0.00  0.00    +0.000 A 
ATOM      7  O   UNL     1      -1.084  16.597  19.116  0.00  0.00    +0.000 OA
ATOM      8  N   UNL     1       1.003  17.030  18.199  0.00  0.00    +0.000 N 
ATOM      9  C   UNL     1       0.574  18.298  17.641  0.00  0.00    +0.000 C 
ATOM     10  C   UNL     1       2.322  16.647  17.883  0.00  0.00    +0.000 A 
ATOM     11  O   UNL     1       3.026  17.334  17.136  0.00  0.00    +0.000 OA
ATOM     12  N   UNL     1       2.786  15.467  18.442  0.00  0.00    +0.000 N 
ATOM     13  C   UNL     1       4.095  14.946  18.088  0.00  0.00    +0.000 C 
ENDROOT
BRANCH   1  14
ATOM     14  C   UNL     1      -1.247  13.811  20.590  0.00  0.00    +0.000 C 
BRANCH  14  16
ATOM     15  C   UNL     1      -1.279  13.425  23.124  0.00  0.00    +0.000 C 
ATOM     16  C   UNL     1      -1.587  14.372  21.973  0.00  0.00    +0.000 C 
ENDBRANCH  14  16
ENDBRANCH   1  14
BRANCH   2  17
ATOM     17  C   UNL     1       1.068  11.625  20.818  0.00  0.00    +0.000 C 
BRANCH  17  18
ATOM     18  N   UNL     1       0.313  10.707  19.938  0.00  0.00    +0.000 NA
ATOM     19  C   UNL     1       0.781  10.655  18.531  0.00  0.00    +0.000 C 
ATOM     20  C   UNL     1       2.062   9.843  18.275  0.00  0.00    +0.000 C 
ATOM     21  N   UNL     1       1.947   8.485  18.803  0.00  0.00    +0.000 N 
ATOM     22  C   UNL     1       2.708   7.479  18.173  0.00  0.00    +0.000 C 
ATOM     23  O   UNL     1       3.452   7.760  17.231  0.00  0.00    +0.000 OA
ATOM     24  C   UNL     1       1.492   8.430  20.196  0.00  0.00    +0.000 C 
ATOM     25  C   UNL     1       0.259   9.326  20.462  0.00  0.00    +0.000 C 
BRANCH  22  26
ATOM     26  C   UNL     1       2.614   6.108  18.654  0.00  0.00    +0.000 A 
ATOM     27  C   UNL     1       1.852   5.050  18.186  0.00  0.00    +0.000 A 
ATOM     28  C   UNL     1       2.130   3.937  19.017  0.00  0.00    +0.000 A 
ATOM     29  C   UNL     1       3.000   4.392  19.977  0.00  0.00    +0.000 A 
ATOM     30  O   UNL     1       3.277   5.706  19.784  0.00  0.00    +0.000 OA
ENDBRANCH  22  26
ENDBRANCH  17  18
ENDBRANCH   2  17
TORSDOF 5
ENDMDL
MODEL 4
REMARK VINA RESULT:      -6.7      2.550      9.389
REMARK  Name = 
REMARK  8 active torsions:
REMARK  status: ('A' for Active; 'I' for Inactive)
REMARK    1  A    between atoms: C_1  and  C_2
REMARK    2  A    between atoms: C_2  and  C_3
REMARK    3  A    between atoms: C_3  and  N_4
REMARK    4  A    between atoms: C_5  and  C_6
REMARK    5  A    between atoms: C_6  and  N_7
REMARK    6  A    between atoms: C_11  and  C_13
REMARK    7  A    between atoms: N_25  and  C_26
REMARK    8  A    between atoms: N_29  and  C_30
REMARK                            x       y       z     vdW  Elec       q    Type
REMARK                         _______ _______ _______ _____ _____    ______ ____
ROOT
ATOM      1  N   UNL     1       0.237  10.649  19.970  0.00  0.00    +0.000 N 
ATOM      2  C   UNL     1       0.720   9.837  18.938  0.00  0.00    +0.000 A 
ATOM      3  N   UNL     1      -0.083   9.920  17.892  0.00  0.00    +0.000 NA
ATOM      4  C   UNL     1      -1.163  10.609  18.309  0.00  0.00    +0.000 A 
ATOM      5  C   UNL     1      -0.999  11.116  19.559  0.00  0.00    +0.000 A 
ATOM      6  C   UNL     1      -2.023  11.906  20.184  0.00  0.00    +0.000 A 
ATOM      7  O   UNL     1      -1.918  12.379  21.309  0.00  0.00    +0.000 OA
ATOM      8  N   UNL     1      -3.163  12.072  19.375  0.00  0.00    +0.000 N 
ATOM      9  C   UNL     1      -4.269  12.865  19.875  0.00  0.00    +0.000 C 
ATOM     10  C   UNL     1      -3.371  11.470  18.118  0.00  0.00    +0.000 A 
ATOM     11  O   UNL     1      -4.450  11.581  17.527  0.00  0.00    +0.000 OA
ATOM     12  N   UNL     1      -2.317  10.747  17.583  0.00  0.00    +0.000 N 
ATOM     13  C   UNL     1      -2.480  10.010  16.342  0.00  0.00    +0.000 C 
ENDROOT
BRANCH   1  14
ATOM     14  C   UNL     1       0.848  10.861  21.270  0.00  0.00    +0.000 C 
BRANCH  14  16
ATOM     15  C   UNL     1      -0.510   9.761  23.146  0.00  0.00    +0.000 C 
ATOM     16  C   UNL     1       0.729   9.703  22.264  0.00  0.00    +0.000 C 
ENDBRANCH  14  16
ENDBRANCH   1  14
BRANCH   2  17
ATOM     17  C   UNL     1       1.960   8.964  18.956  0.00  0.00    +0.000 C 
BRANCH  17  18
ATOM     18  N   UNL     1       2.023   8.022  17.818  0.00  0.00    +0.000 NA
ATOM     19  C   UNL     1       3.338   7.945  17.135  0.00  0.00    +0.000 C 
ATOM     20  C   UNL     1       4.430   7.139  17.860  0.00  0.00    +0.000 C 
ATOM     21  N   UNL     1       3.968   5.791  18.187  0.00  0.00    +0.000 N 
ATOM     22  C   UNL     1       4.945   4.779  18.285  0.00  0.00    +0.000 C 
ATOM     23  O   UNL     1       6.137   5.046  18.121  0.00  0.00    +0.000 OA
ATOM     24  C   UNL     1       2.672   5.761  18.870  0.00  0.00    +0.000 C 
ATOM     25  C   UNL     1       1.609   6.652  18.185  0.00  0.00    +0.000 C 
BRANCH  22  26
ATOM     26  C   UNL     1       4.532   3.417  18.592  0.00  0.00    +0.000 A 
ATOM     27  C   UNL     1       3.735   2.543  17.871  0.00  0.00    +0.000 A 
ATOM     28  C   UNL     1       3.644   1.346  18.623  0.00  0.00    +0.000 A 
ATOM     29  C   UNL     1       4.339   1.577  19.785  0.00  0.00    +0.000 A 
ATOM     30  O   UNL     1       4.855   2.831  19.789  0.00  0.00    +0.000 OA
ENDBRANCH  22  26
ENDBRANCH  17  18
ENDBRANCH   2  17
TORSDOF 5
ENDMDL
MODEL 5
REMARK VINA RESULT:      -6.7      2.844     10.183
REMARK  Name = 
REMARK  8 active torsions:
REMARK  status: ('A' for Active; 'I' for Inactive)
REMARK    1  A    between atoms: C_1  and  C_2
REMARK    2  A    between atoms: C_2  and  C_3
REMARK    3  A    between atoms: C_3  and  N_4
REMARK    4  A    between atoms: C_5  and  C_6
REMARK    5  A    between atoms: C_6  and  N_7
REMARK    6  A    between atoms: C_11  and  C_13
REMARK    7  A    between atoms: N_25  and  C_26
REMARK    8  A    between atoms: N_29  and  C_30
REMARK                            x       y       z     vdW  Elec       q    Type
REMARK                         _______ _______ _______ _____ _____    ______ ____
ROOT
ATOM      1  N   UNL     1       1.634   7.973  20.212  0.00  0.00    +0.000 N 
ATOM      2  C   UNL     1       1.898   8.162  18.851  0.00  0.00    +0.000 A 
ATOM      3  N   UNL     1       1.503   9.368  18.484  0.00  0.00    +0.000 NA
ATOM      4  C   UNL     1       0.820   9.868  19.530  0.00  0.00    +0.000 A 
ATOM      5  C   UNL     1       0.906   9.073  20.629  0.00  0.00    +0.000 A 
ATOM      6  C   UNL     1       0.269   9.435  21.864  0.00  0.00    +0.000 A 
ATOM      7  O   UNL     1       0.319   8.747  22.877  0.00  0.00    +0.000 OA
ATOM      8  N   UNL     1      -0.428  10.656  21.789  0.00  0.00    +0.000 N 
ATOM      9  C   UNL     1      -1.103  11.153  22.972  0.00  0.00    +0.000 C 
ATOM     10  C   UNL     1      -0.596  11.434  20.627  0.00  0.00    +0.000 A 
ATOM     11  O   UNL     1      -1.317  12.436  20.626  0.00  0.00    +0.000 OA
ATOM     12  N   UNL     1       0.078  11.020  19.488  0.00  0.00    +0.000 N 
ATOM     13  C   UNL     1      -0.119  11.703  18.222  0.00  0.00    +0.000 C 
ENDROOT
BRANCH   1  14
ATOM     14  C   UNL     1       1.947   6.797  21.005  0.00  0.00    +0.000 C 
BRANCH  14  16
ATOM     15  C   UNL     1       2.105   4.238  21.045  0.00  0.00    +0.000 C 
ATOM     16  C   UNL     1       1.413   5.465  20.471  0.00  0.00    +0.000 C 
ENDBRANCH  14  16
ENDBRANCH   1  14
BRANCH   2  17
ATOM     17  C   UNL     1       2.528   7.173  17.889  0.00  0.00    +0.000 C 
BRANCH  17  18
ATOM     18  N   UNL     1       4.002   7.115  17.999  0.00  0.00    +0.000 NA
ATOM     19  C   UNL     1       4.550   5.819  18.469  0.00  0.00    +0.000 C 
ATOM     20  C   UNL     1       4.585   4.684  17.431  0.00  0.00    +0.000 C 
ATOM     21  N   UNL     1       5.281   5.097  16.213  0.00  0.00    +0.000 N 
ATOM     22  C   UNL     1       5.911   4.089  15.456  0.00  0.00    +0.000 C 
ATOM     23  O   UNL     1       5.845   2.910  15.810  0.00  0.00    +0.000 OA
ATOM     24  C   UNL     1       4.807   6.372  15.666  0.00  0.00    +0.000 C 
ATOM     25  C   UNL     1       4.685   7.479  16.739  0.00  0.00    +0.000 C 
BRANCH  22  26
ATOM     26  C   UNL     1       6.631   4.453  14.243  0.00  0.00    +0.000 A 
ATOM     27  C   UNL     1       6.456   4.022  12.939  0.00  0.00    +0.000 A 
ATOM     28  C   UNL     1       7.425   4.685  12.148  0.00  0.00    +0.000 A 
ATOM     29  C   UNL     1       8.173   5.438  13.020  0.00  0.00    +0.000 A 
ATOM     30  O   UNL     1       7.720   5.284  14.289  0.00  0.00    +0.000 OA
ENDBRANCH  22  26
ENDBRANCH  17  18
ENDBRANCH   2  17
TORSDOF 5
ENDMDL
MODEL 6
REMARK VINA RESULT:      -6.5      2.635      4.344
REMARK  Name = 
REMARK  8 active torsions:
REMARK  status: ('A' for Active; 'I' for Inactive)
REMARK    1  A    between atoms: C_1  and  C_2
REMARK    2  A    between atoms: C_2  and  C_3
REMARK    3  A    between atoms: C_3  and  N_4
REMARK    4  A    between atoms: C_5  and  C_6
REMARK    5  A    between atoms: C_6  and  N_7
REMARK    6  A    between atoms: C_11  and  C_13
REMARK    7  A    between atoms: N_25  and  C_26
REMARK    8  A    between atoms: N_29  and  C_30
REMARK                            x       y       z     vdW  Elec       q    Type
REMARK                         _______ _______ _______ _____ _____    ______ ____
ROOT
ATOM      1  N   UNL     1       2.581   5.750  18.173  0.00  0.00    +0.000 N 
ATOM      2  C   UNL     1       2.690   7.054  18.666  0.00  0.00    +0.000 A 
ATOM      3  N   UNL     1       3.772   7.629  18.172  0.00  0.00    +0.000 NA
ATOM      4  C   UNL     1       4.450   6.655  17.535  0.00  0.00    +0.000 A 
ATOM      5  C   UNL     1       3.744   5.495  17.468  0.00  0.00    +0.000 A 
ATOM      6  C   UNL     1       4.275   4.336  16.808  0.00  0.00    +0.000 A 
ATOM      7  O   UNL     1       3.674   3.271  16.727  0.00  0.00    +0.000 OA
ATOM      8  N   UNL     1       5.560   4.545  16.272  0.00  0.00    +0.000 N 
ATOM      9  C   UNL     1       6.208   3.462  15.560  0.00  0.00    +0.000 C 
ATOM     10  C   UNL     1       6.330   5.716  16.421  0.00  0.00    +0.000 A 
ATOM     11  O   UNL     1       7.493   5.772  16.012  0.00  0.00    +0.000 OA
ATOM     12  N   UNL     1       5.724   6.792  17.050  0.00  0.00    +0.000 N 
ATOM     13  C   UNL     1       6.477   8.001  17.336  0.00  0.00    +0.000 C 
ENDROOT
BRANCH   1  14
ATOM     14  C   UNL     1       1.517   4.800  18.449  0.00  0.00    +0.000 C 
BRANCH  14  16
ATOM     15  C   UNL     1       1.507   2.554  19.685  0.00  0.00    +0.000 C 
ATOM     16  C   UNL     1       1.602   4.069  19.791  0.00  0.00    +0.000 C 
ENDBRANCH  14  16
ENDBRANCH   1  14
BRANCH   2  17
ATOM     17  C   UNL     1       1.753   7.756  19.631  0.00  0.00    +0.000 C 
BRANCH  17  18
ATOM     18  N   UNL     1       1.810   9.230  19.526  0.00  0.00    +0.000 NA
ATOM     19  C   UNL     1       1.589   9.774  18.164  0.00  0.00    +0.000 C 
ATOM     20  C   UNL     1       0.131   9.797  17.674  0.00  0.00    +0.000 C 
ATOM     21  N   UNL     1      -0.740  10.488  18.623  0.00  0.00    +0.000 N 
ATOM     22  C   UNL     1      -1.896  11.108  18.108  0.00  0.00    +0.000 C 
ATOM     23  O   UNL     1      -2.156  11.039  16.905  0.00  0.00    +0.000 OA
ATOM     24  C   UNL     1      -0.597  10.017  20.004  0.00  0.00    +0.000 C 
ATOM     25  C   UNL     1       0.879   9.907  20.453  0.00  0.00    +0.000 C 
BRANCH  22  26
ATOM     26  C   UNL     1      -2.785  11.822  19.013  0.00  0.00    +0.000 A 
ATOM     27  C   UNL     1      -4.169  11.874  19.047  0.00  0.00    +0.000 A 
ATOM     28  C   UNL     1      -4.528  12.719  20.125  0.00  0.00    +0.000 A 
ATOM     29  C   UNL     1      -3.347  13.181  20.652  0.00  0.00    +0.000 A 
ATOM     30  O   UNL     1      -2.291  12.668  19.972  0.00  0.00    +0.000 OA
ENDBRANCH  22  26
ENDBRANCH  17  18
ENDBRANCH   2  17
TORSDOF 5
ENDMDL
MODEL 7
REMARK VINA RESULT:      -6.5      2.078      9.521
REMARK  Name = 
REMARK  8 active torsions:
REMARK  status: ('A' for Active; 'I' for Inactive)
REMARK    1  A    between atoms: C_1  and  C_2
REMARK    2  A    between atoms: C_2  and  C_3
REMARK    3  A    between atoms: C_3  and  N_4
REMARK    4  A    between atoms: C_5  and  C_6
REMARK    5  A    between atoms: C_6  and  N_7
REMARK    6  A    between atoms: C_11  and  C_13
REMARK    7  A    between atoms: N_25  and  C_26
REMARK    8  A    between atoms: N_29  and  C_30
REMARK                            x       y       z     vdW  Elec       q    Type
REMARK                         _______ _______ _______ _____ _____    ______ ____
ROOT
ATOM      1  N   UNL     1      -0.273  13.296  21.844  0.00  0.00    +0.000 N 
ATOM      2  C   UNL     1      -0.598  11.986  22.210  0.00  0.00    +0.000 A 
ATOM      3  N   UNL     1      -1.795  11.963  22.770  0.00  0.00    +0.000 NA
ATOM      4  C   UNL     1      -2.146  13.252  22.943  0.00  0.00    +0.000 A 
ATOM      5  C   UNL     1      -1.270  14.108  22.354  0.00  0.00    +0.000 A 
ATOM      6  C   UNL     1      -1.472  15.529  22.398  0.00  0.00    +0.000 A 
ATOM      7  O   UNL     1      -0.707  16.336  21.884  0.00  0.00    +0.000 OA
ATOM      8  N   UNL     1      -2.634  15.900  23.101  0.00  0.00    +0.000 N 
ATOM      9  C   UNL     1      -2.971  17.306  23.207  0.00  0.00    +0.000 C 
ATOM     10  C   UNL     1      -3.492  15.020  23.790  0.00  0.00    +0.000 A 
ATOM     11  O   UNL     1      -4.428  15.445  24.474  0.00  0.00    +0.000 OA
ATOM     12  N   UNL     1      -3.233  13.664  23.669  0.00  0.00    +0.000 N 
ATOM     13  C   UNL     1      -4.003  12.693  24.427  0.00  0.00    +0.000 C 
ENDROOT
BRANCH   1  14
ATOM     14  C   UNL     1       0.937  13.738  21.172  0.00  0.00    +0.000 C 
BRANCH  14  16
ATOM     15  C   UNL     1      -0.299  13.906  18.932  0.00  0.00    +0.000 C 
ATOM     16  C   UNL     1       0.981  13.518  19.657  0.00  0.00    +0.000 C 
ENDBRANCH  14  16
ENDBRANCH   1  14
BRANCH   2  17
ATOM     17  C   UNL     1       0.251  10.741  22.030  0.00  0.00    +0.000 C 
BRANCH  17  18
ATOM     18  N   UNL     1      -0.379   9.732  21.151  0.00  0.00    +0.000 NA
ATOM     19  C   UNL     1      -0.340  10.047  19.702  0.00  0.00    +0.000 C 
ATOM     20  C   UNL     1       1.009   9.817  18.997  0.00  0.00    +0.000 C 
ATOM     21  N   UNL     1       1.501   8.458  19.216  0.00  0.00    +0.000 N 
ATOM     22  C   UNL     1       2.337   7.905  18.225  0.00  0.00    +0.000 C 
ATOM     23  O   UNL     1       2.648   8.567  17.233  0.00  0.00    +0.000 OA
ATOM     24  C   UNL     1       1.504   8.052  20.625  0.00  0.00    +0.000 C 
ATOM     25  C   UNL     1       0.175   8.376  21.348  0.00  0.00    +0.000 C 
BRANCH  22  26
ATOM     26  C   UNL     1       2.838   6.548  18.392  0.00  0.00    +0.000 A 
ATOM     27  C   UNL     1       2.227   5.334  18.129  0.00  0.00    +0.000 A 
ATOM     28  C   UNL     1       3.152   4.318  18.474  0.00  0.00    +0.000 A 
ATOM     29  C   UNL     1       4.252   4.967  18.981  0.00  0.00    +0.000 A 
ATOM     30  O   UNL     1       4.062   6.309  18.962  0.00  0.00    +0.000 OA
ENDBRANCH  22  26
ENDBRANCH  17  18
ENDBRANCH   2  17
TORSDOF 5
ENDMDL
MODEL 8
REMARK VINA RESULT:      -6.4      2.748      3.992
REMARK  Name = 
REMARK  8 active torsions:
REMARK  status: ('A' for Active; 'I' for Inactive)
REMARK    1  A    between atoms: C_1  and  C_2
REMARK    2  A    between atoms: C_2  and  C_3
REMARK    3  A    between atoms: C_3  and  N_4
REMARK    4  A    between atoms: C_5  and  C_6
REMARK    5  A    between atoms: C_6  and  N_7
REMARK    6  A    between atoms: C_11  and  C_13
REMARK    7  A    between atoms: N_25  and  C_26
REMARK    8  A    between atoms: N_29  and  C_30
REMARK                            x       y       z     vdW  Elec       q    Type
REMARK                         _______ _______ _______ _____ _____    ______ ____
ROOT
ATOM      1  N   UNL     1       3.885   6.297  17.754  0.00  0.00    +0.000 N 
ATOM      2  C   UNL     1       3.030   7.130  18.482  0.00  0.00    +0.000 A 
ATOM      3  N   UNL     1       2.359   6.416  19.369  0.00  0.00    +0.000 NA
ATOM      4  C   UNL     1       2.626   5.128  19.083  0.00  0.00    +0.000 A 
ATOM      5  C   UNL     1       3.588   4.999  18.131  0.00  0.00    +0.000 A 
ATOM      6  C   UNL     1       4.040   3.707  17.698  0.00  0.00    +0.000 A 
ATOM      7  O   UNL     1       4.902   3.546  16.842  0.00  0.00    +0.000 OA
ATOM      8  N   UNL     1       3.385   2.645  18.349  0.00  0.00    +0.000 N 
ATOM      9  C   UNL     1       3.758   1.283  18.021  0.00  0.00    +0.000 C 
ATOM     10  C   UNL     1       2.324   2.776  19.267  0.00  0.00    +0.000 A 
ATOM     11  O   UNL     1       1.733   1.784  19.706  0.00  0.00    +0.000 OA
ATOM     12  N   UNL     1       1.973   4.062  19.646  0.00  0.00    +0.000 N 
ATOM     13  C   UNL     1       0.827   4.292  20.507  0.00  0.00    +0.000 C 
ENDROOT
BRANCH   1  14
ATOM     14  C   UNL     1       4.814   6.697  16.711  0.00  0.00    +0.000 C 
BRANCH  14  16
ATOM     15  C   UNL     1       7.191   6.062  17.430  0.00  0.00    +0.000 C 
ATOM     16  C   UNL     1       6.187   7.179  17.186  0.00  0.00    +0.000 C 
ENDBRANCH  14  16
ENDBRANCH   1  14
BRANCH   2  17
ATOM     17  C   UNL     1       2.846   8.627  18.322  0.00  0.00    +0.000 C 
BRANCH  17  18
ATOM     18  N   UNL     1       1.434   9.053  18.428  0.00  0.00    +0.000 NA
ATOM     19  C   UNL     1       0.908   9.156  19.812  0.00  0.00    +0.000 C 
ATOM     20  C   UNL     1       1.340  10.401  20.607  0.00  0.00    +0.000 C 
ATOM     21  N   UNL     1       1.041  11.631  19.876  0.00  0.00    +0.000 N 
ATOM     22  C   UNL     1       0.809  12.794  20.637  0.00  0.00    +0.000 C 
ATOM     23  O   UNL     1       0.884  12.760  21.867  0.00  0.00    +0.000 OA
ATOM     24  C   UNL     1       1.524  11.627  18.492  0.00  0.00    +0.000 C 
ATOM     25  C   UNL     1       1.165  10.329  17.732  0.00  0.00    +0.000 C 
BRANCH  22  26
ATOM     26  C   UNL     1       0.490  14.041  19.954  0.00  0.00    +0.000 A 
ATOM     27  C   UNL     1      -0.737  14.565  19.582  0.00  0.00    +0.000 A 
ATOM     28  C   UNL     1      -0.483  15.802  18.942  0.00  0.00    +0.000 A 
ATOM     29  C   UNL     1       0.883  15.937  18.907  0.00  0.00    +0.000 A 
ATOM     30  O   UNL     1       1.480  14.868  19.490  0.00  0.00    +0.000 OA
ENDBRANCH  22  26
ENDBRANCH  17  18
ENDBRANCH   2  17
TORSDOF 5
ENDMDL
MODEL 9
REMARK VINA RESULT:      -6.4      3.474      9.311
REMARK  Name = 
REMARK  8 active torsions:
REMARK  status: ('A' for Active; 'I' for Inactive)
REMARK    1  A    between atoms: C_1  and  C_2
REMARK    2  A    between atoms: C_2  and  C_3
REMARK    3  A    between atoms: C_3  and  N_4
REMARK    4  A    between atoms: C_5  and  C_6
REMARK    5  A    between atoms: C_6  and  N_7
REMARK    6  A    between atoms: C_11  and  C_13
REMARK    7  A    between atoms: N_25  and  C_26
REMARK    8  A    between atoms: N_29  and  C_30
REMARK                            x       y       z     vdW  Elec       q    Type
REMARK                         _______ _______ _______ _____ _____    ______ ____
ROOT
ATOM      1  N   UNL     1       0.443  13.691  20.149  0.00  0.00    +0.000 N 
ATOM      2  C   UNL     1       1.541  12.824  20.134  0.00  0.00    +0.000 A 
ATOM      3  N   UNL     1       2.590  13.442  19.621  0.00  0.00    +0.000 NA
ATOM      4  C   UNL     1       2.129  14.610  19.134  0.00  0.00    +0.000 A 
ATOM      5  C   UNL     1       0.830  14.832  19.469  0.00  0.00    +0.000 A 
ATOM      6  C   UNL     1       0.151  16.032  19.070  0.00  0.00    +0.000 A 
ATOM      7  O   UNL     1      -1.018  16.271  19.348  0.00  0.00    +0.000 OA
ATOM      8  N   UNL     1       0.963  16.903  18.319  0.00  0.00    +0.000 N 
ATOM      9  C   UNL     1       0.410  18.164  17.866  0.00  0.00    +0.000 C 
ATOM     10  C   UNL     1       2.279  16.633  17.892  0.00  0.00    +0.000 A 
ATOM     11  O   UNL     1       2.879  17.408  17.141  0.00  0.00    +0.000 OA
ATOM     12  N   UNL     1       2.862  15.461  18.348  0.00  0.00    +0.000 N 
ATOM     13  C   UNL     1       4.174  15.055  17.877  0.00  0.00    +0.000 C 
ENDROOT
BRANCH   1  14
ATOM     14  C   UNL     1      -0.886  13.406  20.664  0.00  0.00    +0.000 C 
BRANCH  14  16
ATOM     15  C   UNL     1      -0.604  14.668  22.877  0.00  0.00    +0.000 C 
ATOM     16  C   UNL     1      -1.023  13.378  22.188  0.00  0.00    +0.000 C 
ENDBRANCH  14  16
ENDBRANCH   1  14
BRANCH   2  17
ATOM     17  C   UNL     1       1.584  11.383  20.607  0.00  0.00    +0.000 C 
BRANCH  17  18
ATOM     18  N   UNL     1       0.728  10.484  19.804  0.00  0.00    +0.000 NA
ATOM     19  C   UNL     1       1.297  10.072  18.497  0.00  0.00    +0.000 C 
ATOM     20  C   UNL     1       2.387   8.987  18.546  0.00  0.00    +0.000 C 
ATOM     21  N   UNL     1       1.930   7.806  19.275  0.00  0.00    +0.000 N 
ATOM     22  C   UNL     1       2.506   6.567  18.925  0.00  0.00    +0.000 C 
ATOM     23  O   UNL     1       3.375   6.509  18.052  0.00  0.00    +0.000 OA
ATOM     24  C   UNL     1       1.351   8.109  20.587  0.00  0.00    +0.000 C 
ATOM     25  C   UNL     1       0.326   9.267  20.540  0.00  0.00    +0.000 C 
BRANCH  22  26
ATOM     26  C   UNL     1       2.071   5.359  19.612  0.00  0.00    +0.000 A 
ATOM     27  C   UNL     1       2.402   4.881  20.869  0.00  0.00    +0.000 A 
ATOM     28  C   UNL     1       1.705   3.660  21.046  0.00  0.00    +0.000 A 
ATOM     29  C   UNL     1       1.036   3.434  19.869  0.00  0.00    +0.000 A 
ATOM     30  O   UNL     1       1.271   4.438  18.988  0.00  0.00    +0.000 OA
ENDBRANCH  22  26
ENDBRANCH  17  18
ENDBRANCH   2  17
TORSDOF 5
ENDMDL
