MODEL 1
REMARK VINA RESULT:      -9.4      0.000      0.000
REMARK  Name = 
REMARK  6 active torsions:
REMARK  status: ('A' for Active; 'I' for Inactive)
REMARK    1  A    between atoms: C_2  and  O_3
REMARK    2  A    between atoms: C_2  and  C_4
REMARK    3  A    between atoms: C_9  and  C_10
REMARK    4  A    between atoms: C_10  and  O_11
REMARK    5  A    between atoms: O_11  and  C_12
REMARK    6  A    between atoms: C_15  and  C_16
REMARK                            x       y       z     vdW  Elec       q    Type
REMARK                         _______ _______ _______ _____ _____    ______ ____
ROOT
ATOM      1  O   UNL     1       1.599  10.608  18.646  0.00  0.00    +0.000 OA
ENDROOT
BRANCH   1   2
ATOM      2  C   UNL     1       1.791   9.265  18.828  0.00  0.00    +0.000 A 
ATOM      3  C   UNL     1       2.284   8.577  17.727  0.00  0.00    +0.000 A 
ATOM      4  C   UNL     1       2.516   7.203  17.799  0.00  0.00    +0.000 A 
ATOM      5  C   UNL     1       2.291   6.475  18.983  0.00  0.00    +0.000 A 
ATOM      6  C   UNL     1       1.815   7.196  20.091  0.00  0.00    +0.000 A 
ATOM      7  C   UNL     1       1.566   8.572  20.015  0.00  0.00    +0.000 A 
BRANCH   5   8
ATOM      8  C   UNL     1       2.528   4.960  19.081  0.00  0.00    +0.000 C 
ATOM      9  C   UNL     1       2.510   4.456  20.554  0.00  0.00    +0.000 C 
ATOM     10  C   UNL     1       2.768   2.949  20.646  0.00  0.00    +0.000 C 
ATOM     11  C   UNL     1       1.675   2.208  19.867  0.00  0.00    +0.000 C 
ATOM     12  C   UNL     1       1.700   2.641  18.394  0.00  0.00    +0.000 C 
ATOM     13  C   UNL     1       3.079   2.321  17.794  0.00  0.00    +0.000 C 
ATOM     14  C   UNL     1       4.174   3.076  18.565  0.00  0.00    +0.000 C 
ATOM     15  C   UNL     1       4.143   2.643  20.039  0.00  0.00    +0.000 C 
ATOM     16  C   UNL     1       3.914   4.590  18.472  0.00  0.00    +0.000 C 
ATOM     17  C   UNL     1       1.442   4.159  18.301  0.00  0.00    +0.000 C 
ENDBRANCH   5   8
ENDBRANCH   1   2
BRANCH   1  18
ATOM     18  C   UNL     1       0.707  11.218  19.584  0.00  0.00    +0.000 C 
BRANCH  18  24
ATOM     19  C   UNL     1      -4.928  11.552  17.604  0.00  0.00    +0.000 A 
ATOM     20  C   UNL     1      -4.360  11.197  16.371  0.00  0.00    +0.000 A 
ATOM     21  C   UNL     1      -2.982  10.991  16.233  0.00  0.00    +0.000 A 
ATOM     22  C   UNL     1      -2.213  11.151  17.387  0.00  0.00    +0.000 A 
ATOM     23  N   UNL     1      -0.872  11.018  17.630  0.00  0.00    +0.000 N 
ATOM     24  C   UNL     1      -0.647  11.276  18.963  0.00  0.00    +0.000 A 
ATOM     25  N   UNL     1      -1.774  11.575  19.578  0.00  0.00    +0.000 NA
ATOM     26  C   UNL     1      -2.751  11.491  18.622  0.00  0.00    +0.000 A 
ATOM     27  C   UNL     1      -4.131  11.687  18.751  0.00  0.00    +0.000 A 
ATOM     28  H   UNL     1      -0.155  10.757  16.967  0.00  0.00    +0.000 HD
BRANCH  19  30
ATOM     29  O   UNL     1      -7.104  11.122  18.452  0.00  0.00    +0.000 OA
ATOM     30  C   UNL     1      -6.397  11.736  17.669  0.00  0.00    +0.000 C 
BRANCH  30  31
ATOM     31  O   UNL     1      -6.887  12.602  16.757  0.00  0.00    +0.000 OA
ATOM     32  H   UNL     1      -7.549  13.231  17.100  0.00  0.00    +0.000 HD
ENDBRANCH  30  31
ENDBRANCH  19  30
ENDBRANCH  18  24
ENDBRANCH   1  18
TORSDOF 6
ENDMDL
MODEL 2
REMARK VINA RESULT:      -9.3      0.741      1.455
REMARK  Name = 
REMARK  6 active torsions:
REMARK  status: ('A' for Active; 'I' for Inactive)
REMARK    1  A    between atoms: C_2  and  O_3
REMARK    2  A    between atoms: C_2  and  C_4
REMARK    3  A    between atoms: C_9  and  C_10
REMARK    4  A    between atoms: C_10  and  O_11
REMARK    5  A    between atoms: O_11  and  C_12
REMARK    6  A    between atoms: C_15  and  C_16
REMARK                            x       y       z     vdW  Elec       q    Type
REMARK                         _______ _______ _______ _____ _____    ______ ____
ROOT
ATOM      1  O   UNL     1       0.754  10.521  20.389  0.00  0.00    +0.000 OA
ENDROOT
BRANCH   1   2
ATOM      2  C   UNL     1       1.150   9.226  20.187  0.00  0.00    +0.000 A 
ATOM      3  C   UNL     1       1.743   8.967  18.958  0.00  0.00    +0.000 A 
ATOM      4  C   UNL     1       2.183   7.680  18.644  0.00  0.00    +0.000 A 
ATOM      5  C   UNL     1       2.074   6.616  19.559  0.00  0.00    +0.000 A 
ATOM      6  C   UNL     1       1.493   6.907  20.805  0.00  0.00    +0.000 A 
ATOM      7  C   UNL     1       1.035   8.194  21.115  0.00  0.00    +0.000 A 
BRANCH   5   8
ATOM      8  C   UNL     1       2.541   5.190  19.229  0.00  0.00    +0.000 C 
ATOM      9  C   UNL     1       4.093   5.065  19.232  0.00  0.00    +0.000 C 
ATOM     10  C   UNL     1       4.552   3.646  18.882  0.00  0.00    +0.000 C 
ATOM     11  C   UNL     1       3.985   2.669  19.919  0.00  0.00    +0.000 C 
ATOM     12  C   UNL     1       2.451   2.726  19.905  0.00  0.00    +0.000 C 
ATOM     13  C   UNL     1       1.942   2.356  18.502  0.00  0.00    +0.000 C 
ATOM     14  C   UNL     1       2.498   3.344  17.464  0.00  0.00    +0.000 C 
ATOM     15  C   UNL     1       4.033   3.286  17.484  0.00  0.00    +0.000 C 
ATOM     16  C   UNL     1       2.035   4.770  17.817  0.00  0.00    +0.000 C 
ATOM     17  C   UNL     1       1.987   4.155  20.255  0.00  0.00    +0.000 C 
ENDBRANCH   5   8
ENDBRANCH   1   2
BRANCH   1  18
ATOM     18  C   UNL     1       0.715  11.325  19.207  0.00  0.00    +0.000 C 
BRANCH  18  24
ATOM     19  C   UNL     1      -5.079  11.547  17.731  0.00  0.00    +0.000 A 
ATOM     20  C   UNL     1      -4.624  11.115  16.476  0.00  0.00    +0.000 A 
ATOM     21  C   UNL     1      -3.263  10.898  16.227  0.00  0.00    +0.000 A 
ATOM     22  C   UNL     1      -2.393  11.128  17.293  0.00  0.00    +0.000 A 
ATOM     23  N   UNL     1      -1.035  11.007  17.422  0.00  0.00    +0.000 N 
ATOM     24  C   UNL     1      -0.691  11.347  18.709  0.00  0.00    +0.000 A 
ATOM     25  N   UNL     1      -1.758  11.687  19.404  0.00  0.00    +0.000 NA
ATOM     26  C   UNL     1      -2.817  11.545  18.548  0.00  0.00    +0.000 A 
ATOM     27  C   UNL     1      -4.181  11.752  18.791  0.00  0.00    +0.000 A 
ATOM     28  H   UNL     1      -0.380  10.704  16.714  0.00  0.00    +0.000 HD
BRANCH  19  30
ATOM     29  O   UNL     1      -7.110  12.770  17.610  0.00  0.00    +0.000 OA
ATOM     30  C   UNL     1      -6.535  11.738  17.918  0.00  0.00    +0.000 C 
BRANCH  30  31
ATOM     31  O   UNL     1      -7.161  10.694  18.501  0.00  0.00    +0.000 OA
ATOM     32  H   UNL     1      -8.135  10.754  18.521  0.00  0.00    +0.000 HD
ENDBRANCH  30  31
ENDBRANCH  19  30
ENDBRANCH  18  24
ENDBRANCH   1  18
TORSDOF 6
ENDMDL
MODEL 3
REMARK VINA RESULT:      -9.3      0.511      1.904
REMARK  Name = 
REMARK  6 active torsions:
REMARK  status: ('A' for Active; 'I' for Inactive)
REMARK    1  A    between atoms: C_2  and  O_3
REMARK    2  A    between atoms: C_2  and  C_4
REMARK    3  A    between atoms: C_9  and  C_10
REMARK    4  A    between atoms: C_10  and  O_11
REMARK    5  A    between atoms: O_11  and  C_12
REMARK    6  A    between atoms: C_15  and  C_16
REMARK                            x       y       z     vdW  Elec       q    Type
REMARK                         _______ _______ _______ _____ _____    ______ ____
ROOT
ATOM      1  O   UNL     1       1.497  10.830  18.791  0.00  0.00    +0.000 OA
ENDROOT
BRANCH   1   2
ATOM      2  C   UNL     1       1.704   9.478  18.811  0.00  0.00    +0.000 A 
ATOM      3  C   UNL     1       1.466   8.854  20.029  0.00  0.00    +0.000 A 
ATOM      4  C   UNL     1       1.647   7.477  20.165  0.00  0.00    +0.000 A 
ATOM      5  C   UNL     1       2.042   6.671  19.080  0.00  0.00    +0.000 A 
ATOM      6  C   UNL     1       2.253   7.320  17.852  0.00  0.00    +0.000 A 
ATOM      7  C   UNL     1       2.089   8.704  17.719  0.00  0.00    +0.000 A 
BRANCH   5   8
ATOM      8  C   UNL     1       2.258   5.156  19.211  0.00  0.00    +0.000 C 
ATOM      9  C   UNL     1       1.905   4.397  17.898  0.00  0.00    +0.000 C 
ATOM     10  C   UNL     1       2.102   2.885  18.041  0.00  0.00    +0.000 C 
ATOM     11  C   UNL     1       3.570   2.604  18.383  0.00  0.00    +0.000 C 
ATOM     12  C   UNL     1       3.939   3.294  19.705  0.00  0.00    +0.000 C 
ATOM     13  C   UNL     1       3.029   2.764  20.825  0.00  0.00    +0.000 C 
ATOM     14  C   UNL     1       1.558   3.059  20.489  0.00  0.00    +0.000 C 
ATOM     15  C   UNL     1       1.195   2.370  19.165  0.00  0.00    +0.000 C 
ATOM     16  C   UNL     1       1.361   4.579  20.346  0.00  0.00    +0.000 C 
ATOM     17  C   UNL     1       3.738   4.817  19.561  0.00  0.00    +0.000 C 
ENDBRANCH   5   8
ENDBRANCH   1   2
BRANCH   1  18
ATOM     18  C   UNL     1       0.545  11.305  19.746  0.00  0.00    +0.000 C 
BRANCH  18  24
ATOM     19  C   UNL     1      -5.009  11.710  17.559  0.00  0.00    +0.000 A 
ATOM     20  C   UNL     1      -4.408  11.303  16.359  0.00  0.00    +0.000 A 
ATOM     21  C   UNL     1      -3.031  11.060  16.276  0.00  0.00    +0.000 A 
ATOM     22  C   UNL     1      -2.299  11.238  17.451  0.00  0.00    +0.000 A 
ATOM     23  N   UNL     1      -0.971  11.081  17.746  0.00  0.00    +0.000 N 
ATOM     24  C   UNL     1      -0.786  11.375  19.076  0.00  0.00    +0.000 A 
ATOM     25  N   UNL     1      -1.926  11.721  19.642  0.00  0.00    +0.000 NA
ATOM     26  C   UNL     1      -2.870  11.629  18.655  0.00  0.00    +0.000 A 
ATOM     27  C   UNL     1      -4.249  11.862  18.730  0.00  0.00    +0.000 A 
ATOM     28  H   UNL     1      -0.238  10.782  17.117  0.00  0.00    +0.000 HD
BRANCH  19  30
ATOM     29  O   UNL     1      -7.008  12.831  16.938  0.00  0.00    +0.000 OA
ATOM     30  C   UNL     1      -6.474  11.931  17.567  0.00  0.00    +0.000 C 
BRANCH  30  31
ATOM     31  O   UNL     1      -7.158  11.084  18.365  0.00  0.00    +0.000 OA
ATOM     32  H   UNL     1      -8.103  11.297  18.479  0.00  0.00    +0.000 HD
ENDBRANCH  30  31
ENDBRANCH  19  30
ENDBRANCH  18  24
ENDBRANCH   1  18
TORSDOF 6
ENDMDL
MODEL 4
REMARK VINA RESULT:      -9.3      0.729      1.782
REMARK  Name = 
REMARK  6 active torsions:
REMARK  status: ('A' for Active; 'I' for Inactive)
REMARK    1  A    between atoms: C_2  and  O_3
REMARK    2  A    between atoms: C_2  and  C_4
REMARK    3  A    between atoms: C_9  and  C_10
REMARK    4  A    between atoms: C_10  and  O_11
REMARK    5  A    between atoms: O_11  and  C_12
REMARK    6  A    between atoms: C_15  and  C_16
REMARK                            x       y       z     vdW  Elec       q    Type
REMARK                         _______ _______ _______ _____ _____    ______ ____
ROOT
ATOM      1  O   UNL     1       0.801  10.518  20.406  0.00  0.00    +0.000 OA
ENDROOT
BRANCH   1   2
ATOM      2  C   UNL     1       1.187   9.222  20.199  0.00  0.00    +0.000 A 
ATOM      3  C   UNL     1       1.747   8.955  18.955  0.00  0.00    +0.000 A 
ATOM      4  C   UNL     1       2.174   7.666  18.635  0.00  0.00    +0.000 A 
ATOM      5  C   UNL     1       2.084   6.606  19.556  0.00  0.00    +0.000 A 
ATOM      6  C   UNL     1       1.537   6.903  20.815  0.00  0.00    +0.000 A 
ATOM      7  C   UNL     1       1.092   8.193  21.132  0.00  0.00    +0.000 A 
BRANCH   5   8
ATOM      8  C   UNL     1       2.537   5.177  19.220  0.00  0.00    +0.000 C 
ATOM      9  C   UNL     1       2.039   4.718  17.818  0.00  0.00    +0.000 C 
ATOM     10  C   UNL     1       2.476   3.284  17.497  0.00  0.00    +0.000 C 
ATOM     11  C   UNL     1       4.007   3.215  17.515  0.00  0.00    +0.000 C 
ATOM     12  C   UNL     1       4.532   3.610  18.903  0.00  0.00    +0.000 C 
ATOM     13  C   UNL     1       3.952   2.652  19.956  0.00  0.00    +0.000 C 
ATOM     14  C   UNL     1       2.417   2.732  19.949  0.00  0.00    +0.000 C 
ATOM     15  C   UNL     1       1.896   2.340  18.558  0.00  0.00    +0.000 C 
ATOM     16  C   UNL     1       1.979   4.172  20.272  0.00  0.00    +0.000 C 
ATOM     17  C   UNL     1       4.090   5.052  19.227  0.00  0.00    +0.000 C 
ENDBRANCH   5   8
ENDBRANCH   1   2
BRANCH   1  18
ATOM     18  C   UNL     1       0.765  11.327  19.227  0.00  0.00    +0.000 C 
BRANCH  18  24
ATOM     19  C   UNL     1      -5.023  11.577  17.733  0.00  0.00    +0.000 A 
ATOM     20  C   UNL     1      -4.572  11.095  16.495  0.00  0.00    +0.000 A 
ATOM     21  C   UNL     1      -3.214  10.851  16.256  0.00  0.00    +0.000 A 
ATOM     22  C   UNL     1      -2.343  11.106  17.315  0.00  0.00    +0.000 A 
ATOM     23  N   UNL     1      -0.986  10.971  17.450  0.00  0.00    +0.000 N 
ATOM     24  C   UNL     1      -0.640  11.351  18.726  0.00  0.00    +0.000 A 
ATOM     25  N   UNL     1      -1.703  11.730  19.407  0.00  0.00    +0.000 NA
ATOM     26  C   UNL     1      -2.763  11.572  18.554  0.00  0.00    +0.000 A 
ATOM     27  C   UNL     1      -4.124  11.806  18.786  0.00  0.00    +0.000 A 
ATOM     28  H   UNL     1      -0.335  10.635  16.755  0.00  0.00    +0.000 HD
BRANCH  19  30
ATOM     29  O   UNL     1      -7.023  12.853  17.643  0.00  0.00    +0.000 OA
ATOM     30  C   UNL     1      -6.477  11.794  17.910  0.00  0.00    +0.000 C 
BRANCH  30  31
ATOM     31  O   UNL     1      -7.135  10.739  18.437  0.00  0.00    +0.000 OA
ATOM     32  H   UNL     1      -6.564  10.037  18.801  0.00  0.00    +0.000 HD
ENDBRANCH  30  31
ENDBRANCH  19  30
ENDBRANCH  18  24
ENDBRANCH   1  18
TORSDOF 6
ENDMDL
MODEL 5
REMARK VINA RESULT:      -9.2      0.483      1.050
REMARK  Name = 
REMARK  6 active torsions:
REMARK  status: ('A' for Active; 'I' for Inactive)
REMARK    1  A    between atoms: C_2  and  O_3
REMARK    2  A    between atoms: C_2  and  C_4
REMARK    3  A    between atoms: C_9  and  C_10
REMARK    4  A    between atoms: C_10  and  O_11
REMARK    5  A    between atoms: O_11  and  C_12
REMARK    6  A    between atoms: C_15  and  C_16
REMARK                            x       y       z     vdW  Elec       q    Type
REMARK                         _______ _______ _______ _____ _____    ______ ____
ROOT
ATOM      1  O   UNL     1       1.604  10.661  18.807  0.00  0.00    +0.000 OA
ENDROOT
BRANCH   1   2
ATOM      2  C   UNL     1       1.789   9.305  18.841  0.00  0.00    +0.000 A 
ATOM      3  C   UNL     1       1.493   8.692  20.053  0.00  0.00    +0.000 A 
ATOM      4  C   UNL     1       1.647   7.313  20.202  0.00  0.00    +0.000 A 
ATOM      5  C   UNL     1       2.072   6.496  19.138  0.00  0.00    +0.000 A 
ATOM      6  C   UNL     1       2.342   7.134  17.916  0.00  0.00    +0.000 A 
ATOM      7  C   UNL     1       2.205   8.520  17.769  0.00  0.00    +0.000 A 
BRANCH   5   8
ATOM      8  C   UNL     1       2.259   4.978  19.284  0.00  0.00    +0.000 C 
ATOM      9  C   UNL     1       1.391   4.387  20.434  0.00  0.00    +0.000 C 
ATOM     10  C   UNL     1       1.598   2.877  20.588  0.00  0.00    +0.000 C 
ATOM     11  C   UNL     1       1.205   2.184  19.278  0.00  0.00    +0.000 C 
ATOM     12  C   UNL     1       2.081   2.704  18.130  0.00  0.00    +0.000 C 
ATOM     13  C   UNL     1       3.558   2.421  18.450  0.00  0.00    +0.000 C 
ATOM     14  C   UNL     1       3.957   3.128  19.756  0.00  0.00    +0.000 C 
ATOM     15  C   UNL     1       3.075   2.608  20.901  0.00  0.00    +0.000 C 
ATOM     16  C   UNL     1       3.749   4.646  19.599  0.00  0.00    +0.000 C 
ATOM     17  C   UNL     1       1.875   4.225  17.975  0.00  0.00    +0.000 C 
ENDBRANCH   5   8
ENDBRANCH   1   2
BRANCH   1  18
ATOM     18  C   UNL     1       0.665  11.162  19.762  0.00  0.00    +0.000 C 
BRANCH  18  24
ATOM     19  C   UNL     1      -4.873  11.731  17.573  0.00  0.00    +0.000 A 
ATOM     20  C   UNL     1      -4.287  11.291  16.377  0.00  0.00    +0.000 A 
ATOM     21  C   UNL     1      -2.920  11.000  16.297  0.00  0.00    +0.000 A 
ATOM     22  C   UNL     1      -2.181  11.166  17.469  0.00  0.00    +0.000 A 
ATOM     23  N   UNL     1      -0.858  10.967  17.765  0.00  0.00    +0.000 N 
ATOM     24  C   UNL     1      -0.663  11.270  19.092  0.00  0.00    +0.000 A 
ATOM     25  N   UNL     1      -1.790  11.660  19.654  0.00  0.00    +0.000 NA
ATOM     26  C   UNL     1      -2.737  11.590  18.669  0.00  0.00    +0.000 A 
ATOM     27  C   UNL     1      -4.107  11.870  18.742  0.00  0.00    +0.000 A 
ATOM     28  H   UNL     1      -0.137  10.637  17.139  0.00  0.00    +0.000 HD
BRANCH  19  30
ATOM     29  O   UNL     1      -7.135  11.264  18.125  0.00  0.00    +0.000 OA
ATOM     30  C   UNL     1      -6.330  12.001  17.579  0.00  0.00    +0.000 C 
BRANCH  30  31
ATOM     31  O   UNL     1      -6.691  13.103  16.888  0.00  0.00    +0.000 OA
ATOM     32  H   UNL     1      -6.667  13.935  17.397  0.00  0.00    +0.000 HD
ENDBRANCH  30  31
ENDBRANCH  19  30
ENDBRANCH  18  24
ENDBRANCH   1  18
TORSDOF 6
ENDMDL
MODEL 6
REMARK VINA RESULT:      -9.2      0.790      1.690
REMARK  Name = 
REMARK  6 active torsions:
REMARK  status: ('A' for Active; 'I' for Inactive)
REMARK    1  A    between atoms: C_2  and  O_3
REMARK    2  A    between atoms: C_2  and  C_4
REMARK    3  A    between atoms: C_9  and  C_10
REMARK    4  A    between atoms: C_10  and  O_11
REMARK    5  A    between atoms: O_11  and  C_12
REMARK    6  A    between atoms: C_15  and  C_16
REMARK                            x       y       z     vdW  Elec       q    Type
REMARK                         _______ _______ _______ _____ _____    ______ ____
ROOT
ATOM      1  O   UNL     1       0.681  10.315  20.707  0.00  0.00    +0.000 OA
ENDROOT
BRANCH   1   2
ATOM      2  C   UNL     1       1.182   9.120  20.266  0.00  0.00    +0.000 A 
ATOM      3  C   UNL     1       1.121   8.073  21.177  0.00  0.00    +0.000 A 
ATOM      4  C   UNL     1       1.605   6.810  20.834  0.00  0.00    +0.000 A 
ATOM      5  C   UNL     1       2.139   6.542  19.560  0.00  0.00    +0.000 A 
ATOM      6  C   UNL     1       2.169   7.610  18.647  0.00  0.00    +0.000 A 
ATOM      7  C   UNL     1       1.699   8.883  18.995  0.00  0.00    +0.000 A 
BRANCH   5   8
ATOM      8  C   UNL     1       2.688   5.163  19.166  0.00  0.00    +0.000 C 
ATOM      9  C   UNL     1       4.232   5.180  18.964  0.00  0.00    +0.000 C 
ATOM     10  C   UNL     1       4.770   3.807  18.551  0.00  0.00    +0.000 C 
ATOM     11  C   UNL     1       4.436   2.790  19.649  0.00  0.00    +0.000 C 
ATOM     12  C   UNL     1       2.915   2.706  19.837  0.00  0.00    +0.000 C 
ATOM     13  C   UNL     1       2.263   2.280  18.512  0.00  0.00    +0.000 C 
ATOM     14  C   UNL     1       2.584   3.306  17.414  0.00  0.00    +0.000 C 
ATOM     15  C   UNL     1       4.107   3.390  17.232  0.00  0.00    +0.000 C 
ATOM     16  C   UNL     1       2.042   4.686  17.830  0.00  0.00    +0.000 C 
ATOM     17  C   UNL     1       2.372   4.090  20.251  0.00  0.00    +0.000 C 
ENDBRANCH   5   8
ENDBRANCH   1   2
BRANCH   1  18
ATOM     18  C   UNL     1       0.687  11.362  19.733  0.00  0.00    +0.000 C 
BRANCH  18  24
ATOM     19  C   UNL     1      -4.959  11.787  17.800  0.00  0.00    +0.000 A 
ATOM     20  C   UNL     1      -4.419  11.347  16.582  0.00  0.00    +0.000 A 
ATOM     21  C   UNL     1      -3.051  11.086  16.440  0.00  0.00    +0.000 A 
ATOM     22  C   UNL     1      -2.262  11.280  17.575  0.00  0.00    +0.000 A 
ATOM     23  N   UNL     1      -0.923  11.113  17.811  0.00  0.00    +0.000 N 
ATOM     24  C   UNL     1      -0.673  11.434  19.125  0.00  0.00    +0.000 A 
ATOM     25  N   UNL     1      -1.781  11.806  19.735  0.00  0.00    +0.000 NA
ATOM     26  C   UNL     1      -2.772  11.705  18.796  0.00  0.00    +0.000 A 
ATOM     27  C   UNL     1      -4.143  11.955  18.929  0.00  0.00    +0.000 A 
ATOM     28  H   UNL     1      -0.224  10.792  17.155  0.00  0.00    +0.000 HD
BRANCH  19  30
ATOM     29  O   UNL     1      -7.072  11.822  18.882  0.00  0.00    +0.000 OA
ATOM     30  C   UNL     1      -6.419  12.026  17.871  0.00  0.00    +0.000 C 
BRANCH  30  31
ATOM     31  O   UNL     1      -6.970  12.439  16.710  0.00  0.00    +0.000 OA
ATOM     32  H   UNL     1      -6.442  13.090  16.211  0.00  0.00    +0.000 HD
ENDBRANCH  30  31
ENDBRANCH  19  30
ENDBRANCH  18  24
ENDBRANCH   1  18
TORSDOF 6
ENDMDL
MODEL 7
REMARK VINA RESULT:      -9.2      1.764      2.452
REMARK  Name = 
REMARK  6 active torsions:
REMARK  status: ('A' for Active; 'I' for Inactive)
REMARK    1  A    between atoms: C_2  and  O_3
REMARK    2  A    between atoms: C_2  and  C_4
REMARK    3  A    between atoms: C_9  and  C_10
REMARK    4  A    between atoms: C_10  and  O_11
REMARK    5  A    between atoms: O_11  and  C_12
REMARK    6  A    between atoms: C_15  and  C_16
REMARK                            x       y       z     vdW  Elec       q    Type
REMARK                         _______ _______ _______ _____ _____    ______ ____
ROOT
ATOM      1  O   UNL     1       1.025  10.478  19.978  0.00  0.00    +0.000 OA
ENDROOT
BRANCH   1   2
ATOM      2  C   UNL     1       1.409   9.189  19.724  0.00  0.00    +0.000 A 
ATOM      3  C   UNL     1       1.225   8.293  20.771  0.00  0.00    +0.000 A 
ATOM      4  C   UNL     1       1.583   6.953  20.623  0.00  0.00    +0.000 A 
ATOM      5  C   UNL     1       2.110   6.455  19.417  0.00  0.00    +0.000 A 
ATOM      6  C   UNL     1       2.265   7.373  18.365  0.00  0.00    +0.000 A 
ATOM      7  C   UNL     1       1.922   8.723  18.517  0.00  0.00    +0.000 A 
BRANCH   5   8
ATOM      8  C   UNL     1       2.522   4.986  19.237  0.00  0.00    +0.000 C 
ATOM      9  C   UNL     1       1.960   4.076  20.369  0.00  0.00    +0.000 C 
ATOM     10  C   UNL     1       2.392   2.616  20.196  0.00  0.00    +0.000 C 
ATOM     11  C   UNL     1       1.868   2.097  18.852  0.00  0.00    +0.000 C 
ATOM     12  C   UNL     1       2.447   2.940  17.706  0.00  0.00    +0.000 C 
ATOM     13  C   UNL     1       3.982   2.854  17.739  0.00  0.00    +0.000 C 
ATOM     14  C   UNL     1       4.509   3.388  19.080  0.00  0.00    +0.000 C 
ATOM     15  C   UNL     1       3.924   2.545  20.224  0.00  0.00    +0.000 C 
ATOM     16  C   UNL     1       4.074   4.855  19.253  0.00  0.00    +0.000 C 
ATOM     17  C   UNL     1       2.014   4.411  17.881  0.00  0.00    +0.000 C 
ENDBRANCH   5   8
ENDBRANCH   1   2
BRANCH   1  18
ATOM     18  C   UNL     1      -0.339  10.628  20.380  0.00  0.00    +0.000 C 
BRANCH  18  24
ATOM     19  C   UNL     1      -3.328  10.323  15.207  0.00  0.00    +0.000 A 
ATOM     20  C   UNL     1      -4.256  11.146  15.864  0.00  0.00    +0.000 A 
ATOM     21  C   UNL     1      -4.063  11.551  17.190  0.00  0.00    +0.000 A 
ATOM     22  C   UNL     1      -2.900  11.096  17.814  0.00  0.00    +0.000 A 
ATOM     23  N   UNL     1      -2.382  11.298  19.066  0.00  0.00    +0.000 N 
ATOM     24  C   UNL     1      -1.185  10.626  19.152  0.00  0.00    +0.000 A 
ATOM     25  N   UNL     1      -0.918  10.000  18.023  0.00  0.00    +0.000 NA
ATOM     26  C   UNL     1      -1.960  10.291  17.184  0.00  0.00    +0.000 A 
ATOM     27  C   UNL     1      -2.158   9.898  15.854  0.00  0.00    +0.000 A 
ATOM     28  H   UNL     1      -2.782  11.855  19.809  0.00  0.00    +0.000 HD
BRANCH  19  30
ATOM     29  O   UNL     1      -4.728   9.782  13.366  0.00  0.00    +0.000 OA
ATOM     30  C   UNL     1      -3.599   9.953  13.798  0.00  0.00    +0.000 C 
BRANCH  30  31
ATOM     31  O   UNL     1      -2.490   9.775  13.049  0.00  0.00    +0.000 OA
ATOM     32  H   UNL     1      -2.616   9.898  12.090  0.00  0.00    +0.000 HD
ENDBRANCH  30  31
ENDBRANCH  19  30
ENDBRANCH  18  24
ENDBRANCH   1  18
TORSDOF 6
ENDMDL
MODEL 8
REMARK VINA RESULT:      -9.2      0.604      1.627
REMARK  Name = 
REMARK  6 active torsions:
REMARK  status: ('A' for Active; 'I' for Inactive)
REMARK    1  A    between atoms: C_2  and  O_3
REMARK    2  A    between atoms: C_2  and  C_4
REMARK    3  A    between atoms: C_9  and  C_10
REMARK    4  A    between atoms: C_10  and  O_11
REMARK    5  A    between atoms: O_11  and  C_12
REMARK    6  A    between atoms: C_15  and  C_16
REMARK                            x       y       z     vdW  Elec       q    Type
REMARK                         _______ _______ _______ _____ _____    ______ ____
ROOT
ATOM      1  O   UNL     1       1.694  10.593  18.589  0.00  0.00    +0.000 OA
ENDROOT
BRANCH   1   2
ATOM      2  C   UNL     1       1.816   9.250  18.820  0.00  0.00    +0.000 A 
ATOM      3  C   UNL     1       2.257   8.495  17.740  0.00  0.00    +0.000 A 
ATOM      4  C   UNL     1       2.416   7.114  17.862  0.00  0.00    +0.000 A 
ATOM      5  C   UNL     1       2.168   6.444  19.075  0.00  0.00    +0.000 A 
ATOM      6  C   UNL     1       1.745   7.231  20.160  0.00  0.00    +0.000 A 
ATOM      7  C   UNL     1       1.569   8.615  20.034  0.00  0.00    +0.000 A 
BRANCH   5   8
ATOM      8  C   UNL     1       2.325   4.924  19.228  0.00  0.00    +0.000 C 
ATOM      9  C   UNL     1       1.982   4.163  17.913  0.00  0.00    +0.000 C 
ATOM     10  C   UNL     1       2.120   2.646  18.078  0.00  0.00    +0.000 C 
ATOM     11  C   UNL     1       3.567   2.317  18.466  0.00  0.00    +0.000 C 
ATOM     12  C   UNL     1       3.922   3.008  19.790  0.00  0.00    +0.000 C 
ATOM     13  C   UNL     1       2.961   2.524  20.889  0.00  0.00    +0.000 C 
ATOM     14  C   UNL     1       1.512   2.868  20.507  0.00  0.00    +0.000 C 
ATOM     15  C   UNL     1       1.162   2.177  19.180  0.00  0.00    +0.000 C 
ATOM     16  C   UNL     1       1.375   4.392  20.342  0.00  0.00    +0.000 C 
ATOM     17  C   UNL     1       3.781   4.536  19.625  0.00  0.00    +0.000 C 
ENDBRANCH   5   8
ENDBRANCH   1   2
BRANCH   1  18
ATOM     18  C   UNL     1       0.917  11.300  19.561  0.00  0.00    +0.000 C 
BRANCH  18  24
ATOM     19  C   UNL     1      -4.828  11.899  18.003  0.00  0.00    +0.000 A 
ATOM     20  C   UNL     1      -4.376  11.482  16.742  0.00  0.00    +0.000 A 
ATOM     21  C   UNL     1      -3.026  11.195  16.507  0.00  0.00    +0.000 A 
ATOM     22  C   UNL     1      -2.163  11.341  17.594  0.00  0.00    +0.000 A 
ATOM     23  N   UNL     1      -0.816  11.138  17.740  0.00  0.00    +0.000 N 
ATOM     24  C   UNL     1      -0.476  11.418  19.043  0.00  0.00    +0.000 A 
ATOM     25  N   UNL     1      -1.534  11.796  19.732  0.00  0.00    +0.000 NA
ATOM     26  C   UNL     1      -2.585  11.742  18.855  0.00  0.00    +0.000 A 
ATOM     27  C   UNL     1      -3.938  12.019  19.083  0.00  0.00    +0.000 A 
ATOM     28  H   UNL     1      -0.167  10.821  17.033  0.00  0.00    +0.000 HD
BRANCH  19  30
ATOM     29  O   UNL     1      -6.782  12.379  19.263  0.00  0.00    +0.000 OA
ATOM     30  C   UNL     1      -6.274  12.167  18.173  0.00  0.00    +0.000 C 
BRANCH  30  31
ATOM     31  O   UNL     1      -6.987  12.108  17.028  0.00  0.00    +0.000 OA
ATOM     32  H   UNL     1      -7.493  11.284  16.900  0.00  0.00    +0.000 HD
ENDBRANCH  30  31
ENDBRANCH  19  30
ENDBRANCH  18  24
ENDBRANCH   1  18
TORSDOF 6
ENDMDL
MODEL 9
REMARK VINA RESULT:      -9.2      0.844      1.095
REMARK  Name = 
REMARK  6 active torsions:
REMARK  status: ('A' for Active; 'I' for Inactive)
REMARK    1  A    between atoms: C_2  and  O_3
REMARK    2  A    between atoms: C_2  and  C_4
REMARK    3  A    between atoms: C_9  and  C_10
REMARK    4  A    between atoms: C_10  and  O_11
REMARK    5  A    between atoms: O_11  and  C_12
REMARK    6  A    between atoms: C_15  and  C_16
REMARK                            x       y       z     vdW  Elec       q    Type
REMARK                         _______ _______ _______ _____ _____    ______ ____
ROOT
ATOM      1  O   UNL     1       0.791  10.822  20.196  0.00  0.00    +0.000 OA
ENDROOT
BRANCH   1   2
ATOM      2  C   UNL     1       1.128   9.503  20.060  0.00  0.00    +0.000 A 
ATOM      3  C   UNL     1       1.696   9.153  18.841  0.00  0.00    +0.000 A 
ATOM      4  C   UNL     1       2.076   7.834  18.592  0.00  0.00    +0.000 A 
ATOM      5  C   UNL     1       1.928   6.825  19.562  0.00  0.00    +0.000 A 
ATOM      6  C   UNL     1       1.373   7.206  20.795  0.00  0.00    +0.000 A 
ATOM      7  C   UNL     1       0.976   8.526  21.041  0.00  0.00    +0.000 A 
BRANCH   5   8
ATOM      8  C   UNL     1       2.329   5.364  19.304  0.00  0.00    +0.000 C 
ATOM      9  C   UNL     1       1.593   4.377  20.257  0.00  0.00    +0.000 C 
ATOM     10  C   UNL     1       2.013   2.924  20.009  0.00  0.00    +0.000 C 
ATOM     11  C   UNL     1       1.672   2.547  18.562  0.00  0.00    +0.000 C 
ATOM     12  C   UNL     1       2.425   3.469  17.592  0.00  0.00    +0.000 C 
ATOM     13  C   UNL     1       3.938   3.326  17.828  0.00  0.00    +0.000 C 
ATOM     14  C   UNL     1       4.282   3.718  19.274  0.00  0.00    +0.000 C 
ATOM     15  C   UNL     1       3.524   2.797  20.241  0.00  0.00    +0.000 C 
ATOM     16  C   UNL     1       3.861   5.178  19.521  0.00  0.00    +0.000 C 
ATOM     17  C   UNL     1       2.004   4.932  17.843  0.00  0.00    +0.000 C 
ENDBRANCH   5   8
ENDBRANCH   1   2
BRANCH   1  18
ATOM     18  C   UNL     1       0.656  11.536  18.964  0.00  0.00    +0.000 C 
BRANCH  18  24
ATOM     19  C   UNL     1      -5.240  11.605  17.952  0.00  0.00    +0.000 A 
ATOM     20  C   UNL     1      -4.873  11.217  16.655  0.00  0.00    +0.000 A 
ATOM     21  C   UNL     1      -3.530  11.049  16.294  0.00  0.00    +0.000 A 
ATOM     22  C   UNL     1      -2.586  11.283  17.295  0.00  0.00    +0.000 A 
ATOM     23  N   UNL     1      -1.219  11.203  17.313  0.00  0.00    +0.000 N 
ATOM     24  C   UNL     1      -0.785  11.524  18.578  0.00  0.00    +0.000 A 
ATOM     25  N   UNL     1      -1.804  11.814  19.363  0.00  0.00    +0.000 NA
ATOM     26  C   UNL     1      -2.922  11.657  18.589  0.00  0.00    +0.000 A 
ATOM     27  C   UNL     1      -4.268  11.814  18.943  0.00  0.00    +0.000 A 
ATOM     28  H   UNL     1      -0.613  10.937  16.549  0.00  0.00    +0.000 HD
BRANCH  19  30
ATOM     29  O   UNL     1      -7.278  12.806  18.156  0.00  0.00    +0.000 OA
ATOM     30  C   UNL     1      -6.683  11.745  18.257  0.00  0.00    +0.000 C 
BRANCH  30  31
ATOM     31  O   UNL     1      -7.268  10.612  18.701  0.00  0.00    +0.000 OA
ATOM     32  H   UNL     1      -7.595  10.649  19.619  0.00  0.00    +0.000 HD
ENDBRANCH  30  31
ENDBRANCH  19  30
ENDBRANCH  18  24
ENDBRANCH   1  18
TORSDOF 6
ENDMDL
