MODEL 1
REMARK VINA RESULT:      -7.9      0.000      0.000
REMARK  Name = 
REMARK  7 active torsions:
REMARK  status: ('A' for Active; 'I' for Inactive)
REMARK    1  A    between atoms: C_1  and  O_2
REMARK    2  A    between atoms: O_2  and  C_3
REMARK    3  A    between atoms: C_6  and  N_7
REMARK    4  A    between atoms: N_10  and  C_11
REMARK    5  A    between atoms: C_11  and  C_12
REMARK    6  A    between atoms: C_19  and  O_20
REMARK    7  A    between atoms: O_20  and  C_21
REMARK                            x       y       z     vdW  Elec       q    Type
REMARK                         _______ _______ _______ _____ _____    ______ ____
ROOT
ATOM      1  N   UNL     1      -0.171  11.108  22.213  0.00  0.00    +0.000 N 
ATOM      2  C   UNL     1      -0.075   9.755  22.783  0.00  0.00    +0.000 C 
ATOM      3  C   UNL     1      -0.476   8.663  21.757  0.00  0.00    +0.000 C 
ATOM      4  N   UNL     1       0.179   8.767  20.425  0.00  0.00    +0.000 NA
ATOM      5  C   UNL     1      -0.066  10.144  19.931  0.00  0.00    +0.000 C 
ATOM      6  C   UNL     1       0.400  11.280  20.868  0.00  0.00    +0.000 C 
ENDROOT
BRANCH   1  10
ATOM      7  C   UNL     1      -2.786  14.092  23.661  0.00  0.00    +0.000 A 
ATOM      8  C   UNL     1      -1.533  14.425  23.159  0.00  0.00    +0.000 A 
ATOM      9  C   UNL     1      -0.678  13.427  22.681  0.00  0.00    +0.000 A 
ATOM     10  C   UNL     1      -1.034  12.069  22.701  0.00  0.00    +0.000 A 
ATOM     11  C   UNL     1      -2.287  11.758  23.245  0.00  0.00    +0.000 A 
ATOM     12  C   UNL     1      -3.156  12.750  23.719  0.00  0.00    +0.000 A 
BRANCH   7  14
ATOM     13  C   UNL     1      -2.996  15.867  25.195  0.00  0.00    +0.000 C 
ATOM     14  O   UNL     1      -3.544  15.142  24.100  0.00  0.00    +0.000 OA
ENDBRANCH   7  14
ENDBRANCH   1  10
BRANCH   4  15
ATOM     15  C   UNL     1       1.605   8.419  20.532  0.00  0.00    +0.000 C 
BRANCH  15  16
ATOM     16  C   UNL     1       2.058   7.294  19.638  0.00  0.00    +0.000 C 
ATOM     17  C   UNL     1       2.144   6.021  20.059  0.00  0.00    +0.000 C 
ATOM     18  C   UNL     1       2.619   4.969  19.133  0.00  0.00    +0.000 A 
ATOM     19  C   UNL     1       2.200   3.635  19.242  0.00  0.00    +0.000 A 
ATOM     20 CL   UNL     1       0.994   3.134  20.380  0.00  0.00    +0.000 Cl
ATOM     21  C   UNL     1       2.694   2.675  18.363  0.00  0.00    +0.000 A 
ATOM     22  C   UNL     1       3.641   3.034  17.400  0.00  0.00    +0.000 A 
ATOM     23  C   UNL     1       4.070   4.358  17.261  0.00  0.00    +0.000 A 
ATOM     24  C   UNL     1       3.511   5.347  18.083  0.00  0.00    +0.000 A 
ATOM     25  C   UNL     1       3.715   6.833  17.863  0.00  0.00    +0.000 C 
ATOM     26  C   UNL     1       2.427   7.592  18.207  0.00  0.00    +0.000 C 
BRANCH  23  27
ATOM     27  O   UNL     1       4.928   4.551  16.214  0.00  0.00    +0.000 OA
ATOM     28  C   UNL     1       6.322   4.480  16.485  0.00  0.00    +0.000 C 
ENDBRANCH  23  27
ENDBRANCH  15  16
ENDBRANCH   4  15
TORSDOF 5
ENDMDL
MODEL 2
REMARK VINA RESULT:      -7.5      1.641      2.462
REMARK  Name = 
REMARK  7 active torsions:
REMARK  status: ('A' for Active; 'I' for Inactive)
REMARK    1  A    between atoms: C_1  and  O_2
REMARK    2  A    between atoms: O_2  and  C_3
REMARK    3  A    between atoms: C_6  and  N_7
REMARK    4  A    between atoms: N_10  and  C_11
REMARK    5  A    between atoms: C_11  and  C_12
REMARK    6  A    between atoms: C_19  and  O_20
REMARK    7  A    between atoms: O_20  and  C_21
REMARK                            x       y       z     vdW  Elec       q    Type
REMARK                         _______ _______ _______ _____ _____    ______ ____
ROOT
ATOM      1  N   UNL     1      -0.325  11.140  22.408  0.00  0.00    +0.000 N 
ATOM      2  C   UNL     1      -0.298   9.786  22.983  0.00  0.00    +0.000 C 
ATOM      3  C   UNL     1      -0.612   8.699  21.922  0.00  0.00    +0.000 C 
ATOM      4  N   UNL     1       0.166   8.796  20.658  0.00  0.00    +0.000 NA
ATOM      5  C   UNL     1      -0.017  10.176  20.145  0.00  0.00    +0.000 C 
ATOM      6  C   UNL     1       0.370  11.308  21.123  0.00  0.00    +0.000 C 
ENDROOT
BRANCH   1  10
ATOM      7  C   UNL     1      -3.090  14.062  23.696  0.00  0.00    +0.000 A 
ATOM      8  C   UNL     1      -3.410  12.710  23.740  0.00  0.00    +0.000 A 
ATOM      9  C   UNL     1      -2.484  11.753  23.313  0.00  0.00    +0.000 A 
ATOM     10  C   UNL     1      -1.221  12.110  22.814  0.00  0.00    +0.000 A 
ATOM     11  C   UNL     1      -0.939  13.481  22.746  0.00  0.00    +0.000 A 
ATOM     12  C   UNL     1      -1.855  14.448  23.180  0.00  0.00    +0.000 A 
BRANCH   7  14
ATOM     13  C   UNL     1      -3.600  16.009  24.920  0.00  0.00    +0.000 C 
ATOM     14  O   UNL     1      -4.064  14.914  24.139  0.00  0.00    +0.000 OA
ENDBRANCH   7  14
ENDBRANCH   1  10
BRANCH   4  15
ATOM     15  C   UNL     1       1.572   8.434  20.897  0.00  0.00    +0.000 C 
BRANCH  15  16
ATOM     16  C   UNL     1       2.055   7.218  20.150  0.00  0.00    +0.000 C 
ATOM     17  C   UNL     1       2.668   7.294  18.956  0.00  0.00    +0.000 C 
ATOM     18  C   UNL     1       3.097   6.056  18.268  0.00  0.00    +0.000 A 
ATOM     19  C   UNL     1       4.198   6.029  17.401  0.00  0.00    +0.000 A 
ATOM     20 CL   UNL     1       5.227   7.403  17.168  0.00  0.00    +0.000 Cl
ATOM     21  C   UNL     1       4.549   4.846  16.756  0.00  0.00    +0.000 A 
ATOM     22  C   UNL     1       3.775   3.697  16.940  0.00  0.00    +0.000 A 
ATOM     23  C   UNL     1       2.677   3.691  17.805  0.00  0.00    +0.000 A 
ATOM     24  C   UNL     1       2.371   4.853  18.528  0.00  0.00    +0.000 A 
ATOM     25  C   UNL     1       1.366   4.895  19.663  0.00  0.00    +0.000 C 
ATOM     26  C   UNL     1       1.856   5.852  20.757  0.00  0.00    +0.000 C 
BRANCH  23  27
ATOM     27  O   UNL     1       2.088   2.465  17.938  0.00  0.00    +0.000 OA
ATOM     28  C   UNL     1       2.779   1.484  18.702  0.00  0.00    +0.000 C 
ENDBRANCH  23  27
ENDBRANCH  15  16
ENDBRANCH   4  15
TORSDOF 5
ENDMDL
MODEL 3
REMARK VINA RESULT:      -7.5      0.669      1.155
REMARK  Name = 
REMARK  7 active torsions:
REMARK  status: ('A' for Active; 'I' for Inactive)
REMARK    1  A    between atoms: C_1  and  O_2
REMARK    2  A    between atoms: O_2  and  C_3
REMARK    3  A    between atoms: C_6  and  N_7
REMARK    4  A    between atoms: N_10  and  C_11
REMARK    5  A    between atoms: C_11  and  C_12
REMARK    6  A    between atoms: C_19  and  O_20
REMARK    7  A    between atoms: O_20  and  C_21
REMARK                            x       y       z     vdW  Elec       q    Type
REMARK                         _______ _______ _______ _____ _____    ______ ____
ROOT
ATOM      1  N   UNL     1      -0.031  11.028  22.104  0.00  0.00    +0.000 N 
ATOM      2  C   UNL     1       0.042   9.653  22.626  0.00  0.00    +0.000 C 
ATOM      3  C   UNL     1      -0.309   8.602  21.541  0.00  0.00    +0.000 C 
ATOM      4  N   UNL     1       0.406   8.758  20.245  0.00  0.00    +0.000 NA
ATOM      5  C   UNL     1       0.180  10.152  19.794  0.00  0.00    +0.000 C 
ATOM      6  C   UNL     1       0.599  11.253  20.794  0.00  0.00    +0.000 C 
ENDROOT
BRANCH   1  10
ATOM      7  C   UNL     1      -2.767  13.859  23.634  0.00  0.00    +0.000 A 
ATOM      8  C   UNL     1      -3.047  12.498  23.685  0.00  0.00    +0.000 A 
ATOM      9  C   UNL     1      -2.131  11.571  23.177  0.00  0.00    +0.000 A 
ATOM     10  C   UNL     1      -0.918  11.968  22.589  0.00  0.00    +0.000 A 
ATOM     11  C   UNL     1      -0.678  13.347  22.518  0.00  0.00    +0.000 A 
ATOM     12  C   UNL     1      -1.585  14.284  23.032  0.00  0.00    +0.000 A 
BRANCH   7  14
ATOM     13  C   UNL     1      -5.043  14.463  23.665  0.00  0.00    +0.000 C 
ATOM     14  O   UNL     1      -3.727  14.679  24.160  0.00  0.00    +0.000 OA
ENDBRANCH   7  14
ENDBRANCH   1  10
BRANCH   4  15
ATOM     15  C   UNL     1       1.826   8.408  20.403  0.00  0.00    +0.000 C 
BRANCH  15  16
ATOM     16  C   UNL     1       2.302   7.261  19.550  0.00  0.00    +0.000 C 
ATOM     17  C   UNL     1       2.180   5.976  19.925  0.00  0.00    +0.000 C 
ATOM     18  C   UNL     1       2.690   4.900  19.045  0.00  0.00    +0.000 A 
ATOM     19  C   UNL     1       2.119   3.620  19.027  0.00  0.00    +0.000 A 
ATOM     20 CL   UNL     1       0.692   3.229  19.927  0.00  0.00    +0.000 Cl
ATOM     21  C   UNL     1       2.650   2.632  18.202  0.00  0.00    +0.000 A 
ATOM     22  C   UNL     1       3.778   2.906  17.424  0.00  0.00    +0.000 A 
ATOM     23  C   UNL     1       4.363   4.176  17.415  0.00  0.00    +0.000 A 
ATOM     24  C   UNL     1       3.782   5.201  18.174  0.00  0.00    +0.000 A 
ATOM     25  C   UNL     1       4.177   6.660  18.055  0.00  0.00    +0.000 C 
ATOM     26  C   UNL     1       2.937   7.550  18.213  0.00  0.00    +0.000 C 
BRANCH  23  27
ATOM     27  O   UNL     1       5.400   4.297  16.533  0.00  0.00    +0.000 OA
ATOM     28  C   UNL     1       5.076   4.499  15.162  0.00  0.00    +0.000 C 
ENDBRANCH  23  27
ENDBRANCH  15  16
ENDBRANCH   4  15
TORSDOF 5
ENDMDL
MODEL 4
REMARK VINA RESULT:      -7.3      0.898      1.082
REMARK  Name = 
REMARK  7 active torsions:
REMARK  status: ('A' for Active; 'I' for Inactive)
REMARK    1  A    between atoms: C_1  and  O_2
REMARK    2  A    between atoms: O_2  and  C_3
REMARK    3  A    between atoms: C_6  and  N_7
REMARK    4  A    between atoms: N_10  and  C_11
REMARK    5  A    between atoms: C_11  and  C_12
REMARK    6  A    between atoms: C_19  and  O_20
REMARK    7  A    between atoms: O_20  and  C_21
REMARK                            x       y       z     vdW  Elec       q    Type
REMARK                         _______ _______ _______ _____ _____    ______ ____
ROOT
ATOM      1  N   UNL     1      -0.605  11.621  21.726  0.00  0.00    +0.000 N 
ATOM      2  C   UNL     1      -0.062  10.517  22.534  0.00  0.00    +0.000 C 
ATOM      3  C   UNL     1      -0.380   9.132  21.912  0.00  0.00    +0.000 C 
ATOM      4  N   UNL     1      -0.057   8.992  20.467  0.00  0.00    +0.000 NA
ATOM      5  C   UNL     1      -0.731  10.110  19.764  0.00  0.00    +0.000 C 
ATOM      6  C   UNL     1      -0.382  11.526  20.276  0.00  0.00    +0.000 C 
ENDROOT
BRANCH   1  10
ATOM      7  C   UNL     1      -3.581  14.260  23.147  0.00  0.00    +0.000 A 
ATOM      8  C   UNL     1      -3.779  13.522  21.986  0.00  0.00    +0.000 A 
ATOM      9  C   UNL     1      -2.786  12.650  21.528  0.00  0.00    +0.000 A 
ATOM     10  C   UNL     1      -1.562  12.497  22.200  0.00  0.00    +0.000 A 
ATOM     11  C   UNL     1      -1.374  13.280  23.347  0.00  0.00    +0.000 A 
ATOM     12  C   UNL     1      -2.365  14.150  23.820  0.00  0.00    +0.000 A 
BRANCH   7  14
ATOM     13  C   UNL     1      -4.263  16.143  24.387  0.00  0.00    +0.000 C 
ATOM     14  O   UNL     1      -4.614  15.080  23.509  0.00  0.00    +0.000 OA
ENDBRANCH   7  14
ENDBRANCH   1  10
BRANCH   4  15
ATOM     15  C   UNL     1       1.402   8.962  20.272  0.00  0.00    +0.000 C 
BRANCH  15  16
ATOM     16  C   UNL     1       1.909   7.838  19.407  0.00  0.00    +0.000 C 
ATOM     17  C   UNL     1       2.017   6.573  19.848  0.00  0.00    +0.000 C 
ATOM     18  C   UNL     1       2.546   5.522  18.950  0.00  0.00    +0.000 A 
ATOM     19  C   UNL     1       2.159   4.180  19.066  0.00  0.00    +0.000 A 
ATOM     20 CL   UNL     1       0.935   3.661  20.176  0.00  0.00    +0.000 Cl
ATOM     21  C   UNL     1       2.703   3.221  18.215  0.00  0.00    +0.000 A 
ATOM     22  C   UNL     1       3.667   3.593  17.274  0.00  0.00    +0.000 A 
ATOM     23  C   UNL     1       4.066   4.925  17.129  0.00  0.00    +0.000 A 
ATOM     24  C   UNL     1       3.457   5.910  17.920  0.00  0.00    +0.000 A 
ATOM     25  C   UNL     1       3.628   7.398  17.686  0.00  0.00    +0.000 C 
ATOM     26  C   UNL     1       2.311   8.127  17.983  0.00  0.00    +0.000 C 
BRANCH  23  27
ATOM     27  O   UNL     1       4.947   5.128  16.103  0.00  0.00    +0.000 OA
ATOM     28  C   UNL     1       6.331   4.958  16.385  0.00  0.00    +0.000 C 
ENDBRANCH  23  27
ENDBRANCH  15  16
ENDBRANCH   4  15
TORSDOF 5
ENDMDL
MODEL 5
REMARK VINA RESULT:      -7.1      0.929      1.602
REMARK  Name = 
REMARK  7 active torsions:
REMARK  status: ('A' for Active; 'I' for Inactive)
REMARK    1  A    between atoms: C_1  and  O_2
REMARK    2  A    between atoms: O_2  and  C_3
REMARK    3  A    between atoms: C_6  and  N_7
REMARK    4  A    between atoms: N_10  and  C_11
REMARK    5  A    between atoms: C_11  and  C_12
REMARK    6  A    between atoms: C_19  and  O_20
REMARK    7  A    between atoms: O_20  and  C_21
REMARK                            x       y       z     vdW  Elec       q    Type
REMARK                         _______ _______ _______ _____ _____    ______ ____
ROOT
ATOM      1  N   UNL     1      -0.738  10.507  22.067  0.00  0.00    +0.000 N 
ATOM      2  C   UNL     1      -0.559  10.264  20.627  0.00  0.00    +0.000 C 
ATOM      3  C   UNL     1       0.926  10.004  20.262  0.00  0.00    +0.000 C 
ATOM      4  N   UNL     1       1.622   8.991  21.101  0.00  0.00    +0.000 NA
ATOM      5  C   UNL     1       1.436   9.401  22.514  0.00  0.00    +0.000 C 
ATOM      6  C   UNL     1      -0.030   9.584  22.968  0.00  0.00    +0.000 C 
ENDROOT
BRANCH   1  10
ATOM      7  C   UNL     1      -2.230  14.121  23.664  0.00  0.00    +0.000 A 
ATOM      8  C   UNL     1      -2.959  12.941  23.769  0.00  0.00    +0.000 A 
ATOM      9  C   UNL     1      -2.451  11.752  23.238  0.00  0.00    +0.000 A 
ATOM     10  C   UNL     1      -1.215  11.700  22.573  0.00  0.00    +0.000 A 
ATOM     11  C   UNL     1      -0.519  12.910  22.450  0.00  0.00    +0.000 A 
ATOM     12  C   UNL     1      -1.013  14.107  22.987  0.00  0.00    +0.000 A 
BRANCH   7  14
ATOM     13  C   UNL     1      -2.310  15.600  25.496  0.00  0.00    +0.000 C 
ATOM     14  O   UNL     1      -2.814  15.227  24.219  0.00  0.00    +0.000 OA
ENDBRANCH   7  14
ENDBRANCH   1  10
BRANCH   4  15
ATOM     15  C   UNL     1       1.109   7.645  20.801  0.00  0.00    +0.000 C 
BRANCH  15  16
ATOM     16  C   UNL     1       1.866   6.894  19.737  0.00  0.00    +0.000 C 
ATOM     17  C   UNL     1       2.345   5.652  19.923  0.00  0.00    +0.000 C 
ATOM     18  C   UNL     1       3.099   4.983  18.840  0.00  0.00    +0.000 A 
ATOM     19  C   UNL     1       3.109   3.589  18.691  0.00  0.00    +0.000 A 
ATOM     20 CL   UNL     1       2.135   2.545  19.673  0.00  0.00    +0.000 Cl
ATOM     21  C   UNL     1       3.855   3.002  17.672  0.00  0.00    +0.000 A 
ATOM     22  C   UNL     1       4.628   3.802  16.826  0.00  0.00    +0.000 A 
ATOM     23  C   UNL     1       4.631   5.195  16.945  0.00  0.00    +0.000 A 
ATOM     24  C   UNL     1       3.813   5.800  17.910  0.00  0.00    +0.000 A 
ATOM     25  C   UNL     1       3.550   7.291  17.971  0.00  0.00    +0.000 C 
ATOM     26  C   UNL     1       2.098   7.548  18.398  0.00  0.00    +0.000 C 
BRANCH  23  27
ATOM     27  O   UNL     1       5.367   5.828  15.983  0.00  0.00    +0.000 OA
ATOM     28  C   UNL     1       5.724   5.076  14.829  0.00  0.00    +0.000 C 
ENDBRANCH  23  27
ENDBRANCH  15  16
ENDBRANCH   4  15
TORSDOF 5
ENDMDL
MODEL 6
REMARK VINA RESULT:      -7.1      0.900      1.257
REMARK  Name = 
REMARK  7 active torsions:
REMARK  status: ('A' for Active; 'I' for Inactive)
REMARK    1  A    between atoms: C_1  and  O_2
REMARK    2  A    between atoms: O_2  and  C_3
REMARK    3  A    between atoms: C_6  and  N_7
REMARK    4  A    between atoms: N_10  and  C_11
REMARK    5  A    between atoms: C_11  and  C_12
REMARK    6  A    between atoms: C_19  and  O_20
REMARK    7  A    between atoms: O_20  and  C_21
REMARK                            x       y       z     vdW  Elec       q    Type
REMARK                         _______ _______ _______ _____ _____    ______ ____
ROOT
ATOM      1  N   UNL     1       0.107  11.808  21.626  0.00  0.00    +0.000 N 
ATOM      2  C   UNL     1      -0.290  10.437  21.987  0.00  0.00    +0.000 C 
ATOM      3  C   UNL     1      -0.557   9.562  20.735  0.00  0.00    +0.000 C 
ATOM      4  N   UNL     1       0.508   9.590  19.696  0.00  0.00    +0.000 NA
ATOM      5  C   UNL     1       0.749  11.016  19.365  0.00  0.00    +0.000 C 
ATOM      6  C   UNL     1       1.114  11.925  20.560  0.00  0.00    +0.000 C 
ENDROOT
BRANCH   1  10
ATOM      7  C   UNL     1      -2.154  15.198  22.738  0.00  0.00    +0.000 A 
ATOM      8  C   UNL     1      -2.033  14.109  23.595  0.00  0.00    +0.000 A 
ATOM      9  C   UNL     1      -1.279  12.995  23.215  0.00  0.00    +0.000 A 
ATOM     10  C   UNL     1      -0.637  12.920  21.968  0.00  0.00    +0.000 A 
ATOM     11  C   UNL     1      -0.805  14.014  21.109  0.00  0.00    +0.000 A 
ATOM     12  C   UNL     1      -1.551  15.141  21.483  0.00  0.00    +0.000 A 
BRANCH   7  14
ATOM     13  C   UNL     1      -2.559  16.702  24.504  0.00  0.00    +0.000 C 
ATOM     14  O   UNL     1      -2.910  16.237  23.206  0.00  0.00    +0.000 OA
ENDBRANCH   7  14
ENDBRANCH   1  10
BRANCH   4  15
ATOM     15  C   UNL     1       1.706   8.883  20.177  0.00  0.00    +0.000 C 
BRANCH  15  16
ATOM     16  C   UNL     1       2.122   7.694  19.350  0.00  0.00    +0.000 C 
ATOM     17  C   UNL     1       2.146   6.442  19.838  0.00  0.00    +0.000 C 
ATOM     18  C   UNL     1       2.588   5.324  18.974  0.00  0.00    +0.000 A 
ATOM     19  C   UNL     1       2.109   4.017  19.146  0.00  0.00    +0.000 A 
ATOM     20 CL   UNL     1       0.866   3.628  20.287  0.00  0.00    +0.000 Cl
ATOM     21  C   UNL     1       2.573   2.992  18.325  0.00  0.00    +0.000 A 
ATOM     22  C   UNL     1       3.549   3.259  17.361  0.00  0.00    +0.000 A 
ATOM     23  C   UNL     1       4.038   4.554  17.161  0.00  0.00    +0.000 A 
ATOM     24  C   UNL     1       3.511   5.608  17.921  0.00  0.00    +0.000 A 
ATOM     25  C   UNL     1       3.783   7.071  17.629  0.00  0.00    +0.000 C 
ATOM     26  C   UNL     1       2.524   7.901  17.912  0.00  0.00    +0.000 C 
BRANCH  23  27
ATOM     27  O   UNL     1       4.918   4.655  16.120  0.00  0.00    +0.000 OA
ATOM     28  C   UNL     1       6.285   4.365  16.386  0.00  0.00    +0.000 C 
ENDBRANCH  23  27
ENDBRANCH  15  16
ENDBRANCH   4  15
TORSDOF 5
ENDMDL
MODEL 7
REMARK VINA RESULT:      -7.1      1.094      1.427
REMARK  Name = 
REMARK  7 active torsions:
REMARK  status: ('A' for Active; 'I' for Inactive)
REMARK    1  A    between atoms: C_1  and  O_2
REMARK    2  A    between atoms: O_2  and  C_3
REMARK    3  A    between atoms: C_6  and  N_7
REMARK    4  A    between atoms: N_10  and  C_11
REMARK    5  A    between atoms: C_11  and  C_12
REMARK    6  A    between atoms: C_19  and  O_20
REMARK    7  A    between atoms: O_20  and  C_21
REMARK                            x       y       z     vdW  Elec       q    Type
REMARK                         _______ _______ _______ _____ _____    ______ ____
ROOT
ATOM      1  N   UNL     1      -0.683  10.364  22.073  0.00  0.00    +0.000 N 
ATOM      2  C   UNL     1      -0.600   9.950  20.663  0.00  0.00    +0.000 C 
ATOM      3  C   UNL     1       0.856   9.621  20.240  0.00  0.00    +0.000 C 
ATOM      4  N   UNL     1       1.592   8.701  21.148  0.00  0.00    +0.000 NA
ATOM      5  C   UNL     1       1.502   9.277  22.512  0.00  0.00    +0.000 C 
ATOM      6  C   UNL     1       0.070   9.540  23.030  0.00  0.00    +0.000 C 
ENDROOT
BRANCH   1  10
ATOM      7  C   UNL     1      -1.968  14.224  23.211  0.00  0.00    +0.000 A 
ATOM      8  C   UNL     1      -0.775  14.045  22.519  0.00  0.00    +0.000 A 
ATOM      9  C   UNL     1      -0.363  12.762  22.147  0.00  0.00    +0.000 A 
ATOM     10  C   UNL     1      -1.113  11.617  22.462  0.00  0.00    +0.000 A 
ATOM     11  C   UNL     1      -2.293  11.823  23.191  0.00  0.00    +0.000 A 
ATOM     12  C   UNL     1      -2.720  13.105  23.562  0.00  0.00    +0.000 A 
BRANCH   7  14
ATOM     13  C   UNL     1      -1.192  16.432  23.467  0.00  0.00    +0.000 C 
ATOM     14  O   UNL     1      -2.280  15.518  23.524  0.00  0.00    +0.000 OA
ENDBRANCH   7  14
ENDBRANCH   1  10
BRANCH   4  15
ATOM     15  C   UNL     1       1.046   7.338  21.043  0.00  0.00    +0.000 C 
BRANCH  15  16
ATOM     16  C   UNL     1       1.773   6.430  20.086  0.00  0.00    +0.000 C 
ATOM     17  C   UNL     1       1.687   5.090  20.147  0.00  0.00    +0.000 C 
ATOM     18  C   UNL     1       2.447   4.258  19.188  0.00  0.00    +0.000 A 
ATOM     19  C   UNL     1       1.998   2.993  18.780  0.00  0.00    +0.000 A 
ATOM     20 CL   UNL     1       0.459   2.359  19.257  0.00  0.00    +0.000 Cl
ATOM     21  C   UNL     1       2.761   2.236  17.895  0.00  0.00    +0.000 A 
ATOM     22  C   UNL     1       3.994   2.719  17.448  0.00  0.00    +0.000 A 
ATOM     23  C   UNL     1       4.462   3.979  17.830  0.00  0.00    +0.000 A 
ATOM     24  C   UNL     1       3.660   4.787  18.649  0.00  0.00    +0.000 A 
ATOM     25  C   UNL     1       3.949   6.249  18.926  0.00  0.00    +0.000 C 
ATOM     26  C   UNL     1       2.633   7.034  19.004  0.00  0.00    +0.000 C 
BRANCH  23  27
ATOM     27  O   UNL     1       5.639   4.333  17.231  0.00  0.00    +0.000 OA
ATOM     28  C   UNL     1       5.817   3.971  15.867  0.00  0.00    +0.000 C 
ENDBRANCH  23  27
ENDBRANCH  15  16
ENDBRANCH   4  15
TORSDOF 5
ENDMDL
MODEL 8
REMARK VINA RESULT:      -7.1      4.251     10.317
REMARK  Name = 
REMARK  7 active torsions:
REMARK  status: ('A' for Active; 'I' for Inactive)
REMARK    1  A    between atoms: C_1  and  O_2
REMARK    2  A    between atoms: O_2  and  C_3
REMARK    3  A    between atoms: C_6  and  N_7
REMARK    4  A    between atoms: N_10  and  C_11
REMARK    5  A    between atoms: C_11  and  C_12
REMARK    6  A    between atoms: C_19  and  O_20
REMARK    7  A    between atoms: O_20  and  C_21
REMARK                            x       y       z     vdW  Elec       q    Type
REMARK                         _______ _______ _______ _____ _____    ______ ____
ROOT
ATOM      1  N   UNL     1       2.020   7.851  19.668  0.00  0.00    +0.000 N 
ATOM      2  C   UNL     1       2.184   8.844  18.595  0.00  0.00    +0.000 C 
ATOM      3  C   UNL     1       0.920   9.727  18.423  0.00  0.00    +0.000 C 
ATOM      4  N   UNL     1       0.385  10.326  19.676  0.00  0.00    +0.000 NA
ATOM      5  C   UNL     1       0.188   9.213  20.636  0.00  0.00    +0.000 C 
ATOM      6  C   UNL     1       1.438   8.351  20.923  0.00  0.00    +0.000 C 
ENDROOT
BRANCH   1  10
ATOM      7  C   UNL     1       2.066   3.677  19.022  0.00  0.00    +0.000 A 
ATOM      8  C   UNL     1       1.729   4.202  20.265  0.00  0.00    +0.000 A 
ATOM      9  C   UNL     1       1.715   5.586  20.464  0.00  0.00    +0.000 A 
ATOM     10  C   UNL     1       2.051   6.489  19.442  0.00  0.00    +0.000 A 
ATOM     11  C   UNL     1       2.422   5.932  18.211  0.00  0.00    +0.000 A 
ATOM     12  C   UNL     1       2.430   4.547  17.997  0.00  0.00    +0.000 A 
BRANCH   7  14
ATOM     13  C   UNL     1       3.203   1.728  18.350  0.00  0.00    +0.000 C 
ATOM     14  O   UNL     1       2.045   2.312  18.933  0.00  0.00    +0.000 OA
ENDBRANCH   7  14
ENDBRANCH   1  10
BRANCH   4  15
ATOM     15  C   UNL     1       1.293  11.377  20.165  0.00  0.00    +0.000 C 
BRANCH  15  16
ATOM     16  C   UNL     1       1.105  12.730  19.530  0.00  0.00    +0.000 C 
ATOM     17  C   UNL     1       2.105  13.619  19.405  0.00  0.00    +0.000 C 
ATOM     18  C   UNL     1       1.844  14.940  18.790  0.00  0.00    +0.000 A 
ATOM     19  C   UNL     1       2.835  15.648  18.096  0.00  0.00    +0.000 A 
ATOM     20 CL   UNL     1       4.403  14.981  17.784  0.00  0.00    +0.000 Cl
ATOM     21  C   UNL     1       2.550  16.900  17.557  0.00  0.00    +0.000 A 
ATOM     22  C   UNL     1       1.287  17.468  17.746  0.00  0.00    +0.000 A 
ATOM     23  C   UNL     1       0.276  16.782  18.425  0.00  0.00    +0.000 A 
ATOM     24  C   UNL     1       0.527  15.484  18.894  0.00  0.00    +0.000 A 
ATOM     25  C   UNL     1      -0.553  14.560  19.422  0.00  0.00    +0.000 C 
ATOM     26  C   UNL     1      -0.254  13.115  19.002  0.00  0.00    +0.000 C 
BRANCH  23  27
ATOM     27  O   UNL     1      -0.921  17.441  18.441  0.00  0.00    +0.000 OA
ATOM     28  C   UNL     1      -1.080  18.491  19.389  0.00  0.00    +0.000 C 
ENDBRANCH  23  27
ENDBRANCH  15  16
ENDBRANCH   4  15
TORSDOF 5
ENDMDL
MODEL 9
REMARK VINA RESULT:      -7.0      2.622     10.550
REMARK  Name = 
REMARK  7 active torsions:
REMARK  status: ('A' for Active; 'I' for Inactive)
REMARK    1  A    between atoms: C_1  and  O_2
REMARK    2  A    between atoms: O_2  and  C_3
REMARK    3  A    between atoms: C_6  and  N_7
REMARK    4  A    between atoms: N_10  and  C_11
REMARK    5  A    between atoms: C_11  and  C_12
REMARK    6  A    between atoms: C_19  and  O_20
REMARK    7  A    between atoms: O_20  and  C_21
REMARK                            x       y       z     vdW  Elec       q    Type
REMARK                         _______ _______ _______ _____ _____    ______ ____
ROOT
ATOM      1  N   UNL     1       4.008   6.491  18.098  0.00  0.00    +0.000 N 
ATOM      2  C   UNL     1       3.287   7.741  17.808  0.00  0.00    +0.000 C 
ATOM      3  C   UNL     1       1.776   7.629  18.138  0.00  0.00    +0.000 C 
ATOM      4  N   UNL     1       1.456   7.088  19.487  0.00  0.00    +0.000 NA
ATOM      5  C   UNL     1       2.173   5.796  19.614  0.00  0.00    +0.000 C 
ATOM      6  C   UNL     1       3.700   5.857  19.389  0.00  0.00    +0.000 C 
ENDROOT
BRANCH   1  10
ATOM      7  C   UNL     1       5.993   4.275  15.100  0.00  0.00    +0.000 A 
ATOM      8  C   UNL     1       5.749   5.634  14.937  0.00  0.00    +0.000 A 
ATOM      9  C   UNL     1       5.093   6.356  15.939  0.00  0.00    +0.000 A 
ATOM     10  C   UNL     1       4.646   5.748  17.124  0.00  0.00    +0.000 A 
ATOM     11  C   UNL     1       4.872   4.371  17.245  0.00  0.00    +0.000 A 
ATOM     12  C   UNL     1       5.537   3.639  16.252  0.00  0.00    +0.000 A 
BRANCH   7  14
ATOM     13  C   UNL     1       5.921   3.621  12.838  0.00  0.00    +0.000 C 
ATOM     14  O   UNL     1       6.643   3.664  14.063  0.00  0.00    +0.000 OA
ENDBRANCH   7  14
ENDBRANCH   1  10
BRANCH   4  15
ATOM     15  C   UNL     1       1.811   8.068  20.525  0.00  0.00    +0.000 C 
BRANCH  15  16
ATOM     16  C   UNL     1       0.712   9.027  20.903  0.00  0.00    +0.000 C 
ATOM     17  C   UNL     1       0.473  10.163  20.227  0.00  0.00    +0.000 C 
ATOM     18  C   UNL     1      -0.610  11.070  20.668  0.00  0.00    +0.000 A 
ATOM     19  C   UNL     1      -1.305  11.892  19.770  0.00  0.00    +0.000 A 
ATOM     20 CL   UNL     1      -1.049  11.818  18.058  0.00  0.00    +0.000 Cl
ATOM     21  C   UNL     1      -2.299  12.749  20.235  0.00  0.00    +0.000 A 
ATOM     22  C   UNL     1      -2.573  12.819  21.604  0.00  0.00    +0.000 A 
ATOM     23  C   UNL     1      -1.903  12.005  22.522  0.00  0.00    +0.000 A 
ATOM     24  C   UNL     1      -0.964  11.075  22.052  0.00  0.00    +0.000 A 
ATOM     25  C   UNL     1      -0.359   9.985  22.915  0.00  0.00    +0.000 C 
ATOM     26  C   UNL     1      -0.170   8.708  22.084  0.00  0.00    +0.000 C 
BRANCH  23  27
ATOM     27  O   UNL     1      -2.355  12.135  23.805  0.00  0.00    +0.000 OA
ATOM     28  C   UNL     1      -3.743  12.385  23.990  0.00  0.00    +0.000 C 
ENDBRANCH  23  27
ENDBRANCH  15  16
ENDBRANCH   4  15
TORSDOF 5
ENDMDL
