MODEL 1
REMARK VINA RESULT:      -8.1      0.000      0.000
REMARK  Name = 
REMARK  12 active torsions:
REMARK  status: ('A' for Active; 'I' for Inactive)
REMARK    1  A    between atoms: C_1  and  O_2
REMARK    2  A    between atoms: O_2  and  C_3
REMARK    3  A    between atoms: C_6  and  C_7
REMARK    4  A    between atoms: N_9  and  C_10
REMARK    5  A    between atoms: C_10  and  C_11
REMARK    6  A    between atoms: C_15  and  C_16
REMARK    7  A    between atoms: N_18  and  C_19
REMARK    8  A    between atoms: C_22  and  C_23
REMARK    9  A    between atoms: C_23  and  N_24
REMARK   10  A    between atoms: N_24  and  C_25
REMARK   11  A    between atoms: N_24  and  C_26
REMARK   12  A    between atoms: C_31  and  C_32
REMARK                            x       y       z     vdW  Elec       q    Type
REMARK                         _______ _______ _______ _____ _____    ______ ____
ROOT
ATOM      1  C   UNL     1       4.819   4.872  16.960  0.00  0.00    +0.000 A 
ATOM      2  C   UNL     1       5.350   4.208  15.847  0.00  0.00    +0.000 A 
ATOM      3  C   UNL     1       6.634   4.508  15.387  0.00  0.00    +0.000 A 
ATOM      4  C   UNL     1       7.398   5.485  16.026  0.00  0.00    +0.000 A 
ATOM      5  C   UNL     1       6.864   6.182  17.116  0.00  0.00    +0.000 A 
ATOM      6  C   UNL     1       5.578   5.873  17.579  0.00  0.00    +0.000 A 
ENDROOT
BRANCH   5   7
ATOM      7  C   UNL     1       7.655   7.193  17.865  0.00  0.00    +0.000 C 
ATOM      8  O   UNL     1       8.337   6.796  18.808  0.00  0.00    +0.000 OA
ATOM      9  N   UNL     1       7.506   8.508  17.453  0.00  0.00    +0.000 N 
ATOM     10  H   UNL     1       6.745   8.714  16.821  0.00  0.00    +0.000 HD
BRANCH   9  11
ATOM     11  C   UNL     1       8.220   9.614  17.959  0.00  0.00    +0.000 A 
ATOM     12  C   UNL     1       8.154  10.884  17.385  0.00  0.00    +0.000 A 
ATOM     13  C   UNL     1       8.899  11.941  17.911  0.00  0.00    +0.000 A 
ATOM     14  C   UNL     1       9.722  11.752  19.027  0.00  0.00    +0.000 A 
ATOM     15  C   UNL     1       9.768  10.483  19.618  0.00  0.00    +0.000 A 
ATOM     16  C   UNL     1       9.016   9.424  19.093  0.00  0.00    +0.000 A 
BRANCH  14  17
ATOM     17  C   UNL     1      10.546  12.900  19.569  0.00  0.00    +0.000 C 
BRANCH  17  18
ATOM     18  N   UNL     1      10.672  14.036  18.638  0.00  0.00    +0.000 NA
ATOM     19  C   UNL     1      10.347  15.313  19.280  0.00  0.00    +0.000 C 
ATOM     20  C   UNL     1      12.032  14.087  18.100  0.00  0.00    +0.000 C 
ENDBRANCH  17  18
ENDBRANCH  14  17
ENDBRANCH   9  11
ENDBRANCH   5   7
BRANCH   1  21
ATOM     21  C   UNL     1       3.459   4.512  17.490  0.00  0.00    +0.000 C 
BRANCH  21  24
ATOM     22  C   UNL     1       2.719   5.925  19.319  0.00  0.00    +0.000 C 
ATOM     23  O   UNL     1       3.279   5.223  20.158  0.00  0.00    +0.000 OA
ATOM     24  N   UNL     1       2.748   5.676  17.967  0.00  0.00    +0.000 N 
ATOM     25  H   UNL     1       2.130   6.158  17.333  0.00  0.00    +0.000 HD
BRANCH  22  29
ATOM     26  C   UNL     1       0.502   9.284  20.801  0.00  0.00    +0.000 A 
ATOM     27  C   UNL     1       0.446   8.035  21.435  0.00  0.00    +0.000 A 
ATOM     28  C   UNL     1       1.162   6.951  20.933  0.00  0.00    +0.000 A 
ATOM     29  C   UNL     1       1.908   7.087  19.765  0.00  0.00    +0.000 A 
ATOM     30  C   UNL     1       1.909   8.311  19.088  0.00  0.00    +0.000 A 
ATOM     31  C   UNL     1       1.192   9.420  19.589  0.00  0.00    +0.000 A 
BRANCH  31  32
ATOM     32  C   UNL     1       1.256  10.698  18.787  0.00  0.00    +0.000 C 
ATOM     33  F   UNL     1       1.687  11.808  19.441  0.00  0.00    +0.000 F 
ATOM     34  F   UNL     1       2.065  10.571  17.694  0.00  0.00    +0.000 F 
ATOM     35  F   UNL     1       0.029  11.027  18.281  0.00  0.00    +0.000 F 
ENDBRANCH  31  32
BRANCH  26  37
ATOM     36  C   UNL     1      -0.305  10.349  22.750  0.00  0.00    +0.000 C 
ATOM     37  O   UNL     1      -0.104  10.390  21.334  0.00  0.00    +0.000 OA
ENDBRANCH  26  37
ENDBRANCH  22  29
ENDBRANCH  21  24
ENDBRANCH   1  21
TORSDOF 9
ENDMDL
MODEL 2
REMARK VINA RESULT:      -8.0      5.173     10.475
REMARK  Name = 
REMARK  12 active torsions:
REMARK  status: ('A' for Active; 'I' for Inactive)
REMARK    1  A    between atoms: C_1  and  O_2
REMARK    2  A    between atoms: O_2  and  C_3
REMARK    3  A    between atoms: C_6  and  C_7
REMARK    4  A    between atoms: N_9  and  C_10
REMARK    5  A    between atoms: C_10  and  C_11
REMARK    6  A    between atoms: C_15  and  C_16
REMARK    7  A    between atoms: N_18  and  C_19
REMARK    8  A    between atoms: C_22  and  C_23
REMARK    9  A    between atoms: C_23  and  N_24
REMARK   10  A    between atoms: N_24  and  C_25
REMARK   11  A    between atoms: N_24  and  C_26
REMARK   12  A    between atoms: C_31  and  C_32
REMARK                            x       y       z     vdW  Elec       q    Type
REMARK                         _______ _______ _______ _____ _____    ______ ____
ROOT
ATOM      1  C   UNL     1       1.035   8.974  20.166  0.00  0.00    +0.000 A 
ATOM      2  C   UNL     1       1.020   9.169  18.779  0.00  0.00    +0.000 A 
ATOM      3  C   UNL     1       0.401  10.291  18.226  0.00  0.00    +0.000 A 
ATOM      4  C   UNL     1      -0.223  11.227  19.051  0.00  0.00    +0.000 A 
ATOM      5  C   UNL     1      -0.249  11.024  20.436  0.00  0.00    +0.000 A 
ATOM      6  C   UNL     1       0.380   9.899  20.989  0.00  0.00    +0.000 A 
ENDROOT
BRANCH   5   7
ATOM      7  C   UNL     1      -0.853  12.016  21.364  0.00  0.00    +0.000 C 
ATOM      8  O   UNL     1      -0.128  12.494  22.235  0.00  0.00    +0.000 OA
ATOM      9  N   UNL     1      -2.203  12.271  21.186  0.00  0.00    +0.000 N 
ATOM     10  H   UNL     1      -2.721  11.642  20.586  0.00  0.00    +0.000 HD
BRANCH   9  11
ATOM     11  C   UNL     1      -2.958  13.231  21.889  0.00  0.00    +0.000 A 
ATOM     12  C   UNL     1      -3.542  14.338  21.270  0.00  0.00    +0.000 A 
ATOM     13  C   UNL     1      -4.260  15.273  22.016  0.00  0.00    +0.000 A 
ATOM     14  C   UNL     1      -4.418  15.119  23.398  0.00  0.00    +0.000 A 
ATOM     15  C   UNL     1      -3.855  13.994  24.015  0.00  0.00    +0.000 A 
ATOM     16  C   UNL     1      -3.138  13.053  23.264  0.00  0.00    +0.000 A 
BRANCH  14  17
ATOM     17  C   UNL     1      -5.177  16.155  24.199  0.00  0.00    +0.000 C 
BRANCH  17  18
ATOM     18  N   UNL     1      -4.312  17.039  25.002  0.00  0.00    +0.000 NA
ATOM     19  C   UNL     1      -3.277  17.683  24.189  0.00  0.00    +0.000 C 
ATOM     20  C   UNL     1      -5.125  18.060  25.664  0.00  0.00    +0.000 C 
ENDBRANCH  17  18
ENDBRANCH  14  17
ENDBRANCH   9  11
ENDBRANCH   5   7
BRANCH   1  21
ATOM     21  C   UNL     1       1.747   7.794  20.767  0.00  0.00    +0.000 C 
BRANCH  21  24
ATOM     22  C   UNL     1       2.642   5.751  19.810  0.00  0.00    +0.000 C 
ATOM     23  O   UNL     1       2.010   5.045  20.593  0.00  0.00    +0.000 OA
ATOM     24  N   UNL     1       2.582   7.125  19.797  0.00  0.00    +0.000 N 
ATOM     25  H   UNL     1       3.248   7.672  19.274  0.00  0.00    +0.000 HD
BRANCH  22  29
ATOM     26  C   UNL     1       5.222   4.020  16.855  0.00  0.00    +0.000 A 
ATOM     27  C   UNL     1       3.864   3.679  16.928  0.00  0.00    +0.000 A 
ATOM     28  C   UNL     1       3.043   4.240  17.902  0.00  0.00    +0.000 A 
ATOM     29  C   UNL     1       3.576   5.116  18.846  0.00  0.00    +0.000 A 
ATOM     30  C   UNL     1       4.944   5.403  18.822  0.00  0.00    +0.000 A 
ATOM     31  C   UNL     1       5.788   4.845  17.836  0.00  0.00    +0.000 A 
BRANCH  31  32
ATOM     32  C   UNL     1       7.251   5.216  17.893  0.00  0.00    +0.000 C 
ATOM     33  F   UNL     1       8.144   4.209  17.711  0.00  0.00    +0.000 F 
ATOM     34  F   UNL     1       7.569   6.168  16.967  0.00  0.00    +0.000 F 
ATOM     35  F   UNL     1       7.573   5.776  19.097  0.00  0.00    +0.000 F 
ENDBRANCH  31  32
BRANCH  26  37
ATOM     36  C   UNL     1       5.855   4.234  14.588  0.00  0.00    +0.000 C 
ATOM     37  O   UNL     1       6.024   3.566  15.841  0.00  0.00    +0.000 OA
ENDBRANCH  26  37
ENDBRANCH  22  29
ENDBRANCH  21  24
ENDBRANCH   1  21
TORSDOF 9
ENDMDL
MODEL 3
REMARK VINA RESULT:      -7.9      0.688      1.177
REMARK  Name = 
REMARK  12 active torsions:
REMARK  status: ('A' for Active; 'I' for Inactive)
REMARK    1  A    between atoms: C_1  and  O_2
REMARK    2  A    between atoms: O_2  and  C_3
REMARK    3  A    between atoms: C_6  and  C_7
REMARK    4  A    between atoms: N_9  and  C_10
REMARK    5  A    between atoms: C_10  and  C_11
REMARK    6  A    between atoms: C_15  and  C_16
REMARK    7  A    between atoms: N_18  and  C_19
REMARK    8  A    between atoms: C_22  and  C_23
REMARK    9  A    between atoms: C_23  and  N_24
REMARK   10  A    between atoms: N_24  and  C_25
REMARK   11  A    between atoms: N_24  and  C_26
REMARK   12  A    between atoms: C_31  and  C_32
REMARK                            x       y       z     vdW  Elec       q    Type
REMARK                         _______ _______ _______ _____ _____    ______ ____
ROOT
ATOM      1  C   UNL     1       4.798   5.426  17.132  0.00  0.00    +0.000 A 
ATOM      2  C   UNL     1       5.199   4.894  15.900  0.00  0.00    +0.000 A 
ATOM      3  C   UNL     1       6.458   5.190  15.375  0.00  0.00    +0.000 A 
ATOM      4  C   UNL     1       7.328   6.032  16.068  0.00  0.00    +0.000 A 
ATOM      5  C   UNL     1       6.924   6.600  17.282  0.00  0.00    +0.000 A 
ATOM      6  C   UNL     1       5.662   6.295  17.810  0.00  0.00    +0.000 A 
ENDROOT
BRANCH   5   7
ATOM      7  C   UNL     1       7.832   7.459  18.087  0.00  0.00    +0.000 C 
ATOM      8  O   UNL     1       8.449   6.928  19.008  0.00  0.00    +0.000 OA
ATOM      9  N   UNL     1       7.856   8.803  17.747  0.00  0.00    +0.000 N 
ATOM     10  H   UNL     1       7.133   9.139  17.126  0.00  0.00    +0.000 HD
BRANCH   9  11
ATOM     11  C   UNL     1       8.701   9.779  18.313  0.00  0.00    +0.000 A 
ATOM     12  C   UNL     1       8.923   9.884  19.687  0.00  0.00    +0.000 A 
ATOM     13  C   UNL     1       9.751  10.884  20.199  0.00  0.00    +0.000 A 
ATOM     14  C   UNL     1      10.381  11.798  19.348  0.00  0.00    +0.000 A 
ATOM     15  C   UNL     1      10.178  11.677  17.967  0.00  0.00    +0.000 A 
ATOM     16  C   UNL     1       9.351  10.669  17.454  0.00  0.00    +0.000 A 
BRANCH  14  17
ATOM     17  C   UNL     1      11.254  12.895  19.919  0.00  0.00    +0.000 C 
BRANCH  17  18
ATOM     18  N   UNL     1      11.064  14.206  19.272  0.00  0.00    +0.000 NA
ATOM     19  C   UNL     1      10.040  15.009  19.944  0.00  0.00    +0.000 C 
ATOM     20  C   UNL     1      12.332  14.938  19.256  0.00  0.00    +0.000 C 
ENDBRANCH  17  18
ENDBRANCH  14  17
ENDBRANCH   9  11
ENDBRANCH   5   7
BRANCH   1  21
ATOM     21  C   UNL     1       3.464   5.065  17.725  0.00  0.00    +0.000 C 
BRANCH  21  24
ATOM     22  C   UNL     1       2.481   6.339  19.543  0.00  0.00    +0.000 C 
ATOM     23  O   UNL     1       2.814   5.501  20.379  0.00  0.00    +0.000 OA
ATOM     24  N   UNL     1       2.758   6.233  18.200  0.00  0.00    +0.000 N 
ATOM     25  H   UNL     1       2.314   6.836  17.525  0.00  0.00    +0.000 HD
BRANCH  22  29
ATOM     26  C   UNL     1       0.298   9.743  20.968  0.00  0.00    +0.000 A 
ATOM     27  C   UNL     1       0.193   8.494  21.594  0.00  0.00    +0.000 A 
ATOM     28  C   UNL     1       0.898   7.395  21.111  0.00  0.00    +0.000 A 
ATOM     29  C   UNL     1       1.684   7.518  19.967  0.00  0.00    +0.000 A 
ATOM     30  C   UNL     1       1.735   8.743  19.296  0.00  0.00    +0.000 A 
ATOM     31  C   UNL     1       1.029   9.868  19.778  0.00  0.00    +0.000 A 
BRANCH  31  32
ATOM     32  C   UNL     1       1.148  11.147  18.984  0.00  0.00    +0.000 C 
ATOM     33  F   UNL     1      -0.004  11.667  18.489  0.00  0.00    +0.000 F 
ATOM     34  F   UNL     1       1.725  12.146  19.715  0.00  0.00    +0.000 F 
ATOM     35  F   UNL     1       1.968  10.984  17.903  0.00  0.00    +0.000 F 
ENDBRANCH  31  32
BRANCH  26  37
ATOM     36  C   UNL     1      -0.781  10.727  22.826  0.00  0.00    +0.000 C 
ATOM     37  O   UNL     1      -0.299  10.862  21.486  0.00  0.00    +0.000 OA
ENDBRANCH  26  37
ENDBRANCH  22  29
ENDBRANCH  21  24
ENDBRANCH   1  21
TORSDOF 9
ENDMDL
MODEL 4
REMARK VINA RESULT:      -7.8      0.926      1.370
REMARK  Name = 
REMARK  12 active torsions:
REMARK  status: ('A' for Active; 'I' for Inactive)
REMARK    1  A    between atoms: C_1  and  O_2
REMARK    2  A    between atoms: O_2  and  C_3
REMARK    3  A    between atoms: C_6  and  C_7
REMARK    4  A    between atoms: N_9  and  C_10
REMARK    5  A    between atoms: C_10  and  C_11
REMARK    6  A    between atoms: C_15  and  C_16
REMARK    7  A    between atoms: N_18  and  C_19
REMARK    8  A    between atoms: C_22  and  C_23
REMARK    9  A    between atoms: C_23  and  N_24
REMARK   10  A    between atoms: N_24  and  C_25
REMARK   11  A    between atoms: N_24  and  C_26
REMARK   12  A    between atoms: C_31  and  C_32
REMARK                            x       y       z     vdW  Elec       q    Type
REMARK                         _______ _______ _______ _____ _____    ______ ____
ROOT
ATOM      1  C   UNL     1       4.573   5.359  17.218  0.00  0.00    +0.000 A 
ATOM      2  C   UNL     1       5.045   4.513  16.207  0.00  0.00    +0.000 A 
ATOM      3  C   UNL     1       6.370   4.595  15.773  0.00  0.00    +0.000 A 
ATOM      4  C   UNL     1       7.235   5.534  16.335  0.00  0.00    +0.000 A 
ATOM      5  C   UNL     1       6.764   6.411  17.320  0.00  0.00    +0.000 A 
ATOM      6  C   UNL     1       5.436   6.320  17.758  0.00  0.00    +0.000 A 
ENDROOT
BRANCH   5   7
ATOM      7  C   UNL     1       7.658   7.392  17.989  0.00  0.00    +0.000 C 
ATOM      8  O   UNL     1       8.453   6.961  18.822  0.00  0.00    +0.000 OA
ATOM      9  N   UNL     1       7.471   8.720  17.639  0.00  0.00    +0.000 N 
ATOM     10  H   UNL     1       6.636   8.952  17.119  0.00  0.00    +0.000 HD
BRANCH   9  11
ATOM     11  C   UNL     1       8.257   9.805  18.080  0.00  0.00    +0.000 A 
ATOM     12  C   UNL     1       9.187   9.696  19.115  0.00  0.00    +0.000 A 
ATOM     13  C   UNL     1       9.923  10.807  19.529  0.00  0.00    +0.000 A 
ATOM     14  C   UNL     1       9.752  12.051  18.913  0.00  0.00    +0.000 A 
ATOM     15  C   UNL     1       8.837  12.154  17.856  0.00  0.00    +0.000 A 
ATOM     16  C   UNL     1       8.102  11.037  17.438  0.00  0.00    +0.000 A 
BRANCH  14  17
ATOM     17  C   UNL     1      10.537  13.253  19.391  0.00  0.00    +0.000 C 
BRANCH  17  18
ATOM     18  N   UNL     1      10.128  13.743  20.720  0.00  0.00    +0.000 NA
ATOM     19  C   UNL     1      10.808  14.990  21.081  0.00  0.00    +0.000 C 
ATOM     20  C   UNL     1       8.679  13.946  20.748  0.00  0.00    +0.000 C 
ENDBRANCH  17  18
ENDBRANCH  14  17
ENDBRANCH   9  11
ENDBRANCH   5   7
BRANCH   1  21
ATOM     21  C   UNL     1       3.162   5.234  17.725  0.00  0.00    +0.000 C 
BRANCH  21  24
ATOM     22  C   UNL     1       2.264   6.487  19.600  0.00  0.00    +0.000 C 
ATOM     23  O   UNL     1       2.278   5.500  20.333  0.00  0.00    +0.000 OA
ATOM     24  N   UNL     1       2.688   6.476  18.292  0.00  0.00    +0.000 N 
ATOM     25  H   UNL     1       2.491   7.245  17.671  0.00  0.00    +0.000 HD
BRANCH  22  29
ATOM     26  C   UNL     1       0.846  10.195  21.220  0.00  0.00    +0.000 A 
ATOM     27  C   UNL     1       0.895   9.030  21.998  0.00  0.00    +0.000 A 
ATOM     28  C   UNL     1       1.346   7.830  21.453  0.00  0.00    +0.000 A 
ATOM     29  C   UNL     1       1.711   7.768  20.110  0.00  0.00    +0.000 A 
ATOM     30  C   UNL     1       1.595   8.909  19.311  0.00  0.00    +0.000 A 
ATOM     31  C   UNL     1       1.144  10.134  19.853  0.00  0.00    +0.000 A 
BRANCH  31  32
ATOM     32  C   UNL     1       1.054  11.310  18.910  0.00  0.00    +0.000 C 
ATOM     33  F   UNL     1       1.138  12.546  19.466  0.00  0.00    +0.000 F 
ATOM     34  F   UNL     1       2.024  11.266  17.950  0.00  0.00    +0.000 F 
ATOM     35  F   UNL     1      -0.125  11.301  18.219  0.00  0.00    +0.000 F 
ENDBRANCH  31  32
BRANCH  26  37
ATOM     36  C   UNL     1      -0.824  11.498  22.268  0.00  0.00    +0.000 C 
ATOM     37  O   UNL     1       0.510  11.408  21.761  0.00  0.00    +0.000 OA
ENDBRANCH  26  37
ENDBRANCH  22  29
ENDBRANCH  21  24
ENDBRANCH   1  21
TORSDOF 9
ENDMDL
MODEL 5
REMARK VINA RESULT:      -7.8      5.162     10.226
REMARK  Name = 
REMARK  12 active torsions:
REMARK  status: ('A' for Active; 'I' for Inactive)
REMARK    1  A    between atoms: C_1  and  O_2
REMARK    2  A    between atoms: O_2  and  C_3
REMARK    3  A    between atoms: C_6  and  C_7
REMARK    4  A    between atoms: N_9  and  C_10
REMARK    5  A    between atoms: C_10  and  C_11
REMARK    6  A    between atoms: C_15  and  C_16
REMARK    7  A    between atoms: N_18  and  C_19
REMARK    8  A    between atoms: C_22  and  C_23
REMARK    9  A    between atoms: C_23  and  N_24
REMARK   10  A    between atoms: N_24  and  C_25
REMARK   11  A    between atoms: N_24  and  C_26
REMARK   12  A    between atoms: C_31  and  C_32
REMARK                            x       y       z     vdW  Elec       q    Type
REMARK                         _______ _______ _______ _____ _____    ______ ____
ROOT
ATOM      1  C   UNL     1       0.999   8.668  20.565  0.00  0.00    +0.000 A 
ATOM      2  C   UNL     1       1.134   9.177  19.267  0.00  0.00    +0.000 A 
ATOM      3  C   UNL     1       0.679  10.459  18.956  0.00  0.00    +0.000 A 
ATOM      4  C   UNL     1       0.069  11.244  19.934  0.00  0.00    +0.000 A 
ATOM      5  C   UNL     1      -0.107  10.732  21.225  0.00  0.00    +0.000 A 
ATOM      6  C   UNL     1       0.358   9.447  21.536  0.00  0.00    +0.000 A 
ENDROOT
BRANCH   5   7
ATOM      7  C   UNL     1      -0.701  11.545  22.319  0.00  0.00    +0.000 C 
ATOM      8  O   UNL     1      -0.863  11.000  23.409  0.00  0.00    +0.000 OA
ATOM      9  N   UNL     1      -1.064  12.840  21.984  0.00  0.00    +0.000 N 
ATOM     10  H   UNL     1      -1.086  13.079  21.002  0.00  0.00    +0.000 HD
BRANCH   9  11
ATOM     11  C   UNL     1      -1.562  13.811  22.877  0.00  0.00    +0.000 A 
ATOM     12  C   UNL     1      -2.867  13.788  23.372  0.00  0.00    +0.000 A 
ATOM     13  C   UNL     1      -3.318  14.787  24.235  0.00  0.00    +0.000 A 
ATOM     14  C   UNL     1      -2.472  15.829  24.630  0.00  0.00    +0.000 A 
ATOM     15  C   UNL     1      -1.154  15.838  24.153  0.00  0.00    +0.000 A 
ATOM     16  C   UNL     1      -0.701  14.832  23.291  0.00  0.00    +0.000 A 
BRANCH  14  17
ATOM     17  C   UNL     1      -2.983  16.921  25.545  0.00  0.00    +0.000 C 
BRANCH  17  18
ATOM     18  N   UNL     1      -3.767  17.961  24.853  0.00  0.00    +0.000 NA
ATOM     19  C   UNL     1      -3.450  18.031  23.425  0.00  0.00    +0.000 C 
ATOM     20  C   UNL     1      -5.197  17.701  25.029  0.00  0.00    +0.000 C 
ENDBRANCH  17  18
ENDBRANCH  14  17
ENDBRANCH   9  11
ENDBRANCH   5   7
BRANCH   1  21
ATOM     21  C   UNL     1       1.538   7.309  20.915  0.00  0.00    +0.000 C 
BRANCH  21  24
ATOM     22  C   UNL     1       2.663   5.532  19.703  0.00  0.00    +0.000 C 
ATOM     23  O   UNL     1       1.949   4.666  20.205  0.00  0.00    +0.000 OA
ATOM     24  N   UNL     1       2.544   6.875  19.973  0.00  0.00    +0.000 N 
ATOM     25  H   UNL     1       3.257   7.530  19.693  0.00  0.00    +0.000 HD
BRANCH  22  29
ATOM     26  C   UNL     1       5.755   4.520  16.910  0.00  0.00    +0.000 A 
ATOM     27  C   UNL     1       4.413   4.203  16.659  0.00  0.00    +0.000 A 
ATOM     28  C   UNL     1       3.422   4.527  17.583  0.00  0.00    +0.000 A 
ATOM     29  C   UNL     1       3.765   5.131  18.790  0.00  0.00    +0.000 A 
ATOM     30  C   UNL     1       5.110   5.384  19.077  0.00  0.00    +0.000 A 
ATOM     31  C   UNL     1       6.124   5.065  18.147  0.00  0.00    +0.000 A 
BRANCH  31  32
ATOM     32  C   UNL     1       7.546   5.377  18.547  0.00  0.00    +0.000 C 
ATOM     33  F   UNL     1       7.768   5.630  19.863  0.00  0.00    +0.000 F 
ATOM     34  F   UNL     1       8.401   4.367  18.211  0.00  0.00    +0.000 F 
ATOM     35  F   UNL     1       8.019   6.474  17.881  0.00  0.00    +0.000 F 
ENDBRANCH  31  32
BRANCH  26  37
ATOM     36  C   UNL     1       6.267   3.826  14.709  0.00  0.00    +0.000 C 
ATOM     37  O   UNL     1       6.732   4.310  15.972  0.00  0.00    +0.000 OA
ENDBRANCH  26  37
ENDBRANCH  22  29
ENDBRANCH  21  24
ENDBRANCH   1  21
TORSDOF 9
ENDMDL
MODEL 6
REMARK VINA RESULT:      -7.8      4.799      8.483
REMARK  Name = 
REMARK  12 active torsions:
REMARK  status: ('A' for Active; 'I' for Inactive)
REMARK    1  A    between atoms: C_1  and  O_2
REMARK    2  A    between atoms: O_2  and  C_3
REMARK    3  A    between atoms: C_6  and  C_7
REMARK    4  A    between atoms: N_9  and  C_10
REMARK    5  A    between atoms: C_10  and  C_11
REMARK    6  A    between atoms: C_15  and  C_16
REMARK    7  A    between atoms: N_18  and  C_19
REMARK    8  A    between atoms: C_22  and  C_23
REMARK    9  A    between atoms: C_23  and  N_24
REMARK   10  A    between atoms: N_24  and  C_25
REMARK   11  A    between atoms: N_24  and  C_26
REMARK   12  A    between atoms: C_31  and  C_32
REMARK                            x       y       z     vdW  Elec       q    Type
REMARK                         _______ _______ _______ _____ _____    ______ ____
ROOT
ATOM      1  C   UNL     1      -0.539  10.741  20.942  0.00  0.00    +0.000 A 
ATOM      2  C   UNL     1      -0.310  10.376  22.275  0.00  0.00    +0.000 A 
ATOM      3  C   UNL     1       0.610   9.373  22.588  0.00  0.00    +0.000 A 
ATOM      4  C   UNL     1       1.300   8.712  21.572  0.00  0.00    +0.000 A 
ATOM      5  C   UNL     1       1.052   9.042  20.235  0.00  0.00    +0.000 A 
ATOM      6  C   UNL     1       0.134  10.054  19.924  0.00  0.00    +0.000 A 
ENDROOT
BRANCH   5   7
ATOM      7  C   UNL     1       1.799   8.407  19.117  0.00  0.00    +0.000 C 
ATOM      8  O   UNL     1       1.903   9.042  18.070  0.00  0.00    +0.000 OA
ATOM      9  N   UNL     1       2.270   7.125  19.352  0.00  0.00    +0.000 N 
ATOM     10  H   UNL     1       1.917   6.641  20.167  0.00  0.00    +0.000 HD
BRANCH   9  11
ATOM     11  C   UNL     1       3.073   6.370  18.473  0.00  0.00    +0.000 A 
ATOM     12  C   UNL     1       3.981   6.952  17.588  0.00  0.00    +0.000 A 
ATOM     13  C   UNL     1       4.736   6.160  16.721  0.00  0.00    +0.000 A 
ATOM     14  C   UNL     1       4.605   4.767  16.725  0.00  0.00    +0.000 A 
ATOM     15  C   UNL     1       3.712   4.181  17.632  0.00  0.00    +0.000 A 
ATOM     16  C   UNL     1       2.959   4.977  18.505  0.00  0.00    +0.000 A 
BRANCH  14  17
ATOM     17  C   UNL     1       5.410   3.923  15.761  0.00  0.00    +0.000 C 
BRANCH  17  18
ATOM     18  N   UNL     1       5.858   4.652  14.560  0.00  0.00    +0.000 NA
ATOM     19  C   UNL     1       7.277   5.008  14.629  0.00  0.00    +0.000 C 
ATOM     20  C   UNL     1       5.610   3.841  13.367  0.00  0.00    +0.000 C 
ENDBRANCH  17  18
ENDBRANCH  14  17
ENDBRANCH   9  11
ENDBRANCH   5   7
BRANCH   1  21
ATOM     21  C   UNL     1      -1.488  11.858  20.607  0.00  0.00    +0.000 C 
BRANCH  21  24
ATOM     22  C   UNL     1      -0.505  13.673  19.329  0.00  0.00    +0.000 C 
ATOM     23  O   UNL     1      -0.785  13.140  18.257  0.00  0.00    +0.000 OA
ATOM     24  N   UNL     1      -0.813  13.135  20.557  0.00  0.00    +0.000 N 
ATOM     25  H   UNL     1      -0.409  13.500  21.404  0.00  0.00    +0.000 HD
BRANCH  22  29
ATOM     26  C   UNL     1       1.768  17.302  19.560  0.00  0.00    +0.000 A 
ATOM     27  C   UNL     1       0.643  17.093  20.369  0.00  0.00    +0.000 A 
ATOM     28  C   UNL     1      -0.093  15.914  20.272  0.00  0.00    +0.000 A 
ATOM     29  C   UNL     1       0.260  14.947  19.334  0.00  0.00    +0.000 A 
ATOM     30  C   UNL     1       1.337  15.182  18.475  0.00  0.00    +0.000 A 
ATOM     31  C   UNL     1       2.095  16.370  18.566  0.00  0.00    +0.000 A 
BRANCH  31  32
ATOM     32  C   UNL     1       3.241  16.531  17.595  0.00  0.00    +0.000 C 
ATOM     33  F   UNL     1       4.445  16.867  18.122  0.00  0.00    +0.000 F 
ATOM     34  F   UNL     1       3.455  15.393  16.870  0.00  0.00    +0.000 F 
ATOM     35  F   UNL     1       2.969  17.494  16.664  0.00  0.00    +0.000 F 
ENDBRANCH  31  32
BRANCH  26  37
ATOM     36  C   UNL     1       3.332  18.436  20.921  0.00  0.00    +0.000 C 
ATOM     37  O   UNL     1       2.570  18.402  19.711  0.00  0.00    +0.000 OA
ENDBRANCH  26  37
ENDBRANCH  22  29
ENDBRANCH  21  24
ENDBRANCH   1  21
TORSDOF 9
ENDMDL
MODEL 7
REMARK VINA RESULT:      -7.7      0.714      1.123
REMARK  Name = 
REMARK  12 active torsions:
REMARK  status: ('A' for Active; 'I' for Inactive)
REMARK    1  A    between atoms: C_1  and  O_2
REMARK    2  A    between atoms: O_2  and  C_3
REMARK    3  A    between atoms: C_6  and  C_7
REMARK    4  A    between atoms: N_9  and  C_10
REMARK    5  A    between atoms: C_10  and  C_11
REMARK    6  A    between atoms: C_15  and  C_16
REMARK    7  A    between atoms: N_18  and  C_19
REMARK    8  A    between atoms: C_22  and  C_23
REMARK    9  A    between atoms: C_23  and  N_24
REMARK   10  A    between atoms: N_24  and  C_25
REMARK   11  A    between atoms: N_24  and  C_26
REMARK   12  A    between atoms: C_31  and  C_32
REMARK                            x       y       z     vdW  Elec       q    Type
REMARK                         _______ _______ _______ _____ _____    ______ ____
ROOT
ATOM      1  C   UNL     1       4.601   5.267  17.096  0.00  0.00    +0.000 A 
ATOM      2  C   UNL     1       5.101   4.457  16.069  0.00  0.00    +0.000 A 
ATOM      3  C   UNL     1       6.425   4.583  15.646  0.00  0.00    +0.000 A 
ATOM      4  C   UNL     1       7.263   5.530  16.235  0.00  0.00    +0.000 A 
ATOM      5  C   UNL     1       6.764   6.372  17.236  0.00  0.00    +0.000 A 
ATOM      6  C   UNL     1       5.436   6.238  17.663  0.00  0.00    +0.000 A 
ENDROOT
BRANCH   5   7
ATOM      7  C   UNL     1       7.628   7.361  17.933  0.00  0.00    +0.000 C 
ATOM      8  O   UNL     1       8.376   6.940  18.813  0.00  0.00    +0.000 OA
ATOM      9  N   UNL     1       7.469   8.683  17.551  0.00  0.00    +0.000 N 
ATOM     10  H   UNL     1       6.663   8.910  16.984  0.00  0.00    +0.000 HD
BRANCH   9  11
ATOM     11  C   UNL     1       8.237   9.771  18.012  0.00  0.00    +0.000 A 
ATOM     12  C   UNL     1       8.212  11.028  17.406  0.00  0.00    +0.000 A 
ATOM     13  C   UNL     1       9.011  12.066  17.888  0.00  0.00    +0.000 A 
ATOM     14  C   UNL     1       9.849  11.872  18.992  0.00  0.00    +0.000 A 
ATOM     15  C   UNL     1       9.855  10.618  19.616  0.00  0.00    +0.000 A 
ATOM     16  C   UNL     1       9.048   9.579  19.135  0.00  0.00    +0.000 A 
BRANCH  14  17
ATOM     17  C   UNL     1      10.730  12.999  19.487  0.00  0.00    +0.000 C 
BRANCH  17  18
ATOM     18  N   UNL     1       9.988  14.103  20.121  0.00  0.00    +0.000 NA
ATOM     19  C   UNL     1       9.484  15.065  19.137  0.00  0.00    +0.000 C 
ATOM     20  C   UNL     1       8.872  13.566  20.902  0.00  0.00    +0.000 C 
ENDBRANCH  17  18
ENDBRANCH  14  17
ENDBRANCH   9  11
ENDBRANCH   5   7
BRANCH   1  21
ATOM     21  C   UNL     1       3.191   5.096  17.590  0.00  0.00    +0.000 C 
BRANCH  21  24
ATOM     22  C   UNL     1       2.417   6.409  19.479  0.00  0.00    +0.000 C 
ATOM     23  O   UNL     1       2.638   5.496  20.272  0.00  0.00    +0.000 OA
ATOM     24  N   UNL     1       2.661   6.328  18.128  0.00  0.00    +0.000 N 
ATOM     25  H   UNL     1       2.298   7.017  17.489  0.00  0.00    +0.000 HD
BRANCH  22  29
ATOM     26  C   UNL     1       0.783  10.042  21.067  0.00  0.00    +0.000 A 
ATOM     27  C   UNL     1       0.720   8.839  21.783  0.00  0.00    +0.000 A 
ATOM     28  C   UNL     1       1.243   7.665  21.247  0.00  0.00    +0.000 A 
ATOM     29  C   UNL     1       1.797   7.667  19.969  0.00  0.00    +0.000 A 
ATOM     30  C   UNL     1       1.798   8.849  19.222  0.00  0.00    +0.000 A 
ATOM     31  C   UNL     1       1.276  10.048  19.755  0.00  0.00    +0.000 A 
BRANCH  31  32
ATOM     32  C   UNL     1       1.323  11.271  18.871  0.00  0.00    +0.000 C 
ATOM     33  F   UNL     1       0.134  11.739  18.411  0.00  0.00    +0.000 F 
ATOM     34  F   UNL     1       1.922  12.327  19.497  0.00  0.00    +0.000 F 
ATOM     35  F   UNL     1       2.082  11.047  17.756  0.00  0.00    +0.000 F 
ENDBRANCH  31  32
BRANCH  26  37
ATOM     36  C   UNL     1      -0.652  11.119  22.605  0.00  0.00    +0.000 C 
ATOM     37  O   UNL     1       0.374  11.229  21.615  0.00  0.00    +0.000 OA
ENDBRANCH  26  37
ENDBRANCH  22  29
ENDBRANCH  21  24
ENDBRANCH   1  21
TORSDOF 9
ENDMDL
MODEL 8
REMARK VINA RESULT:      -7.7      1.796      2.426
REMARK  Name = 
REMARK  12 active torsions:
REMARK  status: ('A' for Active; 'I' for Inactive)
REMARK    1  A    between atoms: C_1  and  O_2
REMARK    2  A    between atoms: O_2  and  C_3
REMARK    3  A    between atoms: C_6  and  C_7
REMARK    4  A    between atoms: N_9  and  C_10
REMARK    5  A    between atoms: C_10  and  C_11
REMARK    6  A    between atoms: C_15  and  C_16
REMARK    7  A    between atoms: N_18  and  C_19
REMARK    8  A    between atoms: C_22  and  C_23
REMARK    9  A    between atoms: C_23  and  N_24
REMARK   10  A    between atoms: N_24  and  C_25
REMARK   11  A    between atoms: N_24  and  C_26
REMARK   12  A    between atoms: C_31  and  C_32
REMARK                            x       y       z     vdW  Elec       q    Type
REMARK                         _______ _______ _______ _____ _____    ______ ____
ROOT
ATOM      1  C   UNL     1       5.712   6.309  17.671  0.00  0.00    +0.000 A 
ATOM      2  C   UNL     1       6.427   5.220  18.186  0.00  0.00    +0.000 A 
ATOM      3  C   UNL     1       7.717   5.392  18.691  0.00  0.00    +0.000 A 
ATOM      4  C   UNL     1       8.314   6.652  18.677  0.00  0.00    +0.000 A 
ATOM      5  C   UNL     1       7.625   7.741  18.130  0.00  0.00    +0.000 A 
ATOM      6  C   UNL     1       6.328   7.566  17.630  0.00  0.00    +0.000 A 
ENDROOT
BRANCH   5   7
ATOM      7  C   UNL     1       8.194   9.115  18.139  0.00  0.00    +0.000 C 
ATOM      8  O   UNL     1       7.796   9.899  17.280  0.00  0.00    +0.000 OA
ATOM      9  N   UNL     1       9.164   9.365  19.097  0.00  0.00    +0.000 N 
ATOM     10  H   UNL     1       9.554   8.569  19.583  0.00  0.00    +0.000 HD
BRANCH   9  11
ATOM     11  C   UNL     1       9.774  10.612  19.344  0.00  0.00    +0.000 A 
ATOM     12  C   UNL     1       9.610  11.312  20.540  0.00  0.00    +0.000 A 
ATOM     13  C   UNL     1      10.217  12.555  20.725  0.00  0.00    +0.000 A 
ATOM     14  C   UNL     1      11.008  13.123  19.720  0.00  0.00    +0.000 A 
ATOM     15  C   UNL     1      11.193  12.408  18.529  0.00  0.00    +0.000 A 
ATOM     16  C   UNL     1      10.588  11.158  18.347  0.00  0.00    +0.000 A 
BRANCH  14  17
ATOM     17  C   UNL     1      11.638  14.484  19.923  0.00  0.00    +0.000 C 
BRANCH  17  18
ATOM     18  N   UNL     1      10.732  15.610  19.630  0.00  0.00    +0.000 NA
ATOM     19  C   UNL     1       9.848  15.325  18.497  0.00  0.00    +0.000 C 
ATOM     20  C   UNL     1       9.931  15.923  20.814  0.00  0.00    +0.000 C 
ENDBRANCH  17  18
ENDBRANCH  14  17
ENDBRANCH   9  11
ENDBRANCH   5   7
BRANCH   1  21
ATOM     21  C   UNL     1       4.303   6.136  17.176  0.00  0.00    +0.000 C 
BRANCH  21  24
ATOM     22  C   UNL     1       2.763   7.876  17.876  0.00  0.00    +0.000 C 
ATOM     23  O   UNL     1       3.005   8.563  16.886  0.00  0.00    +0.000 OA
ATOM     24  N   UNL     1       3.339   6.652  18.121  0.00  0.00    +0.000 N 
ATOM     25  H   UNL     1       3.262   6.208  19.022  0.00  0.00    +0.000 HD
BRANCH  22  29
ATOM     26  C   UNL     1       0.283   9.415  21.018  0.00  0.00    +0.000 A 
ATOM     27  C   UNL     1       1.005   8.225  21.175  0.00  0.00    +0.000 A 
ATOM     28  C   UNL     1       1.796   7.731  20.141  0.00  0.00    +0.000 A 
ATOM     29  C   UNL     1       1.840   8.397  18.918  0.00  0.00    +0.000 A 
ATOM     30  C   UNL     1       1.064   9.545  18.731  0.00  0.00    +0.000 A 
ATOM     31  C   UNL     1       0.262  10.060  19.774  0.00  0.00    +0.000 A 
BRANCH  31  32
ATOM     32  C   UNL     1      -0.538  11.305  19.475  0.00  0.00    +0.000 C 
ATOM     33  F   UNL     1      -1.881  11.226  19.658  0.00  0.00    +0.000 F 
ATOM     34  F   UNL     1      -0.121  12.368  20.224  0.00  0.00    +0.000 F 
ATOM     35  F   UNL     1      -0.370  11.702  18.178  0.00  0.00    +0.000 F 
ENDBRANCH  31  32
BRANCH  26  37
ATOM     36  C   UNL     1      -0.016   9.546  23.359  0.00  0.00    +0.000 C 
ATOM     37  O   UNL     1      -0.414   9.977  22.055  0.00  0.00    +0.000 OA
ENDBRANCH  26  37
ENDBRANCH  22  29
ENDBRANCH  21  24
ENDBRANCH   1  21
TORSDOF 9
ENDMDL
MODEL 9
REMARK VINA RESULT:      -7.6      1.496      2.135
REMARK  Name = 
REMARK  12 active torsions:
REMARK  status: ('A' for Active; 'I' for Inactive)
REMARK    1  A    between atoms: C_1  and  O_2
REMARK    2  A    between atoms: O_2  and  C_3
REMARK    3  A    between atoms: C_6  and  C_7
REMARK    4  A    between atoms: N_9  and  C_10
REMARK    5  A    between atoms: C_10  and  C_11
REMARK    6  A    between atoms: C_15  and  C_16
REMARK    7  A    between atoms: N_18  and  C_19
REMARK    8  A    between atoms: C_22  and  C_23
REMARK    9  A    between atoms: C_23  and  N_24
REMARK   10  A    between atoms: N_24  and  C_25
REMARK   11  A    between atoms: N_24  and  C_26
REMARK   12  A    between atoms: C_31  and  C_32
REMARK                            x       y       z     vdW  Elec       q    Type
REMARK                         _______ _______ _______ _____ _____    ______ ____
ROOT
ATOM      1  C   UNL     1       4.542   5.277  17.314  0.00  0.00    +0.000 A 
ATOM      2  C   UNL     1       5.031   4.348  16.388  0.00  0.00    +0.000 A 
ATOM      3  C   UNL     1       6.373   4.366  16.003  0.00  0.00    +0.000 A 
ATOM      4  C   UNL     1       7.240   5.324  16.529  0.00  0.00    +0.000 A 
ATOM      5  C   UNL     1       6.755   6.282  17.427  0.00  0.00    +0.000 A 
ATOM      6  C   UNL     1       5.409   6.256  17.816  0.00  0.00    +0.000 A 
ENDROOT
BRANCH   5   7
ATOM      7  C   UNL     1       7.648   7.289  18.059  0.00  0.00    +0.000 C 
ATOM      8  O   UNL     1       8.457   6.888  18.893  0.00  0.00    +0.000 OA
ATOM      9  N   UNL     1       7.445   8.606  17.675  0.00  0.00    +0.000 N 
ATOM     10  H   UNL     1       6.602   8.816  17.159  0.00  0.00    +0.000 HD
BRANCH   9  11
ATOM     11  C   UNL     1       8.226   9.709  18.076  0.00  0.00    +0.000 A 
ATOM     12  C   UNL     1       8.193  10.940  17.420  0.00  0.00    +0.000 A 
ATOM     13  C   UNL     1       9.004  11.993  17.843  0.00  0.00    +0.000 A 
ATOM     14  C   UNL     1       9.863  11.842  18.938  0.00  0.00    +0.000 A 
ATOM     15  C   UNL     1       9.877  10.614  19.612  0.00  0.00    +0.000 A 
ATOM     16  C   UNL     1       9.058   9.559  19.190  0.00  0.00    +0.000 A 
BRANCH  14  17
ATOM     17  C   UNL     1      10.758  12.984  19.368  0.00  0.00    +0.000 C 
BRANCH  17  18
ATOM     18  N   UNL     1      10.035  14.102  20.002  0.00  0.00    +0.000 NA
ATOM     19  C   UNL     1       9.805  13.869  21.431  0.00  0.00    +0.000 C 
ATOM     20  C   UNL     1      10.787  15.344  19.820  0.00  0.00    +0.000 C 
ENDBRANCH  17  18
ENDBRANCH  14  17
ENDBRANCH   9  11
ENDBRANCH   5   7
BRANCH   1  21
ATOM     21  C   UNL     1       3.110   5.225  17.771  0.00  0.00    +0.000 C 
BRANCH  21  24
ATOM     22  C   UNL     1       2.341   7.081  19.131  0.00  0.00    +0.000 C 
ATOM     23  O   UNL     1       2.641   6.508  20.177  0.00  0.00    +0.000 OA
ATOM     24  N   UNL     1       2.536   6.546  17.880  0.00  0.00    +0.000 N 
ATOM     25  H   UNL     1       2.112   6.957  17.063  0.00  0.00    +0.000 HD
BRANCH  22  29
ATOM     26  C   UNL     1       0.249  10.824  19.169  0.00  0.00    +0.000 A 
ATOM     27  C   UNL     1       0.798  10.307  17.988  0.00  0.00    +0.000 A 
ATOM     28  C   UNL     1       1.487   9.097  17.995  0.00  0.00    +0.000 A 
ATOM     29  C   UNL     1       1.674   8.408  19.191  0.00  0.00    +0.000 A 
ATOM     30  C   UNL     1       1.191   8.955  20.383  0.00  0.00    +0.000 A 
ATOM     31  C   UNL     1       0.486  10.179  20.390  0.00  0.00    +0.000 A 
BRANCH  31  32
ATOM     32  C   UNL     1       0.003  10.687  21.727  0.00  0.00    +0.000 C 
ATOM     33  F   UNL     1       0.370   9.971  22.821  0.00  0.00    +0.000 F 
ATOM     34  F   UNL     1       0.417  11.967  21.963  0.00  0.00    +0.000 F 
ATOM     35  F   UNL     1      -1.362  10.745  21.771  0.00  0.00    +0.000 F 
ENDBRANCH  31  32
BRANCH  26  37
ATOM     36  C   UNL     1       0.163  13.160  18.818  0.00  0.00    +0.000 C 
ATOM     37  O   UNL     1      -0.524  11.956  19.168  0.00  0.00    +0.000 OA
ENDBRANCH  26  37
ENDBRANCH  22  29
ENDBRANCH  21  24
ENDBRANCH   1  21
TORSDOF 9
ENDMDL
