MODEL 1
REMARK VINA RESULT:      -8.0      0.000      0.000
REMARK  Name = 
REMARK  4 active torsions:
REMARK  status: ('A' for Active; 'I' for Inactive)
REMARK    1  A    between atoms: C_2  and  C_3
REMARK    2  A    between atoms: C_7  and  N_8
REMARK    3  A    between atoms: C_13  and  O_14
REMARK    4  A    between atoms: O_14  and  C_15
REMARK                            x       y       z     vdW  Elec       q    Type
REMARK                         _______ _______ _______ _____ _____    ______ ____
ROOT
ATOM      1  N   UNL     1       8.958   8.670  18.961  0.00  0.00    +0.000 N 
ATOM      2  C   UNL     1       8.015   8.200  18.048  0.00  0.00    +0.000 C 
ATOM      3  O   UNL     1       7.333   8.885  17.291  0.00  0.00    +0.000 OA
ATOM      4  N   UNL     1       7.977   6.815  17.989  0.00  0.00    +0.000 N 
ATOM      5  C   UNL     1       7.134   6.077  17.037  0.00  0.00    +0.000 C 
ATOM      6  C   UNL     1       6.448   5.411  18.230  0.00  0.00    +0.000 C 
ATOM      7  C   UNL     1       7.621   5.920  19.097  0.00  0.00    +0.000 C 
ATOM      8  H   UNL     1       9.544   7.962  19.380  0.00  0.00    +0.000 HD
ENDROOT
BRANCH   1  13
ATOM      9  C   UNL     1      10.219  12.159  18.392  0.00  0.00    +0.000 A 
ATOM     10  C   UNL     1       9.994  12.734  19.644  0.00  0.00    +0.000 A 
ATOM     11  C   UNL     1       9.419  11.973  20.658  0.00  0.00    +0.000 A 
ATOM     12  C   UNL     1       9.071  10.640  20.425  0.00  0.00    +0.000 A 
ATOM     13  C   UNL     1       9.289  10.033  19.186  0.00  0.00    +0.000 A 
ATOM     14  C   UNL     1       9.873  10.806  18.165  0.00  0.00    +0.000 A 
BRANCH   9  16
ATOM     15  N   UNL     1      11.279  13.586  16.484  0.00  0.00    +0.000 NA
ATOM     16  C   UNL     1      10.810  12.946  17.347  0.00  0.00    +0.000 C 
ENDBRANCH   9  16
ENDBRANCH   1  13
BRANCH   6  17
ATOM     17  O   UNL     1       5.100   5.866  18.555  0.00  0.00    +0.000 OA
BRANCH  17  18
ATOM     18  C   UNL     1       4.050   5.026  18.247  0.00  0.00    +0.000 A 
ATOM     19  C   UNL     1       4.258   3.659  18.033  0.00  0.00    +0.000 A 
ATOM     20  C   UNL     1       3.201   2.806  17.747  0.00  0.00    +0.000 A 
ATOM     21  C   UNL     1       1.903   3.296  17.700  0.00  0.00    +0.000 A 
ATOM     22  C   UNL     1       1.677   4.661  17.872  0.00  0.00    +0.000 A 
ATOM     23  C   UNL     1       2.752   5.532  18.094  0.00  0.00    +0.000 A 
ATOM     24 CL   UNL     1       2.419   7.226  18.071  0.00  0.00    +0.000 Cl
ENDBRANCH  17  18
ENDBRANCH   6  17
TORSDOF 4
ENDMDL
MODEL 2
REMARK VINA RESULT:      -7.7      1.307      1.995
REMARK  Name = 
REMARK  4 active torsions:
REMARK  status: ('A' for Active; 'I' for Inactive)
REMARK    1  A    between atoms: C_2  and  C_3
REMARK    2  A    between atoms: C_7  and  N_8
REMARK    3  A    between atoms: C_13  and  O_14
REMARK    4  A    between atoms: O_14  and  C_15
REMARK                            x       y       z     vdW  Elec       q    Type
REMARK                         _______ _______ _______ _____ _____    ______ ____
ROOT
ATOM      1  N   UNL     1       8.914   8.655  18.985  0.00  0.00    +0.000 N 
ATOM      2  C   UNL     1       8.000   8.102  18.090  0.00  0.00    +0.000 C 
ATOM      3  O   UNL     1       7.316   8.719  17.278  0.00  0.00    +0.000 OA
ATOM      4  N   UNL     1       7.998   6.716  18.120  0.00  0.00    +0.000 N 
ATOM      5  C   UNL     1       7.191   5.896  17.205  0.00  0.00    +0.000 C 
ATOM      6  C   UNL     1       6.501   5.291  18.427  0.00  0.00    +0.000 C 
ATOM      7  C   UNL     1       7.644   5.885  19.278  0.00  0.00    +0.000 C 
ATOM      8  H   UNL     1       9.509   7.991  19.460  0.00  0.00    +0.000 HD
ENDROOT
BRANCH   1  13
ATOM      9  C   UNL     1       9.344  12.055  20.514  0.00  0.00    +0.000 A 
ATOM     10  C   UNL     1       9.741  12.802  19.403  0.00  0.00    +0.000 A 
ATOM     11  C   UNL     1       9.874  12.178  18.166  0.00  0.00    +0.000 A 
ATOM     12  C   UNL     1       9.611  10.812  18.037  0.00  0.00    +0.000 A 
ATOM     13  C   UNL     1       9.207  10.038  19.127  0.00  0.00    +0.000 A 
ATOM     14  C   UNL     1       9.070  10.674  20.374  0.00  0.00    +0.000 A 
BRANCH   9  16
ATOM     15  N   UNL     1       9.080  13.225  22.830  0.00  0.00    +0.000 NA
ATOM     16  C   UNL     1       9.208  12.701  21.789  0.00  0.00    +0.000 C 
ENDBRANCH   9  16
ENDBRANCH   1  13
BRANCH   6  17
ATOM     17  O   UNL     1       5.136   5.731  18.699  0.00  0.00    +0.000 OA
BRANCH  17  18
ATOM     18  C   UNL     1       4.109   4.876  18.357  0.00  0.00    +0.000 A 
ATOM     19  C   UNL     1       4.343   3.513  18.147  0.00  0.00    +0.000 A 
ATOM     20  C   UNL     1       3.309   2.645  17.827  0.00  0.00    +0.000 A 
ATOM     21  C   UNL     1       2.005   3.116  17.740  0.00  0.00    +0.000 A 
ATOM     22  C   UNL     1       1.754   4.477  17.906  0.00  0.00    +0.000 A 
ATOM     23  C   UNL     1       2.808   5.363  18.163  0.00  0.00    +0.000 A 
ATOM     24 CL   UNL     1       2.452   7.053  18.132  0.00  0.00    +0.000 Cl
ENDBRANCH  17  18
ENDBRANCH   6  17
TORSDOF 4
ENDMDL
MODEL 3
REMARK VINA RESULT:      -7.5      4.946      7.100
REMARK  Name = 
REMARK  4 active torsions:
REMARK  status: ('A' for Active; 'I' for Inactive)
REMARK    1  A    between atoms: C_2  and  C_3
REMARK    2  A    between atoms: C_7  and  N_8
REMARK    3  A    between atoms: C_13  and  O_14
REMARK    4  A    between atoms: O_14  and  C_15
REMARK                            x       y       z     vdW  Elec       q    Type
REMARK                         _______ _______ _______ _____ _____    ______ ____
ROOT
ATOM      1  N   UNL     1       6.269   5.584  15.444  0.00  0.00    +0.000 N 
ATOM      2  C   UNL     1       6.709   5.084  16.669  0.00  0.00    +0.000 C 
ATOM      3  O   UNL     1       7.526   4.182  16.833  0.00  0.00    +0.000 OA
ATOM      4  N   UNL     1       6.200   5.792  17.746  0.00  0.00    +0.000 N 
ATOM      5  C   UNL     1       6.587   5.521  19.139  0.00  0.00    +0.000 C 
ATOM      6  C   UNL     1       5.116   5.236  19.445  0.00  0.00    +0.000 C 
ATOM      7  C   UNL     1       4.778   5.912  18.098  0.00  0.00    +0.000 C 
ATOM      8  H   UNL     1       5.726   6.435  15.495  0.00  0.00    +0.000 HD
ENDROOT
BRANCH   1  13
ATOM      9  C   UNL     1       6.504   3.522  12.319  0.00  0.00    +0.000 A 
ATOM     10  C   UNL     1       7.527   4.182  11.636  0.00  0.00    +0.000 A 
ATOM     11  C   UNL     1       8.121   5.305  12.205  0.00  0.00    +0.000 A 
ATOM     12  C   UNL     1       7.696   5.768  13.453  0.00  0.00    +0.000 A 
ATOM     13  C   UNL     1       6.680   5.126  14.164  0.00  0.00    +0.000 A 
ATOM     14  C   UNL     1       6.085   3.989  13.586  0.00  0.00    +0.000 A 
BRANCH   9  16
ATOM     15  N   UNL     1       5.382   1.418  11.261  0.00  0.00    +0.000 NA
ATOM     16  C   UNL     1       5.893   2.364  11.729  0.00  0.00    +0.000 C 
ENDBRANCH   9  16
ENDBRANCH   1  13
BRANCH   6  17
ATOM     17  O   UNL     1       4.740   3.838  19.630  0.00  0.00    +0.000 OA
BRANCH  17  18
ATOM     18  C   UNL     1       3.397   3.551  19.766  0.00  0.00    +0.000 A 
ATOM     19  C   UNL     1       2.574   4.321  20.595  0.00  0.00    +0.000 A 
ATOM     20  C   UNL     1       1.218   4.050  20.715  0.00  0.00    +0.000 A 
ATOM     21  C   UNL     1       0.645   3.019  19.981  0.00  0.00    +0.000 A 
ATOM     22  C   UNL     1       1.454   2.214  19.180  0.00  0.00    +0.000 A 
ATOM     23  C   UNL     1       2.834   2.446  19.111  0.00  0.00    +0.000 A 
ATOM     24 CL   UNL     1       3.796   1.276  18.282  0.00  0.00    +0.000 Cl
ENDBRANCH  17  18
ENDBRANCH   6  17
TORSDOF 4
ENDMDL
MODEL 4
REMARK VINA RESULT:      -7.5      1.134      1.304
REMARK  Name = 
REMARK  4 active torsions:
REMARK  status: ('A' for Active; 'I' for Inactive)
REMARK    1  A    between atoms: C_2  and  C_3
REMARK    2  A    between atoms: C_7  and  N_8
REMARK    3  A    between atoms: C_13  and  O_14
REMARK    4  A    between atoms: O_14  and  C_15
REMARK                            x       y       z     vdW  Elec       q    Type
REMARK                         _______ _______ _______ _____ _____    ______ ____
ROOT
ATOM      1  N   UNL     1       8.939   8.704  19.096  0.00  0.00    +0.000 N 
ATOM      2  C   UNL     1       8.093   8.226  18.096  0.00  0.00    +0.000 C 
ATOM      3  O   UNL     1       7.567   8.893  17.209  0.00  0.00    +0.000 OA
ATOM      4  N   UNL     1       7.965   6.845  18.123  0.00  0.00    +0.000 N 
ATOM      5  C   UNL     1       7.204   6.091  17.116  0.00  0.00    +0.000 C 
ATOM      6  C   UNL     1       6.322   5.560  18.246  0.00  0.00    +0.000 C 
ATOM      7  C   UNL     1       7.403   6.058  19.229  0.00  0.00    +0.000 C 
ATOM      8  H   UNL     1       9.412   7.994  19.637  0.00  0.00    +0.000 HD
ENDROOT
BRANCH   1  13
ATOM      9  C   UNL     1      10.317  12.122  18.392  0.00  0.00    +0.000 A 
ATOM     10  C   UNL     1      10.164  12.736  19.636  0.00  0.00    +0.000 A 
ATOM     11  C   UNL     1       9.598  12.024  20.690  0.00  0.00    +0.000 A 
ATOM     12  C   UNL     1       9.188  10.702  20.504  0.00  0.00    +0.000 A 
ATOM     13  C   UNL     1       9.333  10.057  19.274  0.00  0.00    +0.000 A 
ATOM     14  C   UNL     1       9.909  10.780  18.212  0.00  0.00    +0.000 A 
BRANCH   9  16
ATOM     15  N   UNL     1      11.390  13.464  16.430  0.00  0.00    +0.000 NA
ATOM     16  C   UNL     1      10.900  12.859  17.307  0.00  0.00    +0.000 C 
ENDBRANCH   9  16
ENDBRANCH   1  13
BRANCH   6  17
ATOM     17  O   UNL     1       4.978   6.120  18.354  0.00  0.00    +0.000 OA
BRANCH  17  18
ATOM     18  C   UNL     1       3.936   5.243  18.576  0.00  0.00    +0.000 A 
ATOM     19  C   UNL     1       3.284   5.195  19.812  0.00  0.00    +0.000 A 
ATOM     20  C   UNL     1       2.219   4.332  20.032  0.00  0.00    +0.000 A 
ATOM     21  C   UNL     1       1.760   3.517  19.005  0.00  0.00    +0.000 A 
ATOM     22  C   UNL     1       2.420   3.520  17.777  0.00  0.00    +0.000 A 
ATOM     23  C   UNL     1       3.536   4.343  17.578  0.00  0.00    +0.000 A 
ATOM     24 CL   UNL     1       4.432   4.126  16.118  0.00  0.00    +0.000 Cl
ENDBRANCH  17  18
ENDBRANCH   6  17
TORSDOF 4
ENDMDL
MODEL 5
REMARK VINA RESULT:      -7.2      1.729      2.299
REMARK  Name = 
REMARK  4 active torsions:
REMARK  status: ('A' for Active; 'I' for Inactive)
REMARK    1  A    between atoms: C_2  and  C_3
REMARK    2  A    between atoms: C_7  and  N_8
REMARK    3  A    between atoms: C_13  and  O_14
REMARK    4  A    between atoms: O_14  and  C_15
REMARK                            x       y       z     vdW  Elec       q    Type
REMARK                         _______ _______ _______ _____ _____    ______ ____
ROOT
ATOM      1  N   UNL     1       8.850   8.544  19.093  0.00  0.00    +0.000 N 
ATOM      2  C   UNL     1       8.058   7.909  18.138  0.00  0.00    +0.000 C 
ATOM      3  O   UNL     1       7.534   8.437  17.161  0.00  0.00    +0.000 OA
ATOM      4  N   UNL     1       7.988   6.538  18.333  0.00  0.00    +0.000 N 
ATOM      5  C   UNL     1       7.292   5.631  17.408  0.00  0.00    +0.000 C 
ATOM      6  C   UNL     1       6.397   5.203  18.571  0.00  0.00    +0.000 C 
ATOM      7  C   UNL     1       7.424   5.868  19.513  0.00  0.00    +0.000 C 
ATOM      8  H   UNL     1       9.335   7.929  19.731  0.00  0.00    +0.000 HD
ENDROOT
BRANCH   1  13
ATOM      9  C   UNL     1       9.409  12.044  20.325  0.00  0.00    +0.000 A 
ATOM     10  C   UNL     1       9.791  12.687  19.146  0.00  0.00    +0.000 A 
ATOM     11  C   UNL     1       9.871  11.961  17.961  0.00  0.00    +0.000 A 
ATOM     12  C   UNL     1       9.571  10.597  17.952  0.00  0.00    +0.000 A 
ATOM     13  C   UNL     1       9.180   9.926  19.112  0.00  0.00    +0.000 A 
ATOM     14  C   UNL     1       9.097  10.665  20.307  0.00  0.00    +0.000 A 
BRANCH   9  16
ATOM     15  N   UNL     1       9.269  13.421  22.536  0.00  0.00    +0.000 NA
ATOM     16  C   UNL     1       9.327  12.795  21.546  0.00  0.00    +0.000 C 
ENDBRANCH   9  16
ENDBRANCH   1  13
BRANCH   6  17
ATOM     17  O   UNL     1       5.028   5.710  18.572  0.00  0.00    +0.000 OA
BRANCH  17  18
ATOM     18  C   UNL     1       4.005   4.785  18.582  0.00  0.00    +0.000 A 
ATOM     19  C   UNL     1       3.324   4.475  19.765  0.00  0.00    +0.000 A 
ATOM     20  C   UNL     1       2.277   3.563  19.775  0.00  0.00    +0.000 A 
ATOM     21  C   UNL     1       1.864   2.962  18.593  0.00  0.00    +0.000 A 
ATOM     22  C   UNL     1       2.553   3.227  17.410  0.00  0.00    +0.000 A 
ATOM     23  C   UNL     1       3.652   4.096  17.413  0.00  0.00    +0.000 A 
ATOM     24 CL   UNL     1       4.588   4.197  15.965  0.00  0.00    +0.000 Cl
ENDBRANCH  17  18
ENDBRANCH   6  17
TORSDOF 4
ENDMDL
MODEL 6
REMARK VINA RESULT:      -7.2      1.771      1.975
REMARK  Name = 
REMARK  4 active torsions:
REMARK  status: ('A' for Active; 'I' for Inactive)
REMARK    1  A    between atoms: C_2  and  C_3
REMARK    2  A    between atoms: C_7  and  N_8
REMARK    3  A    between atoms: C_13  and  O_14
REMARK    4  A    between atoms: O_14  and  C_15
REMARK                            x       y       z     vdW  Elec       q    Type
REMARK                         _______ _______ _______ _____ _____    ______ ____
ROOT
ATOM      1  N   UNL     1       8.451   8.202  18.714  0.00  0.00    +0.000 N 
ATOM      2  C   UNL     1       7.732   7.376  17.851  0.00  0.00    +0.000 C 
ATOM      3  O   UNL     1       7.248   7.701  16.771  0.00  0.00    +0.000 OA
ATOM      4  N   UNL     1       7.692   6.060  18.286  0.00  0.00    +0.000 N 
ATOM      5  C   UNL     1       7.076   4.977  17.506  0.00  0.00    +0.000 C 
ATOM      6  C   UNL     1       6.130   4.729  18.681  0.00  0.00    +0.000 C 
ATOM      7  C   UNL     1       7.083   5.590  19.538  0.00  0.00    +0.000 C 
ATOM      8  H   UNL     1       8.918   7.730  19.475  0.00  0.00    +0.000 HD
ENDROOT
BRANCH   1  13
ATOM      9  C   UNL     1      10.176  11.532  18.854  0.00  0.00    +0.000 A 
ATOM     10  C   UNL     1       9.293  12.324  18.119  0.00  0.00    +0.000 A 
ATOM     11  C   UNL     1       8.146  11.753  17.575  0.00  0.00    +0.000 A 
ATOM     12  C   UNL     1       7.879  10.395  17.765  0.00  0.00    +0.000 A 
ATOM     13  C   UNL     1       8.739   9.577  18.500  0.00  0.00    +0.000 A 
ATOM     14  C   UNL     1       9.895  10.159  19.051  0.00  0.00    +0.000 A 
BRANCH   9  16
ATOM     15  N   UNL     1      12.333  12.589  19.869  0.00  0.00    +0.000 NA
ATOM     16  C   UNL     1      11.359  12.122  19.413  0.00  0.00    +0.000 C 
ENDBRANCH   9  16
ENDBRANCH   1  13
BRANCH   6  17
ATOM     17  O   UNL     1       4.749   5.174  18.523  0.00  0.00    +0.000 OA
BRANCH  17  18
ATOM     18  C   UNL     1       3.804   4.636  19.372  0.00  0.00    +0.000 A 
ATOM     19  C   UNL     1       3.837   3.283  19.726  0.00  0.00    +0.000 A 
ATOM     20  C   UNL     1       2.902   2.743  20.599  0.00  0.00    +0.000 A 
ATOM     21  C   UNL     1       1.927   3.555  21.165  0.00  0.00    +0.000 A 
ATOM     22  C   UNL     1       1.851   4.897  20.796  0.00  0.00    +0.000 A 
ATOM     23  C   UNL     1       2.754   5.425  19.863  0.00  0.00    +0.000 A 
ATOM     24 CL   UNL     1       2.458   7.027  19.290  0.00  0.00    +0.000 Cl
ENDBRANCH  17  18
ENDBRANCH   6  17
TORSDOF 4
ENDMDL
MODEL 7
REMARK VINA RESULT:      -7.2      1.967      2.364
REMARK  Name = 
REMARK  4 active torsions:
REMARK  status: ('A' for Active; 'I' for Inactive)
REMARK    1  A    between atoms: C_2  and  C_3
REMARK    2  A    between atoms: C_7  and  N_8
REMARK    3  A    between atoms: C_13  and  O_14
REMARK    4  A    between atoms: O_14  and  C_15
REMARK                            x       y       z     vdW  Elec       q    Type
REMARK                         _______ _______ _______ _____ _____    ______ ____
ROOT
ATOM      1  N   UNL     1       8.313   8.023  18.786  0.00  0.00    +0.000 N 
ATOM      2  C   UNL     1       7.732   7.155  17.863  0.00  0.00    +0.000 C 
ATOM      3  O   UNL     1       7.446   7.418  16.698  0.00  0.00    +0.000 OA
ATOM      4  N   UNL     1       7.587   5.869  18.362  0.00  0.00    +0.000 N 
ATOM      5  C   UNL     1       7.087   4.748  17.553  0.00  0.00    +0.000 C 
ATOM      6  C   UNL     1       5.950   4.585  18.562  0.00  0.00    +0.000 C 
ATOM      7  C   UNL     1       6.764   5.485  19.516  0.00  0.00    +0.000 C 
ATOM      8  H   UNL     1       8.633   7.592  19.642  0.00  0.00    +0.000 HD
ENDROOT
BRANCH   1  13
ATOM      9  C   UNL     1      10.176  11.279  18.886  0.00  0.00    +0.000 A 
ATOM     10  C   UNL     1       9.348  12.087  18.105  0.00  0.00    +0.000 A 
ATOM     11  C   UNL     1       8.193  11.550  17.544  0.00  0.00    +0.000 A 
ATOM     12  C   UNL     1       7.863  10.211  17.762  0.00  0.00    +0.000 A 
ATOM     13  C   UNL     1       8.666   9.377  18.544  0.00  0.00    +0.000 A 
ATOM     14  C   UNL     1       9.831   9.925  19.112  0.00  0.00    +0.000 A 
BRANCH   9  16
ATOM     15  N   UNL     1      12.333  12.304  19.934  0.00  0.00    +0.000 NA
ATOM     16  C   UNL     1      11.367  11.834  19.463  0.00  0.00    +0.000 C 
ENDBRANCH   9  16
ENDBRANCH   1  13
BRANCH   6  17
ATOM     17  O   UNL     1       4.627   5.038  18.145  0.00  0.00    +0.000 OA
BRANCH  17  18
ATOM     18  C   UNL     1       3.546   4.639  18.904  0.00  0.00    +0.000 A 
ATOM     19  C   UNL     1       3.036   5.456  19.919  0.00  0.00    +0.000 A 
ATOM     20  C   UNL     1       1.933   5.069  20.668  0.00  0.00    +0.000 A 
ATOM     21  C   UNL     1       1.293   3.866  20.397  0.00  0.00    +0.000 A 
ATOM     22  C   UNL     1       1.808   3.020  19.416  0.00  0.00    +0.000 A 
ATOM     23  C   UNL     1       2.961   3.380  18.706  0.00  0.00    +0.000 A 
ATOM     24 CL   UNL     1       3.664   2.188  17.674  0.00  0.00    +0.000 Cl
ENDBRANCH  17  18
ENDBRANCH   6  17
TORSDOF 4
ENDMDL
MODEL 8
REMARK VINA RESULT:      -7.1      4.844      6.945
REMARK  Name = 
REMARK  4 active torsions:
REMARK  status: ('A' for Active; 'I' for Inactive)
REMARK    1  A    between atoms: C_2  and  C_3
REMARK    2  A    between atoms: C_7  and  N_8
REMARK    3  A    between atoms: C_13  and  O_14
REMARK    4  A    between atoms: O_14  and  C_15
REMARK                            x       y       z     vdW  Elec       q    Type
REMARK                         _______ _______ _______ _____ _____    ______ ____
ROOT
ATOM      1  N   UNL     1       6.218   5.527  15.531  0.00  0.00    +0.000 N 
ATOM      2  C   UNL     1       6.723   5.076  16.749  0.00  0.00    +0.000 C 
ATOM      3  O   UNL     1       7.617   4.248  16.903  0.00  0.00    +0.000 OA
ATOM      4  N   UNL     1       6.175   5.746  17.833  0.00  0.00    +0.000 N 
ATOM      5  C   UNL     1       6.611   5.520  19.218  0.00  0.00    +0.000 C 
ATOM      6  C   UNL     1       5.177   5.112  19.555  0.00  0.00    +0.000 C 
ATOM      7  C   UNL     1       4.756   5.746  18.212  0.00  0.00    +0.000 C 
ATOM      8  H   UNL     1       5.605   6.328  15.588  0.00  0.00    +0.000 HD
ENDROOT
BRANCH   1  13
ATOM      9  C   UNL     1       6.484   3.532  12.364  0.00  0.00    +0.000 A 
ATOM     10  C   UNL     1       7.515   4.206  11.707  0.00  0.00    +0.000 A 
ATOM     11  C   UNL     1       8.103   5.316  12.306  0.00  0.00    +0.000 A 
ATOM     12  C   UNL     1       7.666   5.752  13.559  0.00  0.00    +0.000 A 
ATOM     13  C   UNL     1       6.642   5.096  14.245  0.00  0.00    +0.000 A 
ATOM     14  C   UNL     1       6.052   3.973  13.637  0.00  0.00    +0.000 A 
BRANCH   9  16
ATOM     15  N   UNL     1       5.373   1.451  11.251  0.00  0.00    +0.000 NA
ATOM     16  C   UNL     1       5.878   2.388  11.744  0.00  0.00    +0.000 C 
ENDBRANCH   9  16
ENDBRANCH   1  13
BRANCH   6  17
ATOM     17  O   UNL     1       4.926   3.688  19.757  0.00  0.00    +0.000 OA
BRANCH  17  18
ATOM     18  C   UNL     1       3.704   3.191  19.355  0.00  0.00    +0.000 A 
ATOM     19  C   UNL     1       3.556   2.546  18.122  0.00  0.00    +0.000 A 
ATOM     20  C   UNL     1       2.333   2.023  17.725  0.00  0.00    +0.000 A 
ATOM     21  C   UNL     1       1.233   2.106  18.568  0.00  0.00    +0.000 A 
ATOM     22  C   UNL     1       1.347   2.778  19.784  0.00  0.00    +0.000 A 
ATOM     23  C   UNL     1       2.565   3.364  20.154  0.00  0.00    +0.000 A 
ATOM     24 CL   UNL     1       2.568   4.368  21.560  0.00  0.00    +0.000 Cl
ENDBRANCH  17  18
ENDBRANCH   6  17
TORSDOF 4
ENDMDL
MODEL 9
REMARK VINA RESULT:      -7.0      1.207      1.535
REMARK  Name = 
REMARK  4 active torsions:
REMARK  status: ('A' for Active; 'I' for Inactive)
REMARK    1  A    between atoms: C_2  and  C_3
REMARK    2  A    between atoms: C_7  and  N_8
REMARK    3  A    between atoms: C_13  and  O_14
REMARK    4  A    between atoms: O_14  and  C_15
REMARK                            x       y       z     vdW  Elec       q    Type
REMARK                         _______ _______ _______ _____ _____    ______ ____
ROOT
ATOM      1  N   UNL     1       9.010   8.638  18.904  0.00  0.00    +0.000 N 
ATOM      2  C   UNL     1       7.890   8.187  18.209  0.00  0.00    +0.000 C 
ATOM      3  O   UNL     1       7.038   8.889  17.671  0.00  0.00    +0.000 OA
ATOM      4  N   UNL     1       7.865   6.807  18.079  0.00  0.00    +0.000 N 
ATOM      5  C   UNL     1       6.837   6.093  17.307  0.00  0.00    +0.000 C 
ATOM      6  C   UNL     1       6.461   5.344  18.585  0.00  0.00    +0.000 C 
ATOM      7  C   UNL     1       7.793   5.843  19.185  0.00  0.00    +0.000 C 
ATOM      8  H   UNL     1       9.691   7.927  19.135  0.00  0.00    +0.000 HD
ENDROOT
BRANCH   1  13
ATOM      9  C   UNL     1      10.294  12.115  18.319  0.00  0.00    +0.000 A 
ATOM     10  C   UNL     1      10.100  12.689  19.576  0.00  0.00    +0.000 A 
ATOM     11  C   UNL     1       9.539  11.931  20.600  0.00  0.00    +0.000 A 
ATOM     12  C   UNL     1       9.173  10.603  20.371  0.00  0.00    +0.000 A 
ATOM     13  C   UNL     1       9.359   9.997  19.126  0.00  0.00    +0.000 A 
ATOM     14  C   UNL     1       9.930  10.766  18.096  0.00  0.00    +0.000 A 
BRANCH   9  16
ATOM     15  N   UNL     1      11.334  13.531  16.392  0.00  0.00    +0.000 NA
ATOM     16  C   UNL     1      10.872  12.899  17.265  0.00  0.00    +0.000 C 
ENDBRANCH   9  16
ENDBRANCH   1  13
BRANCH   6  17
ATOM     17  O   UNL     1       5.217   5.738  19.240  0.00  0.00    +0.000 OA
BRANCH  17  18
ATOM     18  C   UNL     1       4.045   5.179  18.775  0.00  0.00    +0.000 A 
ATOM     19  C   UNL     1       3.052   5.969  18.185  0.00  0.00    +0.000 A 
ATOM     20  C   UNL     1       1.882   5.406  17.693  0.00  0.00    +0.000 A 
ATOM     21  C   UNL     1       1.691   4.031  17.752  0.00  0.00    +0.000 A 
ATOM     22  C   UNL     1       2.649   3.230  18.370  0.00  0.00    +0.000 A 
ATOM     23  C   UNL     1       3.799   3.807  18.926  0.00  0.00    +0.000 A 
ATOM     24 CL   UNL     1       4.824   2.785  19.869  0.00  0.00    +0.000 Cl
ENDBRANCH  17  18
ENDBRANCH   6  17
TORSDOF 4
ENDMDL
