MODEL 1
REMARK VINA RESULT:      -8.2      0.000      0.000
REMARK  Name = 
REMARK  8 active torsions:
REMARK  status: ('A' for Active; 'I' for Inactive)
REMARK    1  A    between atoms: C_1  and  N_2
REMARK    2  A    between atoms: C_7  and  C_8
REMARK    3  A    between atoms: C_12  and  O_13
REMARK    4  A    between atoms: O_13  and  C_14
REMARK    5  A    between atoms: C_14  and  C_15
REMARK    6  A    between atoms: C_15  and  O_16
REMARK    7  A    between atoms: C_15  and  C_17
REMARK    8  A    between atoms: C_17  and  N_18
REMARK                            x       y       z     vdW  Elec       q    Type
REMARK                         _______ _______ _______ _____ _____    ______ ____
ROOT
ATOM      1  C   UNL     1       1.874   5.450  20.045  0.00  0.00    +0.000 A 
ATOM      2  C   UNL     1       2.207   5.091  21.363  0.00  0.00    +0.000 A 
ATOM      3  C   UNL     1       2.211   3.751  21.770  0.00  0.00    +0.000 A 
ATOM      4  C   UNL     1       1.880   2.742  20.864  0.00  0.00    +0.000 A 
ATOM      5  C   UNL     1       1.557   3.061  19.561  0.00  0.00    +0.000 A 
ATOM      6  C   UNL     1       1.540   4.410  19.154  0.00  0.00    +0.000 A 
ENDROOT
BRANCH   1  13
ATOM      7  C   UNL     1       0.678  12.620  19.624  0.00  0.00    +0.000 C 
ATOM      8  N   UNL     1       1.121  11.262  19.416  0.00  0.00    +0.000 N 
ATOM      9  C   UNL     1       1.729  10.764  18.296  0.00  0.00    +0.000 A 
ATOM     10  C   UNL     1       1.906   9.439  18.564  0.00  0.00    +0.000 A 
ATOM     11  C   UNL     1       2.453   8.503  17.700  0.00  0.00    +0.000 A 
ATOM     12  C   UNL     1       2.417   7.206  18.268  0.00  0.00    +0.000 A 
ATOM     13  C   UNL     1       1.903   6.881  19.589  0.00  0.00    +0.000 A 
ATOM     14  C   UNL     1       1.389   7.900  20.431  0.00  0.00    +0.000 A 
ATOM     15  C   UNL     1       1.377   9.192  19.879  0.00  0.00    +0.000 A 
ATOM     16  N   UNL     1       0.913  10.351  20.393  0.00  0.00    +0.000 NA
ENDBRANCH   1  13
BRANCH   5  17
ATOM     17  O   UNL     1       1.275   1.990  18.742  0.00  0.00    +0.000 OA
BRANCH  17  18
ATOM     18  C   UNL     1       2.148   1.775  17.623  0.00  0.00    +0.000 C 
BRANCH  18  19
ATOM     19  C   UNL     1       3.620   1.873  18.084  0.00  0.00    +0.000 C 
BRANCH  19  20
ATOM     20  O   UNL     1       4.071   0.566  18.461  0.00  0.00    +0.000 OA
ATOM     21  H   UNL     1       3.707  -0.044  17.793  0.00  0.00    +0.000 HD
ENDBRANCH  19  20
BRANCH  19  22
ATOM     22  C   UNL     1       4.541   2.474  16.992  0.00  0.00    +0.000 C 
BRANCH  22  23
ATOM     23  N   UNL     1       4.764   3.934  16.965  0.00  0.00    +0.000 NA
ATOM     24  C   UNL     1       5.515   4.465  15.826  0.00  0.00    +0.000 C 
ATOM     25  C   UNL     1       5.370   6.024  15.794  0.00  0.00    +0.000 C 
ATOM     26  C   UNL     1       5.862   6.615  17.105  0.00  0.00    +0.000 A 
ATOM     27  C   UNL     1       6.431   7.881  17.166  0.00  0.00    +0.000 A 
ATOM     28  C   UNL     1       7.613   8.018  17.883  0.00  0.00    +0.000 A 
ATOM     29  C   UNL     1       8.177   6.895  18.497  0.00  0.00    +0.000 A 
ATOM     30  C   UNL     1       7.427   5.724  18.643  0.00  0.00    +0.000 A 
ATOM     31  C   UNL     1       6.166   5.655  18.072  0.00  0.00    +0.000 A 
ATOM     32  C   UNL     1       5.181   4.523  18.235  0.00  0.00    +0.000 C 
ENDBRANCH  22  23
ENDBRANCH  19  22
ENDBRANCH  18  19
ENDBRANCH  17  18
ENDBRANCH   5  17
TORSDOF 7
ENDMDL
MODEL 2
REMARK VINA RESULT:      -7.9      3.830      6.948
REMARK  Name = 
REMARK  8 active torsions:
REMARK  status: ('A' for Active; 'I' for Inactive)
REMARK    1  A    between atoms: C_1  and  N_2
REMARK    2  A    between atoms: C_7  and  C_8
REMARK    3  A    between atoms: C_12  and  O_13
REMARK    4  A    between atoms: O_13  and  C_14
REMARK    5  A    between atoms: C_14  and  C_15
REMARK    6  A    between atoms: C_15  and  O_16
REMARK    7  A    between atoms: C_15  and  C_17
REMARK    8  A    between atoms: C_17  and  N_18
REMARK                            x       y       z     vdW  Elec       q    Type
REMARK                         _______ _______ _______ _____ _____    ______ ____
ROOT
ATOM      1  C   UNL     1       8.348   8.499  18.372  0.00  0.00    +0.000 A 
ATOM      2  C   UNL     1       8.582   7.476  19.308  0.00  0.00    +0.000 A 
ATOM      3  C   UNL     1       8.153   6.164  19.071  0.00  0.00    +0.000 A 
ATOM      4  C   UNL     1       7.479   5.850  17.890  0.00  0.00    +0.000 A 
ATOM      5  C   UNL     1       7.242   6.828  16.947  0.00  0.00    +0.000 A 
ATOM      6  C   UNL     1       7.661   8.152  17.191  0.00  0.00    +0.000 A 
ENDROOT
BRANCH   1  13
ATOM      7  C   UNL     1       9.629  15.617  17.539  0.00  0.00    +0.000 C 
ATOM      8  N   UNL     1       9.562  14.255  18.009  0.00  0.00    +0.000 N 
ATOM      9  C   UNL     1      10.316  13.699  19.008  0.00  0.00    +0.000 A 
ATOM     10  C   UNL     1       9.923  12.394  19.045  0.00  0.00    +0.000 A 
ATOM     11  C   UNL     1      10.440  11.415  19.880  0.00  0.00    +0.000 A 
ATOM     12  C   UNL     1       9.859  10.154  19.603  0.00  0.00    +0.000 A 
ATOM     13  C   UNL     1       8.837   9.901  18.600  0.00  0.00    +0.000 A 
ATOM     14  C   UNL     1       8.331  10.961  17.805  0.00  0.00    +0.000 A 
ATOM     15  C   UNL     1       8.916  12.218  18.032  0.00  0.00    +0.000 A 
ATOM     16  N   UNL     1       8.699  13.400  17.417  0.00  0.00    +0.000 NA
ENDBRANCH   1  13
BRANCH   5  17
ATOM     17  O   UNL     1       6.596   6.407  15.806  0.00  0.00    +0.000 OA
BRANCH  17  18
ATOM     18  C   UNL     1       7.070   5.197  15.195  0.00  0.00    +0.000 C 
BRANCH  18  19
ATOM     19  C   UNL     1       5.870   4.288  14.845  0.00  0.00    +0.000 C 
BRANCH  19  20
ATOM     20  O   UNL     1       6.264   3.393  13.796  0.00  0.00    +0.000 OA
ATOM     21  H   UNL     1       7.077   3.772  13.413  0.00  0.00    +0.000 HD
ENDBRANCH  19  20
BRANCH  19  22
ATOM     22  C   UNL     1       5.353   3.495  16.072  0.00  0.00    +0.000 C 
BRANCH  22  23
ATOM     23  N   UNL     1       4.448   4.164  17.028  0.00  0.00    +0.000 NA
ATOM     24  C   UNL     1       4.940   4.329  18.397  0.00  0.00    +0.000 C 
ATOM     25  C   UNL     1       4.009   5.329  19.163  0.00  0.00    +0.000 C 
ATOM     26  C   UNL     1       2.578   4.815  19.149  0.00  0.00    +0.000 A 
ATOM     27  C   UNL     1       1.694   5.087  20.186  0.00  0.00    +0.000 A 
ATOM     28  C   UNL     1       0.950   4.028  20.687  0.00  0.00    +0.000 A 
ATOM     29  C   UNL     1       1.120   2.750  20.142  0.00  0.00    +0.000 A 
ATOM     30  C   UNL     1       1.799   2.589  18.930  0.00  0.00    +0.000 A 
ATOM     31  C   UNL     1       2.395   3.692  18.339  0.00  0.00    +0.000 A 
ATOM     32  C   UNL     1       3.057   3.721  16.982  0.00  0.00    +0.000 C 
ENDBRANCH  22  23
ENDBRANCH  19  22
ENDBRANCH  18  19
ENDBRANCH  17  18
ENDBRANCH   5  17
TORSDOF 7
ENDMDL
MODEL 3
REMARK VINA RESULT:      -7.8      4.862     10.256
REMARK  Name = 
REMARK  8 active torsions:
REMARK  status: ('A' for Active; 'I' for Inactive)
REMARK    1  A    between atoms: C_1  and  N_2
REMARK    2  A    between atoms: C_7  and  C_8
REMARK    3  A    between atoms: C_12  and  O_13
REMARK    4  A    between atoms: O_13  and  C_14
REMARK    5  A    between atoms: C_14  and  C_15
REMARK    6  A    between atoms: C_15  and  O_16
REMARK    7  A    between atoms: C_15  and  C_17
REMARK    8  A    between atoms: C_17  and  N_18
REMARK                            x       y       z     vdW  Elec       q    Type
REMARK                         _______ _______ _______ _____ _____    ______ ____
ROOT
ATOM      1  C   UNL     1       2.323   7.640  18.893  0.00  0.00    +0.000 A 
ATOM      2  C   UNL     1       1.971   7.417  20.236  0.00  0.00    +0.000 A 
ATOM      3  C   UNL     1       1.146   8.313  20.928  0.00  0.00    +0.000 A 
ATOM      4  C   UNL     1       0.658   9.453  20.287  0.00  0.00    +0.000 A 
ATOM      5  C   UNL     1       0.978   9.697  18.968  0.00  0.00    +0.000 A 
ATOM      6  C   UNL     1       1.818   8.802  18.274  0.00  0.00    +0.000 A 
ENDROOT
BRANCH   1  13
ATOM      7  C   UNL     1       7.059   4.805  14.145  0.00  0.00    +0.000 C 
ATOM      8  N   UNL     1       6.094   5.023  15.196  0.00  0.00    +0.000 N 
ATOM      9  C   UNL     1       5.360   4.065  15.842  0.00  0.00    +0.000 A 
ATOM     10  C   UNL     1       4.568   4.765  16.703  0.00  0.00    +0.000 A 
ATOM     11  C   UNL     1       3.616   4.222  17.551  0.00  0.00    +0.000 A 
ATOM     12  C   UNL     1       2.921   5.239  18.251  0.00  0.00    +0.000 A 
ATOM     13  C   UNL     1       3.175   6.665  18.131  0.00  0.00    +0.000 A 
ATOM     14  C   UNL     1       4.191   7.145  17.266  0.00  0.00    +0.000 A 
ATOM     15  C   UNL     1       4.872   6.160  16.529  0.00  0.00    +0.000 A 
ATOM     16  N   UNL     1       5.840   6.289  15.598  0.00  0.00    +0.000 NA
ENDBRANCH   1  13
BRANCH   5  17
ATOM     17  O   UNL     1       0.422  10.832  18.424  0.00  0.00    +0.000 OA
BRANCH  17  18
ATOM     18  C   UNL     1      -0.150  11.783  19.335  0.00  0.00    +0.000 C 
BRANCH  18  19
ATOM     19  C   UNL     1      -1.280  12.566  18.629  0.00  0.00    +0.000 C 
BRANCH  19  20
ATOM     20  O   UNL     1      -0.697  13.410  17.627  0.00  0.00    +0.000 OA
ATOM     21  H   UNL     1       0.143  12.982  17.375  0.00  0.00    +0.000 HD
ENDBRANCH  19  20
BRANCH  19  22
ATOM     22  C   UNL     1      -2.343  11.629  18.002  0.00  0.00    +0.000 C 
BRANCH  22  23
ATOM     23  N   UNL     1      -3.674  11.530  18.634  0.00  0.00    +0.000 NA
ATOM     24  C   UNL     1      -4.832  11.552  17.739  0.00  0.00    +0.000 C 
ATOM     25  C   UNL     1      -6.108  11.112  18.535  0.00  0.00    +0.000 C 
ATOM     26  C   UNL     1      -6.314  12.031  19.728  0.00  0.00    +0.000 A 
ATOM     27  C   UNL     1      -7.582  12.308  20.225  0.00  0.00    +0.000 A 
ATOM     28  C   UNL     1      -7.887  13.637  20.492  0.00  0.00    +0.000 A 
ATOM     29  C   UNL     1      -6.927  14.625  20.249  0.00  0.00    +0.000 A 
ATOM     30  C   UNL     1      -5.594  14.268  20.025  0.00  0.00    +0.000 A 
ATOM     31  C   UNL     1      -5.261  12.925  19.933  0.00  0.00    +0.000 A 
ATOM     32  C   UNL     1      -3.865  12.365  19.817  0.00  0.00    +0.000 C 
ENDBRANCH  22  23
ENDBRANCH  19  22
ENDBRANCH  18  19
ENDBRANCH  17  18
ENDBRANCH   5  17
TORSDOF 7
ENDMDL
MODEL 4
REMARK VINA RESULT:      -7.8      4.225      7.283
REMARK  Name = 
REMARK  8 active torsions:
REMARK  status: ('A' for Active; 'I' for Inactive)
REMARK    1  A    between atoms: C_1  and  N_2
REMARK    2  A    between atoms: C_7  and  C_8
REMARK    3  A    between atoms: C_12  and  O_13
REMARK    4  A    between atoms: O_13  and  C_14
REMARK    5  A    between atoms: C_14  and  C_15
REMARK    6  A    between atoms: C_15  and  O_16
REMARK    7  A    between atoms: C_15  and  C_17
REMARK    8  A    between atoms: C_17  and  N_18
REMARK                            x       y       z     vdW  Elec       q    Type
REMARK                         _______ _______ _______ _____ _____    ______ ____
ROOT
ATOM      1  C   UNL     1       8.472   9.031  18.570  0.00  0.00    +0.000 A 
ATOM      2  C   UNL     1       8.803   7.890  19.323  0.00  0.00    +0.000 A 
ATOM      3  C   UNL     1       8.253   6.638  19.021  0.00  0.00    +0.000 A 
ATOM      4  C   UNL     1       7.358   6.503  17.959  0.00  0.00    +0.000 A 
ATOM      5  C   UNL     1       7.019   7.601  17.196  0.00  0.00    +0.000 A 
ATOM      6  C   UNL     1       7.562   8.864  17.506  0.00  0.00    +0.000 A 
ENDROOT
BRANCH   1  13
ATOM      7  C   UNL     1      10.906  15.852  17.826  0.00  0.00    +0.000 C 
ATOM      8  N   UNL     1      10.538  14.545  18.314  0.00  0.00    +0.000 N 
ATOM      9  C   UNL     1      10.945  13.967  19.486  0.00  0.00    +0.000 A 
ATOM     10  C   UNL     1      10.374  12.728  19.472  0.00  0.00    +0.000 A 
ATOM     11  C   UNL     1      10.534  11.751  20.442  0.00  0.00    +0.000 A 
ATOM     12  C   UNL     1       9.864  10.559  20.075  0.00  0.00    +0.000 A 
ATOM     13  C   UNL     1       9.085  10.371  18.862  0.00  0.00    +0.000 A 
ATOM     14  C   UNL     1       8.938  11.430  17.930  0.00  0.00    +0.000 A 
ATOM     15  C   UNL     1       9.624  12.615  18.249  0.00  0.00    +0.000 A 
ATOM     16  N   UNL     1       9.729  13.769  17.558  0.00  0.00    +0.000 NA
ENDBRANCH   1  13
BRANCH   5  17
ATOM     17  O   UNL     1       6.152   7.354  16.155  0.00  0.00    +0.000 OA
BRANCH  17  18
ATOM     18  C   UNL     1       5.050   6.471  16.417  0.00  0.00    +0.000 C 
BRANCH  18  19
ATOM     19  C   UNL     1       5.162   5.219  15.517  0.00  0.00    +0.000 C 
BRANCH  19  20
ATOM     20  O   UNL     1       6.116   5.483  14.480  0.00  0.00    +0.000 OA
ATOM     21  H   UNL     1       5.593   5.699  13.686  0.00  0.00    +0.000 HD
ENDBRANCH  19  20
BRANCH  19  22
ATOM     22  C   UNL     1       5.562   3.953  16.317  0.00  0.00    +0.000 C 
BRANCH  22  23
ATOM     23  N   UNL     1       4.580   3.348  17.240  0.00  0.00    +0.000 NA
ATOM     24  C   UNL     1       3.178   3.377  16.822  0.00  0.00    +0.000 C 
ATOM     25  C   UNL     1       2.346   2.421  17.743  0.00  0.00    +0.000 C 
ATOM     26  C   UNL     1       2.498   2.841  19.195  0.00  0.00    +0.000 A 
ATOM     27  C   UNL     1       1.484   2.640  20.124  0.00  0.00    +0.000 A 
ATOM     28  C   UNL     1       1.156   3.705  20.953  0.00  0.00    +0.000 A 
ATOM     29  C   UNL     1       1.842   4.916  20.820  0.00  0.00    +0.000 A 
ATOM     30  C   UNL     1       3.027   4.973  20.080  0.00  0.00    +0.000 A 
ATOM     31  C   UNL     1       3.447   3.846  19.390  0.00  0.00    +0.000 A 
ATOM     32  C   UNL     1       4.753   3.698  18.648  0.00  0.00    +0.000 C 
ENDBRANCH  22  23
ENDBRANCH  19  22
ENDBRANCH  18  19
ENDBRANCH  17  18
ENDBRANCH   5  17
TORSDOF 7
ENDMDL
MODEL 5
REMARK VINA RESULT:      -7.8      4.210      9.869
REMARK  Name = 
REMARK  8 active torsions:
REMARK  status: ('A' for Active; 'I' for Inactive)
REMARK    1  A    between atoms: C_1  and  N_2
REMARK    2  A    between atoms: C_7  and  C_8
REMARK    3  A    between atoms: C_12  and  O_13
REMARK    4  A    between atoms: O_13  and  C_14
REMARK    5  A    between atoms: C_14  and  C_15
REMARK    6  A    between atoms: C_15  and  O_16
REMARK    7  A    between atoms: C_15  and  C_17
REMARK    8  A    between atoms: C_17  and  N_18
REMARK                            x       y       z     vdW  Elec       q    Type
REMARK                         _______ _______ _______ _____ _____    ______ ____
ROOT
ATOM      1  C   UNL     1       2.255   7.733  18.991  0.00  0.00    +0.000 A 
ATOM      2  C   UNL     1       1.840   7.503  20.314  0.00  0.00    +0.000 A 
ATOM      3  C   UNL     1       1.034   8.426  20.992  0.00  0.00    +0.000 A 
ATOM      4  C   UNL     1       0.628   9.601  20.357  0.00  0.00    +0.000 A 
ATOM      5  C   UNL     1       1.011   9.852  19.055  0.00  0.00    +0.000 A 
ATOM      6  C   UNL     1       1.833   8.930  18.377  0.00  0.00    +0.000 A 
ENDROOT
BRANCH   1  13
ATOM      7  C   UNL     1       6.908   4.735  14.261  0.00  0.00    +0.000 C 
ATOM      8  N   UNL     1       5.957   4.988  15.316  0.00  0.00    +0.000 N 
ATOM      9  C   UNL     1       5.218   4.054  15.990  0.00  0.00    +0.000 A 
ATOM     10  C   UNL     1       4.443   4.782  16.844  0.00  0.00    +0.000 A 
ATOM     11  C   UNL     1       3.493   4.270  17.714  0.00  0.00    +0.000 A 
ATOM     12  C   UNL     1       2.819   5.311  18.397  0.00  0.00    +0.000 A 
ATOM     13  C   UNL     1       3.088   6.731  18.242  0.00  0.00    +0.000 A 
ATOM     14  C   UNL     1       4.101   7.179  17.357  0.00  0.00    +0.000 A 
ATOM     15  C   UNL     1       4.762   6.170  16.635  0.00  0.00    +0.000 A 
ATOM     16  N   UNL     1       5.723   6.266  15.692  0.00  0.00    +0.000 NA
ENDBRANCH   1  13
BRANCH   5  17
ATOM     17  O   UNL     1       0.533  11.024  18.514  0.00  0.00    +0.000 OA
BRANCH  17  18
ATOM     18  C   UNL     1       0.293  12.113  19.418  0.00  0.00    +0.000 C 
BRANCH  18  19
ATOM     19  C   UNL     1      -1.021  12.830  19.030  0.00  0.00    +0.000 C 
BRANCH  19  20
ATOM     20  O   UNL     1      -1.062  12.974  17.604  0.00  0.00    +0.000 OA
ATOM     21  H   UNL     1      -0.203  12.646  17.279  0.00  0.00    +0.000 HD
ENDBRANCH  19  20
BRANCH  19  22
ATOM     22  C   UNL     1      -2.275  12.076  19.539  0.00  0.00    +0.000 C 
BRANCH  22  23
ATOM     23  N   UNL     1      -2.858  12.451  20.844  0.00  0.00    +0.000 NA
ATOM     24  C   UNL     1      -3.586  13.720  20.900  0.00  0.00    +0.000 C 
ATOM     25  C   UNL     1      -4.397  13.790  22.239  0.00  0.00    +0.000 C 
ATOM     26  C   UNL     1      -3.453  13.641  23.421  0.00  0.00    +0.000 A 
ATOM     27  C   UNL     1      -3.714  14.249  24.643  0.00  0.00    +0.000 A 
ATOM     28  C   UNL     1      -2.671  14.935  25.252  0.00  0.00    +0.000 A 
ATOM     29  C   UNL     1      -1.424  14.991  24.620  0.00  0.00    +0.000 A 
ATOM     30  C   UNL     1      -1.141  14.137  23.551  0.00  0.00    +0.000 A 
ATOM     31  C   UNL     1      -2.145  13.319  23.056  0.00  0.00    +0.000 A 
ATOM     32  C   UNL     1      -1.980  12.257  21.995  0.00  0.00    +0.000 C 
ENDBRANCH  22  23
ENDBRANCH  19  22
ENDBRANCH  18  19
ENDBRANCH  17  18
ENDBRANCH   5  17
TORSDOF 7
ENDMDL
MODEL 6
REMARK VINA RESULT:      -7.7      0.618      1.360
REMARK  Name = 
REMARK  8 active torsions:
REMARK  status: ('A' for Active; 'I' for Inactive)
REMARK    1  A    between atoms: C_1  and  N_2
REMARK    2  A    between atoms: C_7  and  C_8
REMARK    3  A    between atoms: C_12  and  O_13
REMARK    4  A    between atoms: O_13  and  C_14
REMARK    5  A    between atoms: C_14  and  C_15
REMARK    6  A    between atoms: C_15  and  O_16
REMARK    7  A    between atoms: C_15  and  C_17
REMARK    8  A    between atoms: C_17  and  N_18
REMARK                            x       y       z     vdW  Elec       q    Type
REMARK                         _______ _______ _______ _____ _____    ______ ____
ROOT
ATOM      1  C   UNL     1       1.858   5.442  20.139  0.00  0.00    +0.000 A 
ATOM      2  C   UNL     1       2.254   5.054  21.431  0.00  0.00    +0.000 A 
ATOM      3  C   UNL     1       2.293   3.704  21.803  0.00  0.00    +0.000 A 
ATOM      4  C   UNL     1       1.933   2.715  20.888  0.00  0.00    +0.000 A 
ATOM      5  C   UNL     1       1.548   3.061  19.609  0.00  0.00    +0.000 A 
ATOM      6  C   UNL     1       1.496   4.420  19.238  0.00  0.00    +0.000 A 
ENDROOT
BRANCH   1  13
ATOM      7  C   UNL     1       0.488  12.588  19.904  0.00  0.00    +0.000 C 
ATOM      8  N   UNL     1       0.961  11.247  19.660  0.00  0.00    +0.000 N 
ATOM      9  C   UNL     1       1.573  10.792  18.523  0.00  0.00    +0.000 A 
ATOM     10  C   UNL     1       1.783   9.465  18.757  0.00  0.00    +0.000 A 
ATOM     11  C   UNL     1       2.346   8.564  17.866  0.00  0.00    +0.000 A 
ATOM     12  C   UNL     1       2.345   7.253  18.402  0.00  0.00    +0.000 A 
ATOM     13  C   UNL     1       1.849   6.884  19.718  0.00  0.00    +0.000 A 
ATOM     14  C   UNL     1       1.317   7.868  20.589  0.00  0.00    +0.000 A 
ATOM     15  C   UNL     1       1.270   9.173  20.069  0.00  0.00    +0.000 A 
ATOM     16  N   UNL     1       0.783  10.307  20.615  0.00  0.00    +0.000 NA
ENDBRANCH   1  13
BRANCH   5  17
ATOM     17  O   UNL     1       1.242   2.007  18.778  0.00  0.00    +0.000 OA
BRANCH  17  18
ATOM     18  C   UNL     1       2.095   1.800  17.642  0.00  0.00    +0.000 C 
BRANCH  18  19
ATOM     19  C   UNL     1       3.569   2.025  18.051  0.00  0.00    +0.000 C 
BRANCH  19  20
ATOM     20  O   UNL     1       4.273   0.781  17.930  0.00  0.00    +0.000 OA
ATOM     21  H   UNL     1       4.726   0.648  18.783  0.00  0.00    +0.000 HD
ENDBRANCH  19  20
BRANCH  19  22
ATOM     22  C   UNL     1       4.255   3.125  17.202  0.00  0.00    +0.000 C 
BRANCH  22  23
ATOM     23  N   UNL     1       5.414   3.847  17.766  0.00  0.00    +0.000 NA
ATOM     24  C   UNL     1       5.174   4.640  18.972  0.00  0.00    +0.000 C 
ATOM     25  C   UNL     1       6.548   5.052  19.600  0.00  0.00    +0.000 C 
ATOM     26  C   UNL     1       7.368   5.829  18.583  0.00  0.00    +0.000 A 
ATOM     27  C   UNL     1       8.271   6.812  18.970  0.00  0.00    +0.000 A 
ATOM     28  C   UNL     1       8.233   8.021  18.288  0.00  0.00    +0.000 A 
ATOM     29  C   UNL     1       7.300   8.201  17.261  0.00  0.00    +0.000 A 
ATOM     30  C   UNL     1       6.621   7.100  16.729  0.00  0.00    +0.000 A 
ATOM     31  C   UNL     1       6.799   5.853  17.308  0.00  0.00    +0.000 A 
ATOM     32  C   UNL     1       6.244   4.549  16.790  0.00  0.00    +0.000 C 
ENDBRANCH  22  23
ENDBRANCH  19  22
ENDBRANCH  18  19
ENDBRANCH  17  18
ENDBRANCH   5  17
TORSDOF 7
ENDMDL
MODEL 7
REMARK VINA RESULT:      -7.7      2.072      4.041
REMARK  Name = 
REMARK  8 active torsions:
REMARK  status: ('A' for Active; 'I' for Inactive)
REMARK    1  A    between atoms: C_1  and  N_2
REMARK    2  A    between atoms: C_7  and  C_8
REMARK    3  A    between atoms: C_12  and  O_13
REMARK    4  A    between atoms: O_13  and  C_14
REMARK    5  A    between atoms: C_14  and  C_15
REMARK    6  A    between atoms: C_15  and  O_16
REMARK    7  A    between atoms: C_15  and  C_17
REMARK    8  A    between atoms: C_17  and  N_18
REMARK                            x       y       z     vdW  Elec       q    Type
REMARK                         _______ _______ _______ _____ _____    ______ ____
ROOT
ATOM      1  C   UNL     1       1.141   9.338  19.436  0.00  0.00    +0.000 A 
ATOM      2  C   UNL     1       1.784   9.019  18.227  0.00  0.00    +0.000 A 
ATOM      3  C   UNL     1       2.393   7.772  18.037  0.00  0.00    +0.000 A 
ATOM      4  C   UNL     1       2.371   6.819  19.056  0.00  0.00    +0.000 A 
ATOM      5  C   UNL     1       1.740   7.097  20.251  0.00  0.00    +0.000 A 
ATOM      6  C   UNL     1       1.138   8.356  20.448  0.00  0.00    +0.000 A 
ENDROOT
BRANCH   1  13
ATOM      7  C   UNL     1      -0.514  16.419  19.085  0.00  0.00    +0.000 C 
ATOM      8  N   UNL     1      -0.486  15.002  19.357  0.00  0.00    +0.000 N 
ATOM      9  C   UNL     1      -1.214  14.339  20.308  0.00  0.00    +0.000 A 
ATOM     10  C   UNL     1      -0.805  13.042  20.207  0.00  0.00    +0.000 A 
ATOM     11  C   UNL     1      -1.238  11.992  21.001  0.00  0.00    +0.000 A 
ATOM     12  C   UNL     1      -0.554  10.795  20.677  0.00  0.00    +0.000 A 
ATOM     13  C   UNL     1       0.452  10.658  19.637  0.00  0.00    +0.000 A 
ATOM     14  C   UNL     1       0.820  11.772  18.840  0.00  0.00    +0.000 A 
ATOM     15  C   UNL     1       0.185  12.983  19.164  0.00  0.00    +0.000 A 
ATOM     16  N   UNL     1       0.348  14.216  18.640  0.00  0.00    +0.000 NA
ENDBRANCH   1  13
BRANCH   5  17
ATOM     17  O   UNL     1       1.751   6.078  21.177  0.00  0.00    +0.000 OA
BRANCH  17  18
ATOM     18  C   UNL     1       1.434   4.760  20.704  0.00  0.00    +0.000 C 
BRANCH  18  19
ATOM     19  C   UNL     1       2.340   3.723  21.407  0.00  0.00    +0.000 C 
BRANCH  19  20
ATOM     20  O   UNL     1       1.508   2.758  22.064  0.00  0.00    +0.000 OA
ATOM     21  H   UNL     1       0.746   3.257  22.413  0.00  0.00    +0.000 HD
ENDBRANCH  19  20
BRANCH  19  22
ATOM     22  C   UNL     1       3.312   3.026  20.423  0.00  0.00    +0.000 C 
BRANCH  22  23
ATOM     23  N   UNL     1       3.616   3.677  19.133  0.00  0.00    +0.000 NA
ATOM     24  C   UNL     1       3.697   2.808  17.958  0.00  0.00    +0.000 C 
ATOM     25  C   UNL     1       3.696   3.689  16.663  0.00  0.00    +0.000 C 
ATOM     26  C   UNL     1       4.857   4.669  16.705  0.00  0.00    +0.000 A 
ATOM     27  C   UNL     1       5.483   5.110  15.546  0.00  0.00    +0.000 A 
ATOM     28  C   UNL     1       6.871   5.101  15.524  0.00  0.00    +0.000 A 
ATOM     29  C   UNL     1       7.572   4.650  16.648  0.00  0.00    +0.000 A 
ATOM     30  C   UNL     1       6.912   4.492  17.870  0.00  0.00    +0.000 A 
ATOM     31  C   UNL     1       5.539   4.676  17.924  0.00  0.00    +0.000 A 
ATOM     32  C   UNL     1       4.692   4.665  19.174  0.00  0.00    +0.000 C 
ENDBRANCH  22  23
ENDBRANCH  19  22
ENDBRANCH  18  19
ENDBRANCH  17  18
ENDBRANCH   5  17
TORSDOF 7
ENDMDL
MODEL 8
REMARK VINA RESULT:      -7.7      2.269      3.807
REMARK  Name = 
REMARK  8 active torsions:
REMARK  status: ('A' for Active; 'I' for Inactive)
REMARK    1  A    between atoms: C_1  and  N_2
REMARK    2  A    between atoms: C_7  and  C_8
REMARK    3  A    between atoms: C_12  and  O_13
REMARK    4  A    between atoms: O_13  and  C_14
REMARK    5  A    between atoms: C_14  and  C_15
REMARK    6  A    between atoms: C_15  and  O_16
REMARK    7  A    between atoms: C_15  and  C_17
REMARK    8  A    between atoms: C_17  and  N_18
REMARK                            x       y       z     vdW  Elec       q    Type
REMARK                         _______ _______ _______ _____ _____    ______ ____
ROOT
ATOM      1  C   UNL     1       1.032   8.421  20.595  0.00  0.00    +0.000 A 
ATOM      2  C   UNL     1       1.855   8.619  19.472  0.00  0.00    +0.000 A 
ATOM      3  C   UNL     1       2.483   7.542  18.834  0.00  0.00    +0.000 A 
ATOM      4  C   UNL     1       2.301   6.243  19.310  0.00  0.00    +0.000 A 
ATOM      5  C   UNL     1       1.492   6.013  20.404  0.00  0.00    +0.000 A 
ATOM      6  C   UNL     1       0.870   7.098  21.054  0.00  0.00    +0.000 A 
ENDROOT
BRANCH   1  13
ATOM      7  C   UNL     1      -1.420  15.096  22.154  0.00  0.00    +0.000 C 
ATOM      8  N   UNL     1      -1.133  13.682  22.133  0.00  0.00    +0.000 N 
ATOM      9  C   UNL     1      -1.377  12.785  23.138  0.00  0.00    +0.000 A 
ATOM     10  C   UNL     1      -0.892  11.602  22.664  0.00  0.00    +0.000 A 
ATOM     11  C   UNL     1      -0.878  10.398  23.351  0.00  0.00    +0.000 A 
ATOM     12  C   UNL     1      -0.234   9.390  22.593  0.00  0.00    +0.000 A 
ATOM     13  C   UNL     1       0.323   9.565  21.262  0.00  0.00    +0.000 A 
ATOM     14  C   UNL     1       0.241  10.821  20.607  0.00  0.00    +0.000 A 
ATOM     15  C   UNL     1      -0.360  11.851  21.350  0.00  0.00    +0.000 A 
ATOM     16  N   UNL     1      -0.543  13.152  21.039  0.00  0.00    +0.000 NA
ENDBRANCH   1  13
BRANCH   5  17
ATOM     17  O   UNL     1       1.357   4.694  20.774  0.00  0.00    +0.000 OA
BRANCH  17  18
ATOM     18  C   UNL     1       2.385   4.139  21.608  0.00  0.00    +0.000 C 
BRANCH  18  19
ATOM     19  C   UNL     1       2.674   2.682  21.177  0.00  0.00    +0.000 C 
BRANCH  19  20
ATOM     20  O   UNL     1       1.520   2.167  20.500  0.00  0.00    +0.000 OA
ATOM     21  H   UNL     1       0.838   2.050  21.188  0.00  0.00    +0.000 HD
ENDBRANCH  19  20
BRANCH  19  22
ATOM     22  C   UNL     1       3.929   2.573  20.276  0.00  0.00    +0.000 C 
BRANCH  22  23
ATOM     23  N   UNL     1       4.021   3.417  19.067  0.00  0.00    +0.000 NA
ATOM     24  C   UNL     1       3.823   2.749  17.780  0.00  0.00    +0.000 C 
ATOM     25  C   UNL     1       3.628   3.829  16.663  0.00  0.00    +0.000 C 
ATOM     26  C   UNL     1       4.833   4.756  16.625  0.00  0.00    +0.000 A 
ATOM     27  C   UNL     1       5.251   5.362  15.447  0.00  0.00    +0.000 A 
ATOM     28  C   UNL     1       6.607   5.316  15.150  0.00  0.00    +0.000 A 
ATOM     29  C   UNL     1       7.481   4.668  16.029  0.00  0.00    +0.000 A 
ATOM     30  C   UNL     1       7.057   4.332  17.319  0.00  0.00    +0.000 A 
ATOM     31  C   UNL     1       5.733   4.544  17.671  0.00  0.00    +0.000 A 
ATOM     32  C   UNL     1       5.141   4.354  19.046  0.00  0.00    +0.000 C 
ENDBRANCH  22  23
ENDBRANCH  19  22
ENDBRANCH  18  19
ENDBRANCH  17  18
ENDBRANCH   5  17
TORSDOF 7
ENDMDL
MODEL 9
REMARK VINA RESULT:      -7.6      3.539      8.718
REMARK  Name = 
REMARK  8 active torsions:
REMARK  status: ('A' for Active; 'I' for Inactive)
REMARK    1  A    between atoms: C_1  and  N_2
REMARK    2  A    between atoms: C_7  and  C_8
REMARK    3  A    between atoms: C_12  and  O_13
REMARK    4  A    between atoms: O_13  and  C_14
REMARK    5  A    between atoms: C_14  and  C_15
REMARK    6  A    between atoms: C_15  and  O_16
REMARK    7  A    between atoms: C_15  and  C_17
REMARK    8  A    between atoms: C_17  and  N_18
REMARK                            x       y       z     vdW  Elec       q    Type
REMARK                         _______ _______ _______ _____ _____    ______ ____
ROOT
ATOM      1  C   UNL     1       2.543   7.386  18.767  0.00  0.00    +0.000 A 
ATOM      2  C   UNL     1       2.162   7.085  20.087  0.00  0.00    +0.000 A 
ATOM      3  C   UNL     1       1.327   7.943  20.814  0.00  0.00    +0.000 A 
ATOM      4  C   UNL     1       0.858   9.121  20.234  0.00  0.00    +0.000 A 
ATOM      5  C   UNL     1       1.206   9.442  18.938  0.00  0.00    +0.000 A 
ATOM      6  C   UNL     1       2.057   8.586  18.210  0.00  0.00    +0.000 A 
ENDROOT
BRANCH   1  13
ATOM      7  C   UNL     1       7.154   4.778  13.772  0.00  0.00    +0.000 C 
ATOM      8  N   UNL     1       6.242   4.952  14.877  0.00  0.00    +0.000 N 
ATOM      9  C   UNL     1       5.609   3.960  15.576  0.00  0.00    +0.000 A 
ATOM     10  C   UNL     1       4.827   4.623  16.477  0.00  0.00    +0.000 A 
ATOM     11  C   UNL     1       3.963   4.035  17.387  0.00  0.00    +0.000 A 
ATOM     12  C   UNL     1       3.250   5.017  18.117  0.00  0.00    +0.000 A 
ATOM     13  C   UNL     1       3.407   6.455  17.966  0.00  0.00    +0.000 A 
ATOM     14  C   UNL     1       4.338   6.983  17.035  0.00  0.00    +0.000 A 
ATOM     15  C   UNL     1       5.033   6.031  16.269  0.00  0.00    +0.000 A 
ATOM     16  N   UNL     1       5.935   6.205  15.280  0.00  0.00    +0.000 NA
ENDBRANCH   1  13
BRANCH   5  17
ATOM     17  O   UNL     1       0.666  10.611  18.452  0.00  0.00    +0.000 OA
BRANCH  17  18
ATOM     18  C   UNL     1      -0.767  10.707  18.419  0.00  0.00    +0.000 C 
BRANCH  18  19
ATOM     19  C   UNL     1      -1.185  12.188  18.270  0.00  0.00    +0.000 C 
BRANCH  19  20
ATOM     20  O   UNL     1      -2.516  12.237  17.739  0.00  0.00    +0.000 OA
ATOM     21  H   UNL     1      -3.041  11.616  18.277  0.00  0.00    +0.000 HD
ENDBRANCH  19  20
BRANCH  19  22
ATOM     22  C   UNL     1      -1.104  12.961  19.611  0.00  0.00    +0.000 C 
BRANCH  22  23
ATOM     23  N   UNL     1      -0.145  14.077  19.738  0.00  0.00    +0.000 NA
ATOM     24  C   UNL     1      -0.361  15.234  18.868  0.00  0.00    +0.000 C 
ATOM     25  C   UNL     1       0.528  16.425  19.364  0.00  0.00    +0.000 C 
ATOM     26  C   UNL     1       1.989  16.008  19.376  0.00  0.00    +0.000 A 
ATOM     27  C   UNL     1       3.012  16.923  19.156  0.00  0.00    +0.000 A 
ATOM     28  C   UNL     1       4.012  16.563  18.263  0.00  0.00    +0.000 A 
ATOM     29  C   UNL     1       3.949  15.319  17.626  0.00  0.00    +0.000 A 
ATOM     30  C   UNL     1       3.070  14.337  18.090  0.00  0.00    +0.000 A 
ATOM     31  C   UNL     1       2.186  14.651  19.111  0.00  0.00    +0.000 A 
ATOM     32  C   UNL     1       1.260  13.684  19.810  0.00  0.00    +0.000 C 
ENDBRANCH  22  23
ENDBRANCH  19  22
ENDBRANCH  18  19
ENDBRANCH  17  18
ENDBRANCH   5  17
TORSDOF 7
ENDMDL
