MODEL 1
REMARK VINA RESULT:      -7.9      0.000      0.000
REMARK  Name = 
REMARK  13 active torsions:
REMARK  status: ('A' for Active; 'I' for Inactive)
REMARK    1  A    between atoms: C_2  and  O_3
REMARK    2  A    between atoms: C_2  and  C_4
REMARK    3  A    between atoms: C_4  and  C_5
REMARK    4  A    between atoms: C_5  and  O_6
REMARK    5  A    between atoms: C_5  and  C_7
REMARK    6  A    between atoms: C_7  and  C_8
REMARK    7  A    between atoms: C_8  and  O_9
REMARK    8  A    between atoms: C_8  and  C_10
REMARK    9  A    between atoms: C_10  and  C_11
REMARK   10  A    between atoms: C_11  and  N_12
REMARK   11  A    between atoms: C_13  and  C_14
REMARK   12  A    between atoms: C_19  and  C_20
REMARK   13  A    between atoms: C_27  and  C_28
REMARK                            x       y       z     vdW  Elec       q    Type
REMARK                         _______ _______ _______ _____ _____    ______ ____
ROOT
ATOM      1  N   UNL     1       4.095   4.822  18.264  0.00  0.00    +0.000 N 
ATOM      2  C   UNL     1       3.263   3.898  17.639  0.00  0.00    +0.000 A 
ATOM      3  N   UNL     1       3.673   3.697  16.395  0.00  0.00    +0.000 NA
ATOM      4  C   UNL     1       4.827   4.410  16.231  0.00  0.00    +0.000 A 
ATOM      5  C   UNL     1       5.117   5.164  17.368  0.00  0.00    +0.000 A 
ENDROOT
BRANCH   4   6
ATOM      6  C   UNL     1       5.597   4.316  14.993  0.00  0.00    +0.000 A 
ATOM      7  C   UNL     1       5.066   3.628  13.890  0.00  0.00    +0.000 A 
ATOM      8  C   UNL     1       5.779   3.553  12.688  0.00  0.00    +0.000 A 
ATOM      9  C   UNL     1       7.019   4.174  12.584  0.00  0.00    +0.000 A 
ATOM     10  F   UNL     1       7.693   4.121  11.429  0.00  0.00    +0.000 F 
ATOM     11  C   UNL     1       7.573   4.842  13.667  0.00  0.00    +0.000 A 
ATOM     12  C   UNL     1       6.876   4.885  14.876  0.00  0.00    +0.000 A 
ENDBRANCH   4   6
BRANCH   5  13
ATOM     13  C   UNL     1       6.240   6.099  17.603  0.00  0.00    +0.000 A 
ATOM     14  C   UNL     1       7.304   5.720  18.440  0.00  0.00    +0.000 A 
ATOM     15  C   UNL     1       8.249   6.653  18.879  0.00  0.00    +0.000 A 
ATOM     16  C   UNL     1       8.201   7.961  18.412  0.00  0.00    +0.000 A 
ATOM     17  C   UNL     1       7.208   8.334  17.512  0.00  0.00    +0.000 A 
ATOM     18  C   UNL     1       6.218   7.420  17.137  0.00  0.00    +0.000 A 
ENDBRANCH   5  13
BRANCH   2  19
ATOM     19  C   UNL     1       2.088   3.174  18.246  0.00  0.00    +0.000 C 
ATOM     20  F   UNL     1       2.205   2.864  19.562  0.00  0.00    +0.000 F 
ATOM     21  F   UNL     1       0.934   3.882  18.123  0.00  0.00    +0.000 F 
ATOM     22  F   UNL     1       1.875   1.983  17.617  0.00  0.00    +0.000 F 
ENDBRANCH   2  19
BRANCH   1  23
ATOM     23  C   UNL     1       3.950   5.335  19.618  0.00  0.00    +0.000 C 
BRANCH  23  24
ATOM     24  C   UNL     1       2.663   6.114  19.895  0.00  0.00    +0.000 C 
BRANCH  24  25
ATOM     25  C   UNL     1       2.610   7.448  19.151  0.00  0.00    +0.000 C 
BRANCH  25  26
ATOM     26  O   UNL     1       2.204   7.205  17.803  0.00  0.00    +0.000 OA
ATOM     27  H   UNL     1       1.287   6.873  17.811  0.00  0.00    +0.000 HD
ENDBRANCH  25  26
BRANCH  25  28
ATOM     28  C   UNL     1       1.635   8.452  19.776  0.00  0.00    +0.000 C 
BRANCH  28  29
ATOM     29  C   UNL     1       1.194   8.093  21.203  0.00  0.00    +0.000 C 
BRANCH  29  30
ATOM     30  O   UNL     1       2.090   8.682  22.149  0.00  0.00    +0.000 OA
ATOM     31  H   UNL     1       2.966   8.782  21.739  0.00  0.00    +0.000 HD
ENDBRANCH  29  30
BRANCH  29  32
ATOM     32  C   UNL     1      -0.220   8.578  21.519  0.00  0.00    +0.000 C 
BRANCH  32  34
ATOM     33  O   UNL     1       0.416  10.846  22.064  0.00  0.00    +0.000 OA
ATOM     34  C   UNL     1      -0.201   9.826  22.355  0.00  0.00    +0.000 C 
BRANCH  34  35
ATOM     35  O   UNL     1      -0.942   9.731  23.480  0.00  0.00    +0.000 OA
ATOM     36  H   UNL     1      -1.832   9.350  23.344  0.00  0.00    +0.000 HD
ENDBRANCH  34  35
ENDBRANCH  32  34
ENDBRANCH  29  32
ENDBRANCH  28  29
ENDBRANCH  25  28
ENDBRANCH  24  25
ENDBRANCH  23  24
ENDBRANCH   1  23
TORSDOF 13
ENDMDL
MODEL 2
REMARK VINA RESULT:      -7.8      0.762      1.011
REMARK  Name = 
REMARK  13 active torsions:
REMARK  status: ('A' for Active; 'I' for Inactive)
REMARK    1  A    between atoms: C_2  and  O_3
REMARK    2  A    between atoms: C_2  and  C_4
REMARK    3  A    between atoms: C_4  and  C_5
REMARK    4  A    between atoms: C_5  and  O_6
REMARK    5  A    between atoms: C_5  and  C_7
REMARK    6  A    between atoms: C_7  and  C_8
REMARK    7  A    between atoms: C_8  and  O_9
REMARK    8  A    between atoms: C_8  and  C_10
REMARK    9  A    between atoms: C_10  and  C_11
REMARK   10  A    between atoms: C_11  and  N_12
REMARK   11  A    between atoms: C_13  and  C_14
REMARK   12  A    between atoms: C_19  and  C_20
REMARK   13  A    between atoms: C_27  and  C_28
REMARK                            x       y       z     vdW  Elec       q    Type
REMARK                         _______ _______ _______ _____ _____    ______ ____
ROOT
ATOM      1  N   UNL     1       4.203   4.602  18.139  0.00  0.00    +0.000 N 
ATOM      2  C   UNL     1       3.381   3.691  17.482  0.00  0.00    +0.000 A 
ATOM      3  N   UNL     1       3.788   3.547  16.229  0.00  0.00    +0.000 NA
ATOM      4  C   UNL     1       4.928   4.285  16.087  0.00  0.00    +0.000 A 
ATOM      5  C   UNL     1       5.213   4.997  17.252  0.00  0.00    +0.000 A 
ENDROOT
BRANCH   4   6
ATOM      6  C   UNL     1       5.693   4.253  14.842  0.00  0.00    +0.000 A 
ATOM      7  C   UNL     1       5.184   3.568  13.727  0.00  0.00    +0.000 A 
ATOM      8  C   UNL     1       5.890   3.552  12.519  0.00  0.00    +0.000 A 
ATOM      9  C   UNL     1       7.101   4.229  12.421  0.00  0.00    +0.000 A 
ATOM     10  F   UNL     1       7.767   4.233  11.260  0.00  0.00    +0.000 F 
ATOM     11  C   UNL     1       7.633   4.896  13.516  0.00  0.00    +0.000 A 
ATOM     12  C   UNL     1       6.944   4.880  14.730  0.00  0.00    +0.000 A 
ENDBRANCH   4   6
BRANCH   5  13
ATOM     13  C   UNL     1       6.322   5.940  17.519  0.00  0.00    +0.000 A 
ATOM     14  C   UNL     1       7.355   5.576  18.400  0.00  0.00    +0.000 A 
ATOM     15  C   UNL     1       8.279   6.518  18.864  0.00  0.00    +0.000 A 
ATOM     16  C   UNL     1       8.243   7.820  18.380  0.00  0.00    +0.000 A 
ATOM     17  C   UNL     1       7.284   8.178  17.438  0.00  0.00    +0.000 A 
ATOM     18  C   UNL     1       6.313   7.255  17.036  0.00  0.00    +0.000 A 
ENDBRANCH   5  13
BRANCH   2  19
ATOM     19  C   UNL     1       2.222   2.924  18.066  0.00  0.00    +0.000 C 
ATOM     20  F   UNL     1       1.022   3.555  18.030  0.00  0.00    +0.000 F 
ATOM     21  F   UNL     1       2.041   1.726  17.448  0.00  0.00    +0.000 F 
ATOM     22  F   UNL     1       2.439   2.646  19.383  0.00  0.00    +0.000 F 
ENDBRANCH   2  19
BRANCH   1  23
ATOM     23  C   UNL     1       4.058   5.058  19.513  0.00  0.00    +0.000 C 
BRANCH  23  24
ATOM     24  C   UNL     1       3.607   6.510  19.684  0.00  0.00    +0.000 C 
BRANCH  24  25
ATOM     25  C   UNL     1       2.103   6.636  19.927  0.00  0.00    +0.000 C 
BRANCH  25  26
ATOM     26  O   UNL     1       1.778   5.952  21.138  0.00  0.00    +0.000 OA
ATOM     27  H   UNL     1       2.541   5.406  21.400  0.00  0.00    +0.000 HD
ENDBRANCH  25  26
BRANCH  25  28
ATOM     28  C   UNL     1       1.629   8.087  20.050  0.00  0.00    +0.000 C 
BRANCH  28  29
ATOM     29  C   UNL     1       0.902   8.401  21.366  0.00  0.00    +0.000 C 
BRANCH  29  30
ATOM     30  O   UNL     1       1.849   8.812  22.356  0.00  0.00    +0.000 OA
ATOM     31  H   UNL     1       1.441   9.486  22.926  0.00  0.00    +0.000 HD
ENDBRANCH  29  30
BRANCH  29  32
ATOM     32  C   UNL     1      -0.138   9.510  21.212  0.00  0.00    +0.000 C 
BRANCH  32  34
ATOM     33  O   UNL     1      -0.122  11.426  22.686  0.00  0.00    +0.000 OA
ATOM     34  C   UNL     1      -0.366  10.237  22.507  0.00  0.00    +0.000 C 
BRANCH  34  35
ATOM     35  O   UNL     1      -0.880   9.454  23.480  0.00  0.00    +0.000 OA
ATOM     36  H   UNL     1      -1.773   9.109  23.288  0.00  0.00    +0.000 HD
ENDBRANCH  34  35
ENDBRANCH  32  34
ENDBRANCH  29  32
ENDBRANCH  28  29
ENDBRANCH  25  28
ENDBRANCH  24  25
ENDBRANCH  23  24
ENDBRANCH   1  23
TORSDOF 13
ENDMDL
MODEL 3
REMARK VINA RESULT:      -7.8      3.146      5.438
REMARK  Name = 
REMARK  13 active torsions:
REMARK  status: ('A' for Active; 'I' for Inactive)
REMARK    1  A    between atoms: C_2  and  O_3
REMARK    2  A    between atoms: C_2  and  C_4
REMARK    3  A    between atoms: C_4  and  C_5
REMARK    4  A    between atoms: C_5  and  O_6
REMARK    5  A    between atoms: C_5  and  C_7
REMARK    6  A    between atoms: C_7  and  C_8
REMARK    7  A    between atoms: C_8  and  O_9
REMARK    8  A    between atoms: C_8  and  C_10
REMARK    9  A    between atoms: C_10  and  C_11
REMARK   10  A    between atoms: C_11  and  N_12
REMARK   11  A    between atoms: C_13  and  C_14
REMARK   12  A    between atoms: C_19  and  C_20
REMARK   13  A    between atoms: C_27  and  C_28
REMARK                            x       y       z     vdW  Elec       q    Type
REMARK                         _______ _______ _______ _____ _____    ______ ____
ROOT
ATOM      1  N   UNL     1       1.585   7.715  19.477  0.00  0.00    +0.000 N 
ATOM      2  C   UNL     1       2.049   8.697  18.605  0.00  0.00    +0.000 A 
ATOM      3  N   UNL     1       2.988   8.190  17.821  0.00  0.00    +0.000 NA
ATOM      4  C   UNL     1       3.077   6.857  18.107  0.00  0.00    +0.000 A 
ATOM      5  C   UNL     1       2.239   6.515  19.167  0.00  0.00    +0.000 A 
ENDROOT
BRANCH   4   6
ATOM      6  C   UNL     1       3.953   5.980  17.333  0.00  0.00    +0.000 A 
ATOM      7  C   UNL     1       5.044   6.522  16.635  0.00  0.00    +0.000 A 
ATOM      8  C   UNL     1       5.909   5.692  15.912  0.00  0.00    +0.000 A 
ATOM      9  C   UNL     1       5.690   4.320  15.895  0.00  0.00    +0.000 A 
ATOM     10  F   UNL     1       6.528   3.522  15.222  0.00  0.00    +0.000 F 
ATOM     11  C   UNL     1       4.606   3.763  16.560  0.00  0.00    +0.000 A 
ATOM     12  C   UNL     1       3.725   4.597  17.251  0.00  0.00    +0.000 A 
ENDBRANCH   4   6
BRANCH   5  13
ATOM     13  C   UNL     1       2.053   5.199  19.820  0.00  0.00    +0.000 A 
ATOM     14  C   UNL     1       1.200   4.243  19.241  0.00  0.00    +0.000 A 
ATOM     15  C   UNL     1       0.810   3.099  19.944  0.00  0.00    +0.000 A 
ATOM     16  C   UNL     1       1.343   2.842  21.201  0.00  0.00    +0.000 A 
ATOM     17  C   UNL     1       2.259   3.731  21.754  0.00  0.00    +0.000 A 
ATOM     18  C   UNL     1       2.586   4.914  21.084  0.00  0.00    +0.000 A 
ENDBRANCH   5  13
BRANCH   2  19
ATOM     19  C   UNL     1       1.563  10.120  18.496  0.00  0.00    +0.000 C 
ATOM     20  F   UNL     1       1.574  10.835  19.649  0.00  0.00    +0.000 F 
ATOM     21  F   UNL     1       2.288  10.838  17.597  0.00  0.00    +0.000 F 
ATOM     22  F   UNL     1       0.270  10.160  18.064  0.00  0.00    +0.000 F 
ENDBRANCH   2  19
BRANCH   1  23
ATOM     23  C   UNL     1       0.584   7.890  20.518  0.00  0.00    +0.000 C 
BRANCH  23  24
ATOM     24  C   UNL     1       1.075   8.568  21.799  0.00  0.00    +0.000 C 
BRANCH  24  25
ATOM     25  C   UNL     1      -0.043   9.294  22.547  0.00  0.00    +0.000 C 
BRANCH  25  26
ATOM     26  O   UNL     1       0.454   9.713  23.819  0.00  0.00    +0.000 OA
ATOM     27  H   UNL     1       1.326  10.129  23.689  0.00  0.00    +0.000 HD
ENDBRANCH  25  26
BRANCH  25  28
ATOM     28  C   UNL     1      -0.567  10.528  21.803  0.00  0.00    +0.000 C 
BRANCH  28  29
ATOM     29  C   UNL     1      -1.409  11.473  22.673  0.00  0.00    +0.000 C 
BRANCH  29  30
ATOM     30  O   UNL     1      -0.563  12.447  23.289  0.00  0.00    +0.000 OA
ATOM     31  H   UNL     1      -0.117  12.965  22.597  0.00  0.00    +0.000 HD
ENDBRANCH  29  30
BRANCH  29  32
ATOM     32  C   UNL     1      -2.479  12.212  21.869  0.00  0.00    +0.000 C 
BRANCH  32  34
ATOM     33  O   UNL     1      -4.655  13.163  22.320  0.00  0.00    +0.000 OA
ATOM     34  C   UNL     1      -3.690  12.510  22.705  0.00  0.00    +0.000 C 
BRANCH  34  35
ATOM     35  O   UNL     1      -3.631  11.981  23.947  0.00  0.00    +0.000 OA
ATOM     36  H   UNL     1      -3.115  12.511  24.585  0.00  0.00    +0.000 HD
ENDBRANCH  34  35
ENDBRANCH  32  34
ENDBRANCH  29  32
ENDBRANCH  28  29
ENDBRANCH  25  28
ENDBRANCH  24  25
ENDBRANCH  23  24
ENDBRANCH   1  23
TORSDOF 13
ENDMDL
MODEL 4
REMARK VINA RESULT:      -7.7      3.185      5.434
REMARK  Name = 
REMARK  13 active torsions:
REMARK  status: ('A' for Active; 'I' for Inactive)
REMARK    1  A    between atoms: C_2  and  O_3
REMARK    2  A    between atoms: C_2  and  C_4
REMARK    3  A    between atoms: C_4  and  C_5
REMARK    4  A    between atoms: C_5  and  O_6
REMARK    5  A    between atoms: C_5  and  C_7
REMARK    6  A    between atoms: C_7  and  C_8
REMARK    7  A    between atoms: C_8  and  O_9
REMARK    8  A    between atoms: C_8  and  C_10
REMARK    9  A    between atoms: C_10  and  C_11
REMARK   10  A    between atoms: C_11  and  N_12
REMARK   11  A    between atoms: C_13  and  C_14
REMARK   12  A    between atoms: C_19  and  C_20
REMARK   13  A    between atoms: C_27  and  C_28
REMARK                            x       y       z     vdW  Elec       q    Type
REMARK                         _______ _______ _______ _____ _____    ______ ____
ROOT
ATOM      1  N   UNL     1       1.617   7.716  19.542  0.00  0.00    +0.000 N 
ATOM      2  C   UNL     1       2.083   8.702  18.676  0.00  0.00    +0.000 A 
ATOM      3  N   UNL     1       3.013   8.195  17.881  0.00  0.00    +0.000 NA
ATOM      4  C   UNL     1       3.094   6.859  18.154  0.00  0.00    +0.000 A 
ATOM      5  C   UNL     1       2.259   6.514  19.217  0.00  0.00    +0.000 A 
ENDROOT
BRANCH   4   6
ATOM      6  C   UNL     1       3.958   5.982  17.367  0.00  0.00    +0.000 A 
ATOM      7  C   UNL     1       3.962   4.600  17.614  0.00  0.00    +0.000 A 
ATOM      8  C   UNL     1       4.762   3.743  16.851  0.00  0.00    +0.000 A 
ATOM      9  C   UNL     1       5.552   4.265  15.833  0.00  0.00    +0.000 A 
ATOM     10  F   UNL     1       6.302   3.445  15.087  0.00  0.00    +0.000 F 
ATOM     11  C   UNL     1       5.579   5.630  15.583  0.00  0.00    +0.000 A 
ATOM     12  C   UNL     1       4.807   6.487  16.370  0.00  0.00    +0.000 A 
ENDBRANCH   4   6
BRANCH   5  13
ATOM     13  C   UNL     1       2.068   5.194  19.860  0.00  0.00    +0.000 A 
ATOM     14  C   UNL     1       1.188   4.257  19.288  0.00  0.00    +0.000 A 
ATOM     15  C   UNL     1       0.796   3.111  19.986  0.00  0.00    +0.000 A 
ATOM     16  C   UNL     1       1.351   2.832  21.229  0.00  0.00    +0.000 A 
ATOM     17  C   UNL     1       2.292   3.701  21.772  0.00  0.00    +0.000 A 
ATOM     18  C   UNL     1       2.623   4.886  21.108  0.00  0.00    +0.000 A 
ENDBRANCH   5  13
BRANCH   2  19
ATOM     19  C   UNL     1       1.608  10.131  18.583  0.00  0.00    +0.000 C 
ATOM     20  F   UNL     1       0.319  10.297  18.193  0.00  0.00    +0.000 F 
ATOM     21  F   UNL     1       1.735  10.787  19.766  0.00  0.00    +0.000 F 
ATOM     22  F   UNL     1       2.348  10.829  17.675  0.00  0.00    +0.000 F 
ENDBRANCH   2  19
BRANCH   1  23
ATOM     23  C   UNL     1       0.624   7.889  20.591  0.00  0.00    +0.000 C 
BRANCH  23  24
ATOM     24  C   UNL     1       1.120   8.582  21.862  0.00  0.00    +0.000 C 
BRANCH  24  25
ATOM     25  C   UNL     1      -0.004   9.276  22.631  0.00  0.00    +0.000 C 
BRANCH  25  26
ATOM     26  O   UNL     1       0.511   9.726  23.886  0.00  0.00    +0.000 OA
ATOM     27  H   UNL     1      -0.067  10.437  24.220  0.00  0.00    +0.000 HD
ENDBRANCH  25  26
BRANCH  25  28
ATOM     28  C   UNL     1      -0.592  10.481  21.890  0.00  0.00    +0.000 C 
BRANCH  28  29
ATOM     29  C   UNL     1      -1.276  11.508  22.804  0.00  0.00    +0.000 C 
BRANCH  29  30
ATOM     30  O   UNL     1      -0.332  12.504  23.206  0.00  0.00    +0.000 OA
ATOM     31  H   UNL     1      -0.656  12.944  24.011  0.00  0.00    +0.000 HD
ENDBRANCH  29  30
BRANCH  29  32
ATOM     32  C   UNL     1      -2.450  12.210  22.122  0.00  0.00    +0.000 C 
BRANCH  32  34
ATOM     33  O   UNL     1      -4.657  12.339  23.100  0.00  0.00    +0.000 OA
ATOM     34  C   UNL     1      -3.475  12.668  23.120  0.00  0.00    +0.000 C 
BRANCH  34  35
ATOM     35  O   UNL     1      -2.973  13.488  24.070  0.00  0.00    +0.000 OA
ATOM     36  H   UNL     1      -3.161  13.203  24.985  0.00  0.00    +0.000 HD
ENDBRANCH  34  35
ENDBRANCH  32  34
ENDBRANCH  29  32
ENDBRANCH  28  29
ENDBRANCH  25  28
ENDBRANCH  24  25
ENDBRANCH  23  24
ENDBRANCH   1  23
TORSDOF 13
ENDMDL
MODEL 5
REMARK VINA RESULT:      -7.6      3.179      5.422
REMARK  Name = 
REMARK  13 active torsions:
REMARK  status: ('A' for Active; 'I' for Inactive)
REMARK    1  A    between atoms: C_2  and  O_3
REMARK    2  A    between atoms: C_2  and  C_4
REMARK    3  A    between atoms: C_4  and  C_5
REMARK    4  A    between atoms: C_5  and  O_6
REMARK    5  A    between atoms: C_5  and  C_7
REMARK    6  A    between atoms: C_7  and  C_8
REMARK    7  A    between atoms: C_8  and  O_9
REMARK    8  A    between atoms: C_8  and  C_10
REMARK    9  A    between atoms: C_10  and  C_11
REMARK   10  A    between atoms: C_11  and  N_12
REMARK   11  A    between atoms: C_13  and  C_14
REMARK   12  A    between atoms: C_19  and  C_20
REMARK   13  A    between atoms: C_27  and  C_28
REMARK                            x       y       z     vdW  Elec       q    Type
REMARK                         _______ _______ _______ _____ _____    ______ ____
ROOT
ATOM      1  N   UNL     1       1.610   7.688  19.499  0.00  0.00    +0.000 N 
ATOM      2  C   UNL     1       2.065   8.676  18.630  0.00  0.00    +0.000 A 
ATOM      3  N   UNL     1       2.996   8.174  17.831  0.00  0.00    +0.000 NA
ATOM      4  C   UNL     1       3.087   6.839  18.107  0.00  0.00    +0.000 A 
ATOM      5  C   UNL     1       2.260   6.490  19.174  0.00  0.00    +0.000 A 
ENDROOT
BRANCH   4   6
ATOM      6  C   UNL     1       3.954   5.967  17.318  0.00  0.00    +0.000 A 
ATOM      7  C   UNL     1       4.878   6.527  16.421  0.00  0.00    +0.000 A 
ATOM      8  C   UNL     1       5.736   5.708  15.679  0.00  0.00    +0.000 A 
ATOM      9  C   UNL     1       5.677   4.328  15.839  0.00  0.00    +0.000 A 
ATOM     10  F   UNL     1       6.511   3.543  15.146  0.00  0.00    +0.000 F 
ATOM     11  C   UNL     1       4.758   3.751  16.704  0.00  0.00    +0.000 A 
ATOM     12  C   UNL     1       3.880   4.569  17.417  0.00  0.00    +0.000 A 
ENDBRANCH   4   6
BRANCH   5  13
ATOM     13  C   UNL     1       2.081   5.170  19.820  0.00  0.00    +0.000 A 
ATOM     14  C   UNL     1       1.227   4.216  19.238  0.00  0.00    +0.000 A 
ATOM     15  C   UNL     1       0.844   3.065  19.935  0.00  0.00    +0.000 A 
ATOM     16  C   UNL     1       1.383   2.803  21.189  0.00  0.00    +0.000 A 
ATOM     17  C   UNL     1       2.299   3.690  21.743  0.00  0.00    +0.000 A 
ATOM     18  C   UNL     1       2.620   4.878  21.079  0.00  0.00    +0.000 A 
ENDBRANCH   5  13
BRANCH   2  19
ATOM     19  C   UNL     1       1.579  10.101  18.536  0.00  0.00    +0.000 C 
ATOM     20  F   UNL     1       0.294  10.258  18.131  0.00  0.00    +0.000 F 
ATOM     21  F   UNL     1       1.687  10.754  19.723  0.00  0.00    +0.000 F 
ATOM     22  F   UNL     1       2.324  10.808  17.639  0.00  0.00    +0.000 F 
ENDBRANCH   2  19
BRANCH   1  23
ATOM     23  C   UNL     1       0.621   7.856  20.552  0.00  0.00    +0.000 C 
BRANCH  23  24
ATOM     24  C   UNL     1       1.114   8.564  21.816  0.00  0.00    +0.000 C 
BRANCH  24  25
ATOM     25  C   UNL     1      -0.021   9.206  22.613  0.00  0.00    +0.000 C 
BRANCH  25  26
ATOM     26  O   UNL     1       0.500   9.669  23.860  0.00  0.00    +0.000 OA
ATOM     27  H   UNL     1      -0.226   9.690  24.510  0.00  0.00    +0.000 HD
ENDBRANCH  25  26
BRANCH  25  28
ATOM     28  C   UNL     1      -0.673  10.391  21.892  0.00  0.00    +0.000 C 
BRANCH  28  29
ATOM     29  C   UNL     1      -0.886  11.626  22.780  0.00  0.00    +0.000 C 
BRANCH  29  30
ATOM     30  O   UNL     1      -0.112  12.720  22.282  0.00  0.00    +0.000 OA
ATOM     31  H   UNL     1      -0.425  13.545  22.693  0.00  0.00    +0.000 HD
ENDBRANCH  29  30
BRANCH  29  32
ATOM     32  C   UNL     1      -2.349  12.063  22.836  0.00  0.00    +0.000 C 
BRANCH  32  34
ATOM     33  O   UNL     1      -2.762  13.338  20.824  0.00  0.00    +0.000 OA
ATOM     34  C   UNL     1      -2.582  13.314  22.038  0.00  0.00    +0.000 C 
BRANCH  34  35
ATOM     35  O   UNL     1      -2.583  14.438  22.787  0.00  0.00    +0.000 OA
ATOM     36  H   UNL     1      -1.922  15.103  22.513  0.00  0.00    +0.000 HD
ENDBRANCH  34  35
ENDBRANCH  32  34
ENDBRANCH  29  32
ENDBRANCH  28  29
ENDBRANCH  25  28
ENDBRANCH  24  25
ENDBRANCH  23  24
ENDBRANCH   1  23
TORSDOF 13
ENDMDL
MODEL 6
REMARK VINA RESULT:      -7.6      1.607      1.938
REMARK  Name = 
REMARK  13 active torsions:
REMARK  status: ('A' for Active; 'I' for Inactive)
REMARK    1  A    between atoms: C_2  and  O_3
REMARK    2  A    between atoms: C_2  and  C_4
REMARK    3  A    between atoms: C_4  and  C_5
REMARK    4  A    between atoms: C_5  and  O_6
REMARK    5  A    between atoms: C_5  and  C_7
REMARK    6  A    between atoms: C_7  and  C_8
REMARK    7  A    between atoms: C_8  and  O_9
REMARK    8  A    between atoms: C_8  and  C_10
REMARK    9  A    between atoms: C_10  and  C_11
REMARK   10  A    between atoms: C_11  and  N_12
REMARK   11  A    between atoms: C_13  and  C_14
REMARK   12  A    between atoms: C_19  and  C_20
REMARK   13  A    between atoms: C_27  and  C_28
REMARK                            x       y       z     vdW  Elec       q    Type
REMARK                         _______ _______ _______ _____ _____    ______ ____
ROOT
ATOM      1  N   UNL     1       4.160   4.795  18.240  0.00  0.00    +0.000 N 
ATOM      2  C   UNL     1       3.344   3.851  17.620  0.00  0.00    +0.000 A 
ATOM      3  N   UNL     1       3.754   3.656  16.376  0.00  0.00    +0.000 NA
ATOM      4  C   UNL     1       4.891   4.393  16.204  0.00  0.00    +0.000 A 
ATOM      5  C   UNL     1       5.170   5.156  17.338  0.00  0.00    +0.000 A 
ENDROOT
BRANCH   4   6
ATOM      6  C   UNL     1       5.659   4.312  14.963  0.00  0.00    +0.000 A 
ATOM      7  C   UNL     1       5.135   3.616  13.862  0.00  0.00    +0.000 A 
ATOM      8  C   UNL     1       5.844   3.553  12.657  0.00  0.00    +0.000 A 
ATOM      9  C   UNL     1       7.073   4.193  12.549  0.00  0.00    +0.000 A 
ATOM     10  F   UNL     1       7.743   4.152  11.391  0.00  0.00    +0.000 F 
ATOM     11  C   UNL     1       7.620   4.870  13.630  0.00  0.00    +0.000 A 
ATOM     12  C   UNL     1       6.927   4.901  14.842  0.00  0.00    +0.000 A 
ENDBRANCH   4   6
BRANCH   5  13
ATOM     13  C   UNL     1       6.274   6.116  17.566  0.00  0.00    +0.000 A 
ATOM     14  C   UNL     1       7.353   5.759  18.393  0.00  0.00    +0.000 A 
ATOM     15  C   UNL     1       8.280   6.712  18.827  0.00  0.00    +0.000 A 
ATOM     16  C   UNL     1       8.199   8.019  18.363  0.00  0.00    +0.000 A 
ATOM     17  C   UNL     1       7.191   8.371  17.471  0.00  0.00    +0.000 A 
ATOM     18  C   UNL     1       6.219   7.436  17.102  0.00  0.00    +0.000 A 
ENDBRANCH   5  13
BRANCH   2  19
ATOM     19  C   UNL     1       2.188   3.104  18.235  0.00  0.00    +0.000 C 
ATOM     20  F   UNL     1       1.020   3.789  18.311  0.00  0.00    +0.000 F 
ATOM     21  F   UNL     1       1.912   1.954  17.565  0.00  0.00    +0.000 F 
ATOM     22  F   UNL     1       2.473   2.741  19.518  0.00  0.00    +0.000 F 
ENDBRANCH   2  19
BRANCH   1  23
ATOM     23  C   UNL     1       4.010   5.308  19.592  0.00  0.00    +0.000 C 
BRANCH  23  24
ATOM     24  C   UNL     1       2.718   6.081  19.866  0.00  0.00    +0.000 C 
BRANCH  24  25
ATOM     25  C   UNL     1       2.615   7.367  19.045  0.00  0.00    +0.000 C 
BRANCH  25  26
ATOM     26  O   UNL     1       2.232   7.029  17.711  0.00  0.00    +0.000 OA
ATOM     27  H   UNL     1       2.655   6.184  17.473  0.00  0.00    +0.000 HD
ENDBRANCH  25  26
BRANCH  25  28
ATOM     28  C   UNL     1       1.594   8.362  19.604  0.00  0.00    +0.000 C 
BRANCH  28  29
ATOM     29  C   UNL     1       1.593   9.725  18.895  0.00  0.00    +0.000 C 
BRANCH  29  30
ATOM     30  O   UNL     1       1.272   9.552  17.513  0.00  0.00    +0.000 OA
ATOM     31  H   UNL     1       0.402   9.950  17.336  0.00  0.00    +0.000 HD
ENDBRANCH  29  30
BRANCH  29  32
ATOM     32  C   UNL     1       0.584  10.701  19.501  0.00  0.00    +0.000 C 
BRANCH  32  34
ATOM     33  O   UNL     1      -1.533  10.181  18.455  0.00  0.00    +0.000 OA
ATOM     34  C   UNL     1      -0.575  10.939  18.576  0.00  0.00    +0.000 C 
BRANCH  34  35
ATOM     35  O   UNL     1      -0.478  12.090  17.875  0.00  0.00    +0.000 OA
ATOM     36  H   UNL     1       0.146  12.739  18.255  0.00  0.00    +0.000 HD
ENDBRANCH  34  35
ENDBRANCH  32  34
ENDBRANCH  29  32
ENDBRANCH  28  29
ENDBRANCH  25  28
ENDBRANCH  24  25
ENDBRANCH  23  24
ENDBRANCH   1  23
TORSDOF 13
ENDMDL
MODEL 7
REMARK VINA RESULT:      -7.6      3.153      5.413
REMARK  Name = 
REMARK  13 active torsions:
REMARK  status: ('A' for Active; 'I' for Inactive)
REMARK    1  A    between atoms: C_2  and  O_3
REMARK    2  A    between atoms: C_2  and  C_4
REMARK    3  A    between atoms: C_4  and  C_5
REMARK    4  A    between atoms: C_5  and  O_6
REMARK    5  A    between atoms: C_5  and  C_7
REMARK    6  A    between atoms: C_7  and  C_8
REMARK    7  A    between atoms: C_8  and  O_9
REMARK    8  A    between atoms: C_8  and  C_10
REMARK    9  A    between atoms: C_10  and  C_11
REMARK   10  A    between atoms: C_11  and  N_12
REMARK   11  A    between atoms: C_13  and  C_14
REMARK   12  A    between atoms: C_19  and  C_20
REMARK   13  A    between atoms: C_27  and  C_28
REMARK                            x       y       z     vdW  Elec       q    Type
REMARK                         _______ _______ _______ _____ _____    ______ ____
ROOT
ATOM      1  N   UNL     1       1.646   7.723  19.471  0.00  0.00    +0.000 N 
ATOM      2  C   UNL     1       2.108   8.700  18.594  0.00  0.00    +0.000 A 
ATOM      3  N   UNL     1       3.039   8.187  17.803  0.00  0.00    +0.000 NA
ATOM      4  C   UNL     1       3.123   6.854  18.092  0.00  0.00    +0.000 A 
ATOM      5  C   UNL     1       2.291   6.518  19.159  0.00  0.00    +0.000 A 
ENDROOT
BRANCH   4   6
ATOM      6  C   UNL     1       3.989   5.971  17.313  0.00  0.00    +0.000 A 
ATOM      7  C   UNL     1       3.819   4.579  17.392  0.00  0.00    +0.000 A 
ATOM      8  C   UNL     1       4.621   3.720  16.632  0.00  0.00    +0.000 A 
ATOM      9  C   UNL     1       5.586   4.252  15.785  0.00  0.00    +0.000 A 
ATOM     10  F   UNL     1       6.340   3.434  15.040  0.00  0.00    +0.000 F 
ATOM     11  C   UNL     1       5.786   5.623  15.706  0.00  0.00    +0.000 A 
ATOM     12  C   UNL     1       5.009   6.476  16.492  0.00  0.00    +0.000 A 
ENDBRANCH   4   6
BRANCH   5  13
ATOM     13  C   UNL     1       2.103   5.205  19.816  0.00  0.00    +0.000 A 
ATOM     14  C   UNL     1       1.251   4.248  19.239  0.00  0.00    +0.000 A 
ATOM     15  C   UNL     1       0.859   3.106  19.945  0.00  0.00    +0.000 A 
ATOM     16  C   UNL     1       1.389   2.854  21.204  0.00  0.00    +0.000 A 
ATOM     17  C   UNL     1       2.305   3.744  21.756  0.00  0.00    +0.000 A 
ATOM     18  C   UNL     1       2.634   4.924  21.082  0.00  0.00    +0.000 A 
ENDBRANCH   5  13
BRANCH   2  19
ATOM     19  C   UNL     1       1.629  10.126  18.485  0.00  0.00    +0.000 C 
ATOM     20  F   UNL     1       1.768  10.879  19.604  0.00  0.00    +0.000 F 
ATOM     21  F   UNL     1       2.263  10.801  17.490  0.00  0.00    +0.000 F 
ATOM     22  F   UNL     1       0.298  10.169  18.190  0.00  0.00    +0.000 F 
ENDBRANCH   2  19
BRANCH   1  23
ATOM     23  C   UNL     1       0.653   7.905  20.519  0.00  0.00    +0.000 C 
BRANCH  23  24
ATOM     24  C   UNL     1       1.148   8.614  21.781  0.00  0.00    +0.000 C 
BRANCH  24  25
ATOM     25  C   UNL     1       0.062   9.459  22.447  0.00  0.00    +0.000 C 
BRANCH  25  26
ATOM     26  O   UNL     1       0.428   9.683  23.809  0.00  0.00    +0.000 OA
ATOM     27  H   UNL     1       0.054  10.537  24.093  0.00  0.00    +0.000 HD
ENDBRANCH  25  26
BRANCH  25  28
ATOM     28  C   UNL     1      -0.147  10.818  21.772  0.00  0.00    +0.000 C 
BRANCH  28  29
ATOM     29  C   UNL     1      -1.423  11.549  22.214  0.00  0.00    +0.000 C 
BRANCH  29  30
ATOM     30  O   UNL     1      -1.190  12.226  23.452  0.00  0.00    +0.000 OA
ATOM     31  H   UNL     1      -1.839  12.944  23.549  0.00  0.00    +0.000 HD
ENDBRANCH  29  30
BRANCH  29  32
ATOM     32  C   UNL     1      -1.895  12.579  21.188  0.00  0.00    +0.000 C 
BRANCH  32  34
ATOM     33  O   UNL     1      -4.086  12.420  22.196  0.00  0.00    +0.000 OA
ATOM     34  C   UNL     1      -3.379  12.796  21.266  0.00  0.00    +0.000 C 
BRANCH  34  35
ATOM     35  O   UNL     1      -3.882  13.460  20.203  0.00  0.00    +0.000 OA
ATOM     36  H   UNL     1      -4.636  14.044  20.415  0.00  0.00    +0.000 HD
ENDBRANCH  34  35
ENDBRANCH  32  34
ENDBRANCH  29  32
ENDBRANCH  28  29
ENDBRANCH  25  28
ENDBRANCH  24  25
ENDBRANCH  23  24
ENDBRANCH   1  23
TORSDOF 13
ENDMDL
MODEL 8
REMARK VINA RESULT:      -7.5      4.460      8.611
REMARK  Name = 
REMARK  13 active torsions:
REMARK  status: ('A' for Active; 'I' for Inactive)
REMARK    1  A    between atoms: C_2  and  O_3
REMARK    2  A    between atoms: C_2  and  C_4
REMARK    3  A    between atoms: C_4  and  C_5
REMARK    4  A    between atoms: C_5  and  O_6
REMARK    5  A    between atoms: C_5  and  C_7
REMARK    6  A    between atoms: C_7  and  C_8
REMARK    7  A    between atoms: C_8  and  O_9
REMARK    8  A    between atoms: C_8  and  C_10
REMARK    9  A    between atoms: C_10  and  C_11
REMARK   10  A    between atoms: C_11  and  N_12
REMARK   11  A    between atoms: C_13  and  C_14
REMARK   12  A    between atoms: C_19  and  C_20
REMARK   13  A    between atoms: C_27  and  C_28
REMARK                            x       y       z     vdW  Elec       q    Type
REMARK                         _______ _______ _______ _____ _____    ______ ____
ROOT
ATOM      1  N   UNL     1       4.542   5.720  17.912  0.00  0.00    +0.000 N 
ATOM      2  C   UNL     1       5.159   6.935  17.623  0.00  0.00    +0.000 A 
ATOM      3  N   UNL     1       4.305   7.928  17.823  0.00  0.00    +0.000 NA
ATOM      4  C   UNL     1       3.162   7.381  18.333  0.00  0.00    +0.000 A 
ATOM      5  C   UNL     1       3.248   5.990  18.376  0.00  0.00    +0.000 A 
ENDROOT
BRANCH   4   6
ATOM      6  C   UNL     1       2.054   8.228  18.767  0.00  0.00    +0.000 A 
ATOM      7  C   UNL     1       1.686   8.258  20.122  0.00  0.00    +0.000 A 
ATOM      8  C   UNL     1       0.646   9.085  20.559  0.00  0.00    +0.000 A 
ATOM      9  C   UNL     1      -0.022   9.891  19.644  0.00  0.00    +0.000 A 
ATOM     10  F   UNL     1      -1.004  10.699  20.063  0.00  0.00    +0.000 F 
ATOM     11  C   UNL     1       0.309   9.863  18.297  0.00  0.00    +0.000 A 
ATOM     12  C   UNL     1       1.324   9.010  17.858  0.00  0.00    +0.000 A 
ENDBRANCH   4   6
BRANCH   5  13
ATOM     13  C   UNL     1       2.232   5.007  18.817  0.00  0.00    +0.000 A 
ATOM     14  C   UNL     1       1.966   4.842  20.188  0.00  0.00    +0.000 A 
ATOM     15  C   UNL     1       1.203   3.766  20.654  0.00  0.00    +0.000 A 
ATOM     16  C   UNL     1       0.612   2.892  19.749  0.00  0.00    +0.000 A 
ATOM     17  C   UNL     1       0.788   3.093  18.384  0.00  0.00    +0.000 A 
ATOM     18  C   UNL     1       1.616   4.121  17.924  0.00  0.00    +0.000 A 
ENDBRANCH   5  13
BRANCH   2  19
ATOM     19  C   UNL     1       6.587   7.150  17.188  0.00  0.00    +0.000 C 
ATOM     20  F   UNL     1       7.507   6.340  17.770  0.00  0.00    +0.000 F 
ATOM     21  F   UNL     1       6.739   6.996  15.846  0.00  0.00    +0.000 F 
ATOM     22  F   UNL     1       6.996   8.418  17.478  0.00  0.00    +0.000 F 
ENDBRANCH   2  19
BRANCH   1  23
ATOM     23  C   UNL     1       5.135   4.399  17.777  0.00  0.00    +0.000 C 
BRANCH  23  24
ATOM     24  C   UNL     1       5.005   3.754  16.395  0.00  0.00    +0.000 C 
BRANCH  24  25
ATOM     25  C   UNL     1       5.892   4.425  15.346  0.00  0.00    +0.000 C 
BRANCH  25  26
ATOM     26  O   UNL     1       7.233   3.961  15.517  0.00  0.00    +0.000 OA
ATOM     27  H   UNL     1       7.747   4.202  14.725  0.00  0.00    +0.000 HD
ENDBRANCH  25  26
BRANCH  25  28
ATOM     28  C   UNL     1       5.458   4.128  13.907  0.00  0.00    +0.000 C 
BRANCH  28  29
ATOM     29  C   UNL     1       6.577   3.564  13.018  0.00  0.00    +0.000 C 
BRANCH  29  30
ATOM     30  O   UNL     1       6.130   2.366  12.379  0.00  0.00    +0.000 OA
ATOM     31  H   UNL     1       6.111   1.645  13.031  0.00  0.00    +0.000 HD
ENDBRANCH  29  30
BRANCH  29  32
ATOM     32  C   UNL     1       7.016   4.548  11.934  0.00  0.00    +0.000 C 
BRANCH  32  34
ATOM     33  O   UNL     1       8.520   5.508  13.565  0.00  0.00    +0.000 OA
ATOM     34  C   UNL     1       7.954   5.587  12.479  0.00  0.00    +0.000 C 
BRANCH  34  35
ATOM     35  O   UNL     1       8.133   6.639  11.650  0.00  0.00    +0.000 OA
ATOM     36  H   UNL     1       8.369   7.471  12.103  0.00  0.00    +0.000 HD
ENDBRANCH  34  35
ENDBRANCH  32  34
ENDBRANCH  29  32
ENDBRANCH  28  29
ENDBRANCH  25  28
ENDBRANCH  24  25
ENDBRANCH  23  24
ENDBRANCH   1  23
TORSDOF 13
ENDMDL
MODEL 9
REMARK VINA RESULT:      -7.5      1.577      2.121
REMARK  Name = 
REMARK  13 active torsions:
REMARK  status: ('A' for Active; 'I' for Inactive)
REMARK    1  A    between atoms: C_2  and  O_3
REMARK    2  A    between atoms: C_2  and  C_4
REMARK    3  A    between atoms: C_4  and  C_5
REMARK    4  A    between atoms: C_5  and  O_6
REMARK    5  A    between atoms: C_5  and  C_7
REMARK    6  A    between atoms: C_7  and  C_8
REMARK    7  A    between atoms: C_8  and  O_9
REMARK    8  A    between atoms: C_8  and  C_10
REMARK    9  A    between atoms: C_10  and  C_11
REMARK   10  A    between atoms: C_11  and  N_12
REMARK   11  A    between atoms: C_13  and  C_14
REMARK   12  A    between atoms: C_19  and  C_20
REMARK   13  A    between atoms: C_27  and  C_28
REMARK                            x       y       z     vdW  Elec       q    Type
REMARK                         _______ _______ _______ _____ _____    ______ ____
ROOT
ATOM      1  N   UNL     1       4.005   4.495  18.478  0.00  0.00    +0.000 N 
ATOM      2  C   UNL     1       3.254   3.534  17.807  0.00  0.00    +0.000 A 
ATOM      3  N   UNL     1       3.666   3.443  16.551  0.00  0.00    +0.000 NA
ATOM      4  C   UNL     1       4.746   4.269  16.419  0.00  0.00    +0.000 A 
ATOM      5  C   UNL     1       4.979   4.981  17.595  0.00  0.00    +0.000 A 
ENDROOT
BRANCH   4   6
ATOM      6  C   UNL     1       5.506   4.317  15.172  0.00  0.00    +0.000 A 
ATOM      7  C   UNL     1       6.790   4.885  15.159  0.00  0.00    +0.000 A 
ATOM      8  C   UNL     1       7.543   4.913  13.980  0.00  0.00    +0.000 A 
ATOM      9  C   UNL     1       7.018   4.365  12.815  0.00  0.00    +0.000 A 
ATOM     10  F   UNL     1       7.744   4.372  11.691  0.00  0.00    +0.000 F 
ATOM     11  C   UNL     1       5.743   3.817  12.800  0.00  0.00    +0.000 A 
ATOM     12  C   UNL     1       4.980   3.822  13.969  0.00  0.00    +0.000 A 
ENDBRANCH   4   6
BRANCH   5  13
ATOM     13  C   UNL     1       6.012   6.003  17.876  0.00  0.00    +0.000 A 
ATOM     14  C   UNL     1       5.961   7.249  17.226  0.00  0.00    +0.000 A 
ATOM     15  C   UNL     1       7.040   8.137  17.275  0.00  0.00    +0.000 A 
ATOM     16  C   UNL     1       8.150   7.837  18.055  0.00  0.00    +0.000 A 
ATOM     17  C   UNL     1       8.182   6.649  18.778  0.00  0.00    +0.000 A 
ATOM     18  C   UNL     1       7.137   5.727  18.665  0.00  0.00    +0.000 A 
ENDBRANCH   5  13
BRANCH   2  19
ATOM     19  C   UNL     1       2.159   2.670  18.381  0.00  0.00    +0.000 C 
ATOM     20  F   UNL     1       2.382   2.192  19.631  0.00  0.00    +0.000 F 
ATOM     21  F   UNL     1       0.968   3.324  18.429  0.00  0.00    +0.000 F 
ATOM     22  F   UNL     1       1.959   1.565  17.607  0.00  0.00    +0.000 F 
ENDBRANCH   2  19
BRANCH   1  23
ATOM     23  C   UNL     1       3.830   4.915  19.860  0.00  0.00    +0.000 C 
BRANCH  23  24
ATOM     24  C   UNL     1       2.506   5.615  20.175  0.00  0.00    +0.000 C 
BRANCH  24  25
ATOM     25  C   UNL     1       2.412   7.008  19.551  0.00  0.00    +0.000 C 
BRANCH  25  26
ATOM     26  O   UNL     1       1.923   6.879  18.215  0.00  0.00    +0.000 OA
ATOM     27  H   UNL     1       1.826   5.931  18.012  0.00  0.00    +0.000 HD
ENDBRANCH  25  26
BRANCH  25  28
ATOM     28  C   UNL     1       1.482   7.953  20.318  0.00  0.00    +0.000 C 
BRANCH  28  29
ATOM     29  C   UNL     1       1.380   9.361  19.711  0.00  0.00    +0.000 C 
BRANCH  29  30
ATOM     30  O   UNL     1       1.861   9.344  18.364  0.00  0.00    +0.000 OA
ATOM     31  H   UNL     1       1.618  10.180  17.929  0.00  0.00    +0.000 HD
ENDBRANCH  29  30
BRANCH  29  32
ATOM     32  C   UNL     1      -0.053   9.892  19.699  0.00  0.00    +0.000 C 
BRANCH  32  34
ATOM     33  O   UNL     1      -1.125   9.921  17.532  0.00  0.00    +0.000 OA
ATOM     34  C   UNL     1      -0.413  10.477  18.364  0.00  0.00    +0.000 C 
BRANCH  34  35
ATOM     35  O   UNL     1       0.119  11.700  18.150  0.00  0.00    +0.000 OA
ATOM     36  H   UNL     1      -0.538  12.394  17.945  0.00  0.00    +0.000 HD
ENDBRANCH  34  35
ENDBRANCH  32  34
ENDBRANCH  29  32
ENDBRANCH  28  29
ENDBRANCH  25  28
ENDBRANCH  24  25
ENDBRANCH  23  24
ENDBRANCH   1  23
TORSDOF 13
ENDMDL
