MODEL 1
REMARK VINA RESULT:      -9.1      0.000      0.000
REMARK  Name = 
REMARK  6 active torsions:
REMARK  status: ('A' for Active; 'I' for Inactive)
REMARK    1  A    between atoms: C_2  and  C_24
REMARK    2  A    between atoms: N_3  and  C_4
REMARK    3  A    between atoms: C_4  and  C_5
REMARK    4  A    between atoms: C_4  and  C_15
REMARK    5  A    between atoms: C_5  and  C_6
REMARK    6  A    between atoms: N_17  and  C_18
REMARK                            x       y       z     vdW  Elec       q    Type
REMARK                         _______ _______ _______ _____ _____    ______ ____
ROOT
ATOM      1  C   UNL     1       4.511   5.053  17.643  0.00  0.00    +0.000 C 
ENDROOT
BRANCH   1   4
ATOM      2  O   UNL     1       5.379   3.163  19.652  0.00  0.00    +0.000 OA
ATOM      3  C   UNL     1       4.181   3.349  19.487  0.00  0.00    +0.000 C 
ATOM      4  N   UNL     1       3.694   4.252  18.588  0.00  0.00    +0.000 N 
ATOM      5  H   UNL     1       2.703   4.440  18.552  0.00  0.00    +0.000 HD
BRANCH   3   6
ATOM      6  C   UNL     1       3.135   2.583  20.316  0.00  0.00    +0.000 C 
ATOM      7  C   UNL     1       2.197   1.680  19.497  0.00  0.00    +0.000 C 
ATOM      8  C   UNL     1       0.872   2.326  19.098  0.00  0.00    +0.000 C 
ATOM      9  N   UNL     1       0.225   2.987  20.225  0.00  0.00    +0.000 NA
ATOM     10  C   UNL     1       1.074   4.052  20.751  0.00  0.00    +0.000 C 
ATOM     11  C   UNL     1       2.391   3.502  21.291  0.00  0.00    +0.000 C 
ATOM     12  H   UNL     1       0.040   2.306  20.962  0.00  0.00    +0.000 HD
ENDBRANCH   3   6
ENDBRANCH   1   4
BRANCH   1  13
ATOM     13  C   UNL     1       3.963   6.513  17.782  0.00  0.00    +0.000 C 
ATOM     14  O   UNL     1       4.666   7.445  17.377  0.00  0.00    +0.000 OA
ATOM     15  N   UNL     1       2.729   6.672  18.398  0.00  0.00    +0.000 N 
ATOM     16  H   UNL     1       2.333   5.872  18.871  0.00  0.00    +0.000 HD
BRANCH  15  17
ATOM     17  C   UNL     1       2.130   7.905  18.747  0.00  0.00    +0.000 A 
ATOM     18  C   UNL     1       1.951   8.953  17.851  0.00  0.00    +0.000 A 
ATOM     19  C   UNL     1       1.371  10.123  18.307  0.00  0.00    +0.000 A 
ATOM     20  N   UNL     1       0.963  10.317  19.579  0.00  0.00    +0.000 NA
ATOM     21  C   UNL     1       1.142   9.289  20.431  0.00  0.00    +0.000 A 
ATOM     22  C   UNL     1       1.705   8.074  20.066  0.00  0.00    +0.000 A 
ENDBRANCH  15  17
ENDBRANCH   1  13
BRANCH   1  23
ATOM     23  C   UNL     1       4.476   4.514  16.197  0.00  0.00    +0.000 C 
BRANCH  23  24
ATOM     24  C   UNL     1       5.747   4.746  15.420  0.00  0.00    +0.000 A 
ATOM     25  C   UNL     1       6.874   5.423  15.848  0.00  0.00    +0.000 A 
ATOM     26  N   UNL     1       7.728   5.558  14.799  0.00  0.00    +0.000 N 
ATOM     27  C   UNL     1       7.250   4.872  13.718  0.00  0.00    +0.000 A 
ATOM     28  C   UNL     1       7.809   4.725  12.450  0.00  0.00    +0.000 A 
ATOM     29  C   UNL     1       7.123   3.933  11.532  0.00  0.00    +0.000 A 
ATOM     30  C   UNL     1       5.920   3.318  11.875  0.00  0.00    +0.000 A 
ATOM     31  C   UNL     1       5.354   3.504  13.143  0.00  0.00    +0.000 A 
ATOM     32  C   UNL     1       6.028   4.307  14.087  0.00  0.00    +0.000 A 
ATOM     33  H   UNL     1       8.595   6.081  14.821  0.00  0.00    +0.000 HD
ENDBRANCH  23  24
ENDBRANCH   1  23
TORSDOF 6
ENDMDL
MODEL 2
REMARK VINA RESULT:      -8.8      1.864      7.464
REMARK  Name = 
REMARK  6 active torsions:
REMARK  status: ('A' for Active; 'I' for Inactive)
REMARK    1  A    between atoms: C_2  and  C_24
REMARK    2  A    between atoms: N_3  and  C_4
REMARK    3  A    between atoms: C_4  and  C_5
REMARK    4  A    between atoms: C_4  and  C_15
REMARK    5  A    between atoms: C_5  and  C_6
REMARK    6  A    between atoms: N_17  and  C_18
REMARK                            x       y       z     vdW  Elec       q    Type
REMARK                         _______ _______ _______ _____ _____    ______ ____
ROOT
ATOM      1  C   UNL     1       2.222   6.682  18.618  0.00  0.00    +0.000 C 
ENDROOT
BRANCH   1   4
ATOM      2  O   UNL     1       1.186   4.286  17.374  0.00  0.00    +0.000 OA
ATOM      3  C   UNL     1       1.548   4.242  18.543  0.00  0.00    +0.000 C 
ATOM      4  N   UNL     1       2.085   5.318  19.187  0.00  0.00    +0.000 N 
ATOM      5  H   UNL     1       2.456   5.211  20.120  0.00  0.00    +0.000 HD
BRANCH   3   6
ATOM      6  C   UNL     1       1.445   2.942  19.360  0.00  0.00    +0.000 C 
ATOM      7  C   UNL     1       0.939   3.125  20.801  0.00  0.00    +0.000 C 
ATOM      8  C   UNL     1       2.036   3.268  21.853  0.00  0.00    +0.000 C 
ATOM      9  N   UNL     1       3.066   2.246  21.711  0.00  0.00    +0.000 NA
ATOM     10  C   UNL     1       3.714   2.349  20.407  0.00  0.00    +0.000 C 
ATOM     11  C   UNL     1       2.725   2.105  19.270  0.00  0.00    +0.000 C 
ATOM     12  H   UNL     1       2.648   1.320  21.809  0.00  0.00    +0.000 HD
ENDBRANCH   3   6
ENDBRANCH   1   4
BRANCH   1  13
ATOM     13  C   UNL     1       3.598   6.664  17.871  0.00  0.00    +0.000 C 
ATOM     14  O   UNL     1       4.060   7.737  17.465  0.00  0.00    +0.000 OA
ATOM     15  N   UNL     1       4.197   5.428  17.671  0.00  0.00    +0.000 N 
ATOM     16  H   UNL     1       3.645   4.602  17.860  0.00  0.00    +0.000 HD
BRANCH  15  17
ATOM     17  C   UNL     1       5.357   5.183  16.901  0.00  0.00    +0.000 A 
ATOM     18  C   UNL     1       5.388   5.261  15.514  0.00  0.00    +0.000 A 
ATOM     19  C   UNL     1       6.575   4.981  14.861  0.00  0.00    +0.000 A 
ATOM     20  N   UNL     1       7.718   4.632  15.489  0.00  0.00    +0.000 NA
ATOM     21  C   UNL     1       7.668   4.565  16.835  0.00  0.00    +0.000 A 
ATOM     22  C   UNL     1       6.529   4.837  17.578  0.00  0.00    +0.000 A 
ENDBRANCH  15  17
ENDBRANCH   1  13
BRANCH   1  23
ATOM     23  C   UNL     1       2.107   7.800  19.676  0.00  0.00    +0.000 C 
BRANCH  23  24
ATOM     24  C   UNL     1       1.229   8.954  19.263  0.00  0.00    +0.000 A 
ATOM     25  C   UNL     1       1.027   9.430  17.980  0.00  0.00    +0.000 A 
ATOM     26  N   UNL     1       0.307  10.581  18.049  0.00  0.00    +0.000 N 
ATOM     27  C   UNL     1      -0.085  10.809  19.339  0.00  0.00    +0.000 A 
ATOM     28  C   UNL     1      -0.848  11.853  19.856  0.00  0.00    +0.000 A 
ATOM     29  C   UNL     1      -1.135  11.827  21.219  0.00  0.00    +0.000 A 
ATOM     30  C   UNL     1      -0.667  10.794  22.030  0.00  0.00    +0.000 A 
ATOM     31  C   UNL     1       0.129   9.769  21.500  0.00  0.00    +0.000 A 
ATOM     32  C   UNL     1       0.436   9.779  20.123  0.00  0.00    +0.000 A 
ATOM     33  H   UNL     1       0.085  11.174  17.259  0.00  0.00    +0.000 HD
ENDBRANCH  23  24
ENDBRANCH   1  23
TORSDOF 6
ENDMDL
MODEL 3
REMARK VINA RESULT:      -8.6      1.990      7.720
REMARK  Name = 
REMARK  6 active torsions:
REMARK  status: ('A' for Active; 'I' for Inactive)
REMARK    1  A    between atoms: C_2  and  C_24
REMARK    2  A    between atoms: N_3  and  C_4
REMARK    3  A    between atoms: C_4  and  C_5
REMARK    4  A    between atoms: C_4  and  C_15
REMARK    5  A    between atoms: C_5  and  C_6
REMARK    6  A    between atoms: N_17  and  C_18
REMARK                            x       y       z     vdW  Elec       q    Type
REMARK                         _______ _______ _______ _____ _____    ______ ____
ROOT
ATOM      1  C   UNL     1       1.946   6.795  19.095  0.00  0.00    +0.000 C 
ENDROOT
BRANCH   1   4
ATOM      2  O   UNL     1       1.259   4.474  17.513  0.00  0.00    +0.000 OA
ATOM      3  C   UNL     1       1.585   4.323  18.683  0.00  0.00    +0.000 C 
ATOM      4  N   UNL     1       1.961   5.363  19.482  0.00  0.00    +0.000 N 
ATOM      5  H   UNL     1       2.312   5.181  20.411  0.00  0.00    +0.000 HD
BRANCH   3   6
ATOM      6  C   UNL     1       1.618   2.925  19.327  0.00  0.00    +0.000 C 
ATOM      7  C   UNL     1       1.144   2.876  20.789  0.00  0.00    +0.000 C 
ATOM      8  C   UNL     1       2.257   2.980  21.828  0.00  0.00    +0.000 C 
ATOM      9  N   UNL     1       3.365   2.079  21.533  0.00  0.00    +0.000 NA
ATOM     10  C   UNL     1       3.961   2.405  20.240  0.00  0.00    +0.000 C 
ATOM     11  C   UNL     1       2.961   2.222  19.102  0.00  0.00    +0.000 C 
ATOM     12  H   UNL     1       3.030   1.115  21.518  0.00  0.00    +0.000 HD
ENDBRANCH   3   6
ENDBRANCH   1   4
BRANCH   1  13
ATOM     13  C   UNL     1       3.198   6.971  18.172  0.00  0.00    +0.000 C 
ATOM     14  O   UNL     1       3.258   7.972  17.449  0.00  0.00    +0.000 OA
ATOM     15  N   UNL     1       4.149   5.960  18.192  0.00  0.00    +0.000 N 
ATOM     16  H   UNL     1       3.909   5.098  18.661  0.00  0.00    +0.000 HD
BRANCH  15  17
ATOM     17  C   UNL     1       5.270   5.859  17.336  0.00  0.00    +0.000 A 
ATOM     18  C   UNL     1       6.481   6.497  17.578  0.00  0.00    +0.000 A 
ATOM     19  C   UNL     1       7.505   6.345  16.661  0.00  0.00    +0.000 A 
ATOM     20  N   UNL     1       7.405   5.610  15.533  0.00  0.00    +0.000 NA
ATOM     21  C   UNL     1       6.224   4.998  15.317  0.00  0.00    +0.000 A 
ATOM     22  C   UNL     1       5.143   5.082  16.183  0.00  0.00    +0.000 A 
ENDBRANCH  15  17
ENDBRANCH   1  13
BRANCH   1  23
ATOM     23  C   UNL     1       1.929   7.755  20.304  0.00  0.00    +0.000 C 
BRANCH  23  24
ATOM     24  C   UNL     1       1.033   8.955  20.129  0.00  0.00    +0.000 A 
ATOM     25  C   UNL     1       0.798   9.656  18.960  0.00  0.00    +0.000 A 
ATOM     26  N   UNL     1       0.071  10.766  19.254  0.00  0.00    +0.000 N 
ATOM     27  C   UNL     1      -0.295  10.747  20.572  0.00  0.00    +0.000 A 
ATOM     28  C   UNL     1      -1.056  11.669  21.287  0.00  0.00    +0.000 A 
ATOM     29  C   UNL     1      -1.313  11.388  22.628  0.00  0.00    +0.000 A 
ATOM     30  C   UNL     1      -0.819  10.229  23.224  0.00  0.00    +0.000 A 
ATOM     31  C   UNL     1      -0.026   9.330  22.498  0.00  0.00    +0.000 A 
ATOM     32  C   UNL     1       0.252   9.597  21.142  0.00  0.00    +0.000 A 
ATOM     33  H   UNL     1      -0.174  11.492  18.592  0.00  0.00    +0.000 HD
ENDBRANCH  23  24
ENDBRANCH   1  23
TORSDOF 6
ENDMDL
MODEL 4
REMARK VINA RESULT:      -8.3      2.030      7.735
REMARK  Name = 
REMARK  6 active torsions:
REMARK  status: ('A' for Active; 'I' for Inactive)
REMARK    1  A    between atoms: C_2  and  C_24
REMARK    2  A    between atoms: N_3  and  C_4
REMARK    3  A    between atoms: C_4  and  C_5
REMARK    4  A    between atoms: C_4  and  C_15
REMARK    5  A    between atoms: C_5  and  C_6
REMARK    6  A    between atoms: N_17  and  C_18
REMARK                            x       y       z     vdW  Elec       q    Type
REMARK                         _______ _______ _______ _____ _____    ______ ____
ROOT
ATOM      1  C   UNL     1       1.970   6.772  19.161  0.00  0.00    +0.000 C 
ENDROOT
BRANCH   1   4
ATOM      2  O   UNL     1       1.298   4.424  17.614  0.00  0.00    +0.000 OA
ATOM      3  C   UNL     1       1.685   4.287  18.767  0.00  0.00    +0.000 C 
ATOM      4  N   UNL     1       2.059   5.342  19.547  0.00  0.00    +0.000 N 
ATOM      5  H   UNL     1       2.460   5.176  20.458  0.00  0.00    +0.000 HD
BRANCH   3   6
ATOM      6  C   UNL     1       1.802   2.893  19.408  0.00  0.00    +0.000 C 
ATOM      7  C   UNL     1       2.750   2.815  20.616  0.00  0.00    +0.000 C 
ATOM      8  C   UNL     1       4.176   2.380  20.284  0.00  0.00    +0.000 C 
ATOM      9  N   UNL     1       4.202   1.197  19.432  0.00  0.00    +0.000 NA
ATOM     10  C   UNL     1       3.535   1.466  18.162  0.00  0.00    +0.000 C 
ATOM     11  C   UNL     1       2.060   1.802  18.364  0.00  0.00    +0.000 C 
ATOM     12  H   UNL     1       3.732   0.423  19.904  0.00  0.00    +0.000 HD
ENDBRANCH   3   6
ENDBRANCH   1   4
BRANCH   1  13
ATOM     13  C   UNL     1       3.187   7.001  18.203  0.00  0.00    +0.000 C 
ATOM     14  O   UNL     1       3.197   8.017  17.498  0.00  0.00    +0.000 OA
ATOM     15  N   UNL     1       4.167   6.018  18.174  0.00  0.00    +0.000 N 
ATOM     16  H   UNL     1       3.966   5.140  18.633  0.00  0.00    +0.000 HD
BRANCH  15  17
ATOM     17  C   UNL     1       5.263   5.966  17.282  0.00  0.00    +0.000 A 
ATOM     18  C   UNL     1       5.250   5.249  16.091  0.00  0.00    +0.000 A 
ATOM     19  C   UNL     1       6.387   5.252  15.303  0.00  0.00    +0.000 A 
ATOM     20  N   UNL     1       7.522   5.910  15.619  0.00  0.00    +0.000 NA
ATOM     21  C   UNL     1       7.515   6.600  16.777  0.00  0.00    +0.000 A 
ATOM     22  C   UNL     1       6.420   6.667  17.627  0.00  0.00    +0.000 A 
ENDBRANCH  15  17
ENDBRANCH   1  13
BRANCH   1  23
ATOM     23  C   UNL     1       1.946   7.731  20.370  0.00  0.00    +0.000 C 
BRANCH  23  24
ATOM     24  C   UNL     1       1.067   8.942  20.181  0.00  0.00    +0.000 A 
ATOM     25  C   UNL     1       0.861   9.648  19.010  0.00  0.00    +0.000 A 
ATOM     26  N   UNL     1       0.141  10.766  19.294  0.00  0.00    +0.000 N 
ATOM     27  C   UNL     1      -0.248  10.748  20.605  0.00  0.00    +0.000 A 
ATOM     28  C   UNL     1      -1.012  11.677  21.309  0.00  0.00    +0.000 A 
ATOM     29  C   UNL     1      -1.296  11.396  22.643  0.00  0.00    +0.000 A 
ATOM     30  C   UNL     1      -0.826  10.230  23.246  0.00  0.00    +0.000 A 
ATOM     31  C   UNL     1      -0.030   9.323  22.533  0.00  0.00    +0.000 A 
ATOM     32  C   UNL     1       0.275   9.591  21.182  0.00  0.00    +0.000 A 
ATOM     33  H   UNL     1      -0.083  11.496  18.629  0.00  0.00    +0.000 HD
ENDBRANCH  23  24
ENDBRANCH   1  23
TORSDOF 6
ENDMDL
MODEL 5
REMARK VINA RESULT:      -8.3      1.557      2.011
REMARK  Name = 
REMARK  6 active torsions:
REMARK  status: ('A' for Active; 'I' for Inactive)
REMARK    1  A    between atoms: C_2  and  C_24
REMARK    2  A    between atoms: N_3  and  C_4
REMARK    3  A    between atoms: C_4  and  C_5
REMARK    4  A    between atoms: C_4  and  C_15
REMARK    5  A    between atoms: C_5  and  C_6
REMARK    6  A    between atoms: N_17  and  C_18
REMARK                            x       y       z     vdW  Elec       q    Type
REMARK                         _______ _______ _______ _____ _____    ______ ____
ROOT
ATOM      1  C   UNL     1       3.765   6.589  18.641  0.00  0.00    +0.000 C 
ENDROOT
BRANCH   1   4
ATOM      2  O   UNL     1       5.641   4.579  19.536  0.00  0.00    +0.000 OA
ATOM      3  C   UNL     1       4.489   4.250  19.286  0.00  0.00    +0.000 C 
ATOM      4  N   UNL     1       3.536   5.145  18.898  0.00  0.00    +0.000 N 
ATOM      5  H   UNL     1       2.578   4.846  18.794  0.00  0.00    +0.000 HD
BRANCH   3   6
ATOM      6  C   UNL     1       4.031   2.787  19.423  0.00  0.00    +0.000 C 
ATOM      7  C   UNL     1       3.685   2.092  18.095  0.00  0.00    +0.000 C 
ATOM      8  C   UNL     1       2.207   2.136  17.715  0.00  0.00    +0.000 C 
ATOM      9  N   UNL     1       1.345   1.754  18.828  0.00  0.00    +0.000 NA
ATOM     10  C   UNL     1       1.520   2.670  19.950  0.00  0.00    +0.000 C 
ATOM     11  C   UNL     1       2.946   2.624  20.493  0.00  0.00    +0.000 C 
ATOM     12  H   UNL     1       1.570   0.805  19.127  0.00  0.00    +0.000 HD
ENDBRANCH   3   6
ENDBRANCH   1   4
BRANCH   1  13
ATOM     13  C   UNL     1       2.506   7.303  19.240  0.00  0.00    +0.000 C 
ATOM     14  O   UNL     1       1.803   6.680  20.042  0.00  0.00    +0.000 OA
ATOM     15  N   UNL     1       2.234   8.590  18.793  0.00  0.00    +0.000 N 
ATOM     16  H   UNL     1       2.750   8.929  17.993  0.00  0.00    +0.000 HD
BRANCH  15  17
ATOM     17  C   UNL     1       1.078   9.346  19.098  0.00  0.00    +0.000 A 
ATOM     18  C   UNL     1       0.159   9.761  18.142  0.00  0.00    +0.000 A 
ATOM     19  C   UNL     1      -0.927  10.515  18.551  0.00  0.00    +0.000 A 
ATOM     20  N   UNL     1      -1.154  10.878  19.831  0.00  0.00    +0.000 NA
ATOM     21  C   UNL     1      -0.253  10.463  20.743  0.00  0.00    +0.000 A 
ATOM     22  C   UNL     1       0.860   9.696  20.432  0.00  0.00    +0.000 A 
ENDBRANCH  15  17
ENDBRANCH   1  13
BRANCH   1  23
ATOM     23  C   UNL     1       4.011   6.914  17.153  0.00  0.00    +0.000 C 
BRANCH  23  24
ATOM     24  C   UNL     1       5.348   6.450  16.632  0.00  0.00    +0.000 A 
ATOM     25  C   UNL     1       6.598   6.845  17.075  0.00  0.00    +0.000 A 
ATOM     26  N   UNL     1       7.540   6.333  16.240  0.00  0.00    +0.000 N 
ATOM     27  C   UNL     1       6.951   5.499  15.329  0.00  0.00    +0.000 A 
ATOM     28  C   UNL     1       7.539   4.754  14.309  0.00  0.00    +0.000 A 
ATOM     29  C   UNL     1       6.703   3.949  13.537  0.00  0.00    +0.000 A 
ATOM     30  C   UNL     1       5.331   3.901  13.779  0.00  0.00    +0.000 A 
ATOM     31  C   UNL     1       4.752   4.684  14.787  0.00  0.00    +0.000 A 
ATOM     32  C   UNL     1       5.578   5.510  15.577  0.00  0.00    +0.000 A 
ATOM     33  H   UNL     1       8.531   6.531  16.293  0.00  0.00    +0.000 HD
ENDBRANCH  23  24
ENDBRANCH   1  23
TORSDOF 6
ENDMDL
MODEL 6
REMARK VINA RESULT:      -8.2      2.070      3.194
REMARK  Name = 
REMARK  6 active torsions:
REMARK  status: ('A' for Active; 'I' for Inactive)
REMARK    1  A    between atoms: C_2  and  C_24
REMARK    2  A    between atoms: N_3  and  C_4
REMARK    3  A    between atoms: C_4  and  C_5
REMARK    4  A    between atoms: C_4  and  C_15
REMARK    5  A    between atoms: C_5  and  C_6
REMARK    6  A    between atoms: N_17  and  C_18
REMARK                            x       y       z     vdW  Elec       q    Type
REMARK                         _______ _______ _______ _____ _____    ______ ____
ROOT
ATOM      1  C   UNL     1       3.104   7.457  18.651  0.00  0.00    +0.000 C 
ENDROOT
BRANCH   1   4
ATOM      2  O   UNL     1       1.896   5.475  20.375  0.00  0.00    +0.000 OA
ATOM      3  C   UNL     1       1.894   5.293  19.165  0.00  0.00    +0.000 C 
ATOM      4  N   UNL     1       2.408   6.199  18.284  0.00  0.00    +0.000 N 
ATOM      5  H   UNL     1       2.300   6.052  17.291  0.00  0.00    +0.000 HD
BRANCH   3   6
ATOM      6  C   UNL     1       1.277   4.023  18.551  0.00  0.00    +0.000 C 
ATOM      7  C   UNL     1       0.873   2.946  19.570  0.00  0.00    +0.000 C 
ATOM      8  C   UNL     1       1.928   1.871  19.820  0.00  0.00    +0.000 C 
ATOM      9  N   UNL     1       2.469   1.337  18.575  0.00  0.00    +0.000 NA
ATOM     10  C   UNL     1       3.116   2.394  17.803  0.00  0.00    +0.000 C 
ATOM     11  C   UNL     1       2.122   3.477  17.395  0.00  0.00    +0.000 C 
ATOM     12  H   UNL     1       1.718   0.925  18.022  0.00  0.00    +0.000 HD
ENDBRANCH   3   6
ENDBRANCH   1   4
BRANCH   1  13
ATOM     13  C   UNL     1       2.158   8.598  18.144  0.00  0.00    +0.000 C 
ATOM     14  O   UNL     1       2.253   8.960  16.966  0.00  0.00    +0.000 OA
ATOM     15  N   UNL     1       1.295   9.165  19.072  0.00  0.00    +0.000 N 
ATOM     16  H   UNL     1       1.438   8.940  20.047  0.00  0.00    +0.000 HD
BRANCH  15  17
ATOM     17  C   UNL     1       0.470  10.294  18.855  0.00  0.00    +0.000 A 
ATOM     18  C   UNL     1      -0.830  10.212  18.369  0.00  0.00    +0.000 A 
ATOM     19  C   UNL     1      -1.540  11.383  18.176  0.00  0.00    +0.000 A 
ATOM     20  N   UNL     1      -1.047  12.614  18.429  0.00  0.00    +0.000 NA
ATOM     21  C   UNL     1       0.214  12.672  18.902  0.00  0.00    +0.000 A 
ATOM     22  C   UNL     1       1.000  11.554  19.138  0.00  0.00    +0.000 A 
ENDBRANCH  15  17
ENDBRANCH   1  13
BRANCH   1  23
ATOM     23  C   UNL     1       4.539   7.548  18.088  0.00  0.00    +0.000 C 
BRANCH  23  24
ATOM     24  C   UNL     1       5.195   6.212  17.850  0.00  0.00    +0.000 A 
ATOM     25  C   UNL     1       5.671   5.334  18.807  0.00  0.00    +0.000 A 
ATOM     26  N   UNL     1       6.341   4.328  18.185  0.00  0.00    +0.000 N 
ATOM     27  C   UNL     1       6.207   4.449  16.829  0.00  0.00    +0.000 A 
ATOM     28  C   UNL     1       6.709   3.632  15.819  0.00  0.00    +0.000 A 
ATOM     29  C   UNL     1       6.391   3.967  14.504  0.00  0.00    +0.000 A 
ATOM     30  C   UNL     1       5.604   5.081  14.218  0.00  0.00    +0.000 A 
ATOM     31  C   UNL     1       5.136   5.912  15.245  0.00  0.00    +0.000 A 
ATOM     32  C   UNL     1       5.451   5.596  16.583  0.00  0.00    +0.000 A 
ATOM     33  H   UNL     1       6.852   3.593  18.657  0.00  0.00    +0.000 HD
ENDBRANCH  23  24
ENDBRANCH   1  23
TORSDOF 6
ENDMDL
MODEL 7
REMARK VINA RESULT:      -8.2      1.966      3.069
REMARK  Name = 
REMARK  6 active torsions:
REMARK  status: ('A' for Active; 'I' for Inactive)
REMARK    1  A    between atoms: C_2  and  C_24
REMARK    2  A    between atoms: N_3  and  C_4
REMARK    3  A    between atoms: C_4  and  C_5
REMARK    4  A    between atoms: C_4  and  C_15
REMARK    5  A    between atoms: C_5  and  C_6
REMARK    6  A    between atoms: N_17  and  C_18
REMARK                            x       y       z     vdW  Elec       q    Type
REMARK                         _______ _______ _______ _____ _____    ______ ____
ROOT
ATOM      1  C   UNL     1       2.904   7.450  18.978  0.00  0.00    +0.000 C 
ENDROOT
BRANCH   1   4
ATOM      2  O   UNL     1       4.503   5.247  19.952  0.00  0.00    +0.000 OA
ATOM      3  C   UNL     1       3.286   5.127  19.911  0.00  0.00    +0.000 C 
ATOM      4  N   UNL     1       2.461   6.134  19.503  0.00  0.00    +0.000 N 
ATOM      5  H   UNL     1       1.460   6.024  19.574  0.00  0.00    +0.000 HD
BRANCH   3   6
ATOM      6  C   UNL     1       2.598   3.822  20.351  0.00  0.00    +0.000 C 
ATOM      7  C   UNL     1       3.418   2.545  20.101  0.00  0.00    +0.000 C 
ATOM      8  C   UNL     1       3.112   1.833  18.786  0.00  0.00    +0.000 C 
ATOM      9  N   UNL     1       1.678   1.669  18.574  0.00  0.00    +0.000 NA
ATOM     10  C   UNL     1       1.017   2.970  18.515  0.00  0.00    +0.000 C 
ATOM     11  C   UNL     1       1.160   3.729  19.832  0.00  0.00    +0.000 C 
ATOM     12  H   UNL     1       1.279   1.120  19.335  0.00  0.00    +0.000 HD
ENDBRANCH   3   6
ENDBRANCH   1   4
BRANCH   1  13
ATOM     13  C   UNL     1       1.752   8.438  19.362  0.00  0.00    +0.000 C 
ATOM     14  O   UNL     1       1.192   8.294  20.454  0.00  0.00    +0.000 OA
ATOM     15  N   UNL     1       1.399   9.398  18.422  0.00  0.00    +0.000 N 
ATOM     16  H   UNL     1       1.776   9.303  17.489  0.00  0.00    +0.000 HD
BRANCH  15  17
ATOM     17  C   UNL     1       0.300  10.284  18.514  0.00  0.00    +0.000 A 
ATOM     18  C   UNL     1      -0.961   9.998  18.004  0.00  0.00    +0.000 A 
ATOM     19  C   UNL     1      -1.958  10.949  18.132  0.00  0.00    +0.000 A 
ATOM     20  N   UNL     1      -1.785  12.148  18.726  0.00  0.00    +0.000 NA
ATOM     21  C   UNL     1      -0.556  12.405  19.216  0.00  0.00    +0.000 A 
ATOM     22  C   UNL     1       0.504  11.513  19.145  0.00  0.00    +0.000 A 
ENDBRANCH  15  17
ENDBRANCH   1  13
BRANCH   1  23
ATOM     23  C   UNL     1       3.225   7.430  17.469  0.00  0.00    +0.000 C 
BRANCH  23  24
ATOM     24  C   UNL     1       4.633   6.998  17.142  0.00  0.00    +0.000 A 
ATOM     25  C   UNL     1       5.789   7.742  17.294  0.00  0.00    +0.000 A 
ATOM     26  N   UNL     1       6.823   7.063  16.729  0.00  0.00    +0.000 N 
ATOM     27  C   UNL     1       6.401   5.828  16.322  0.00  0.00    +0.000 A 
ATOM     28  C   UNL     1       7.128   4.806  15.716  0.00  0.00    +0.000 A 
ATOM     29  C   UNL     1       6.456   3.619  15.432  0.00  0.00    +0.000 A 
ATOM     30  C   UNL     1       5.104   3.470  15.741  0.00  0.00    +0.000 A 
ATOM     31  C   UNL     1       4.380   4.521  16.320  0.00  0.00    +0.000 A 
ATOM     32  C   UNL     1       5.039   5.733  16.610  0.00  0.00    +0.000 A 
ATOM     33  H   UNL     1       7.767   7.418  16.636  0.00  0.00    +0.000 HD
ENDBRANCH  23  24
ENDBRANCH   1  23
TORSDOF 6
ENDMDL
MODEL 8
REMARK VINA RESULT:      -8.2      1.627      2.321
REMARK  Name = 
REMARK  6 active torsions:
REMARK  status: ('A' for Active; 'I' for Inactive)
REMARK    1  A    between atoms: C_2  and  C_24
REMARK    2  A    between atoms: N_3  and  C_4
REMARK    3  A    between atoms: C_4  and  C_5
REMARK    4  A    between atoms: C_4  and  C_15
REMARK    5  A    between atoms: C_5  and  C_6
REMARK    6  A    between atoms: N_17  and  C_18
REMARK                            x       y       z     vdW  Elec       q    Type
REMARK                         _______ _______ _______ _____ _____    ______ ____
ROOT
ATOM      1  C   UNL     1       3.485   6.809  18.796  0.00  0.00    +0.000 C 
ENDROOT
BRANCH   1   4
ATOM      2  O   UNL     1       5.096   4.516  19.508  0.00  0.00    +0.000 OA
ATOM      3  C   UNL     1       3.900   4.362  19.299  0.00  0.00    +0.000 C 
ATOM      4  N   UNL     1       3.067   5.399  18.998  0.00  0.00    +0.000 N 
ATOM      5  H   UNL     1       2.073   5.240  18.926  0.00  0.00    +0.000 HD
BRANCH   3   6
ATOM      6  C   UNL     1       3.248   2.971  19.391  0.00  0.00    +0.000 C 
ATOM      7  C   UNL     1       2.315   2.617  18.220  0.00  0.00    +0.000 C 
ATOM      8  C   UNL     1       0.839   2.922  18.461  0.00  0.00    +0.000 C 
ATOM      9  N   UNL     1       0.382   2.427  19.755  0.00  0.00    +0.000 NA
ATOM     10  C   UNL     1       1.128   3.060  20.838  0.00  0.00    +0.000 C 
ATOM     11  C   UNL     1       2.615   2.724  20.765  0.00  0.00    +0.000 C 
ATOM     12  H   UNL     1       0.512   1.415  19.801  0.00  0.00    +0.000 HD
ENDBRANCH   3   6
ENDBRANCH   1   4
BRANCH   1  13
ATOM     13  C   UNL     1       2.305   7.660  19.373  0.00  0.00    +0.000 C 
ATOM     14  O   UNL     1       1.692   7.225  20.355  0.00  0.00    +0.000 OA
ATOM     15  N   UNL     1       1.990   8.840  18.713  0.00  0.00    +0.000 N 
ATOM     16  H   UNL     1       2.414   9.001  17.810  0.00  0.00    +0.000 HD
BRANCH  15  17
ATOM     17  C   UNL     1       0.879   9.672  18.985  0.00  0.00    +0.000 A 
ATOM     18  C   UNL     1       0.754  10.432  20.142  0.00  0.00    +0.000 A 
ATOM     19  C   UNL     1      -0.387  11.195  20.314  0.00  0.00    +0.000 A 
ATOM     20  N   UNL     1      -1.399  11.249  19.423  0.00  0.00    +0.000 NA
ATOM     21  C   UNL     1      -1.259  10.507  18.307  0.00  0.00    +0.000 A 
ATOM     22  C   UNL     1      -0.148   9.720  18.040  0.00  0.00    +0.000 A 
ENDBRANCH  15  17
ENDBRANCH   1  13
BRANCH   1  23
ATOM     23  C   UNL     1       3.827   7.140  17.328  0.00  0.00    +0.000 C 
BRANCH  23  24
ATOM     24  C   UNL     1       5.190   6.669  16.889  0.00  0.00    +0.000 A 
ATOM     25  C   UNL     1       6.415   7.122  17.345  0.00  0.00    +0.000 A 
ATOM     26  N   UNL     1       7.397   6.571  16.582  0.00  0.00    +0.000 N 
ATOM     27  C   UNL     1       6.857   5.661  15.715  0.00  0.00    +0.000 A 
ATOM     28  C   UNL     1       7.495   4.857  14.774  0.00  0.00    +0.000 A 
ATOM     29  C   UNL     1       6.703   3.981  14.034  0.00  0.00    +0.000 A 
ATOM     30  C   UNL     1       5.324   3.920  14.232  0.00  0.00    +0.000 A 
ATOM     31  C   UNL     1       4.695   4.762  15.159  0.00  0.00    +0.000 A 
ATOM     32  C   UNL     1       5.476   5.661  15.914  0.00  0.00    +0.000 A 
ATOM     33  H   UNL     1       8.381   6.794  16.655  0.00  0.00    +0.000 HD
ENDBRANCH  23  24
ENDBRANCH   1  23
TORSDOF 6
ENDMDL
MODEL 9
REMARK VINA RESULT:      -8.2      1.775      2.517
REMARK  Name = 
REMARK  6 active torsions:
REMARK  status: ('A' for Active; 'I' for Inactive)
REMARK    1  A    between atoms: C_2  and  C_24
REMARK    2  A    between atoms: N_3  and  C_4
REMARK    3  A    between atoms: C_4  and  C_5
REMARK    4  A    between atoms: C_4  and  C_15
REMARK    5  A    between atoms: C_5  and  C_6
REMARK    6  A    between atoms: N_17  and  C_18
REMARK                            x       y       z     vdW  Elec       q    Type
REMARK                         _______ _______ _______ _____ _____    ______ ____
ROOT
ATOM      1  C   UNL     1       3.408   7.104  18.637  0.00  0.00    +0.000 C 
ENDROOT
BRANCH   1   4
ATOM      2  O   UNL     1       5.010   5.025  19.851  0.00  0.00    +0.000 OA
ATOM      3  C   UNL     1       3.809   4.842  19.703  0.00  0.00    +0.000 C 
ATOM      4  N   UNL     1       2.980   5.789  19.176  0.00  0.00    +0.000 N 
ATOM      5  H   UNL     1       1.983   5.631  19.160  0.00  0.00    +0.000 HD
BRANCH   3   6
ATOM      6  C   UNL     1       3.146   3.522  20.135  0.00  0.00    +0.000 C 
ATOM      7  C   UNL     1       3.858   2.251  19.644  0.00  0.00    +0.000 C 
ATOM      8  C   UNL     1       3.313   1.673  18.341  0.00  0.00    +0.000 C 
ATOM      9  N   UNL     1       1.859   1.570  18.354  0.00  0.00    +0.000 NA
ATOM     10  C   UNL     1       1.254   2.889  18.518  0.00  0.00    +0.000 C 
ATOM     11  C   UNL     1       1.639   3.519  19.854  0.00  0.00    +0.000 C 
ATOM     12  H   UNL     1       1.564   0.965  19.121  0.00  0.00    +0.000 HD
ENDBRANCH   3   6
ENDBRANCH   1   4
BRANCH   1  13
ATOM     13  C   UNL     1       2.267   8.093  19.052  0.00  0.00    +0.000 C 
ATOM     14  O   UNL     1       1.681   7.898  20.122  0.00  0.00    +0.000 OA
ATOM     15  N   UNL     1       1.955   9.112  18.162  0.00  0.00    +0.000 N 
ATOM     16  H   UNL     1       2.351   9.063  17.233  0.00  0.00    +0.000 HD
BRANCH  15  17
ATOM     17  C   UNL     1       0.873  10.015  18.281  0.00  0.00    +0.000 A 
ATOM     18  C   UNL     1       0.979  11.265  18.878  0.00  0.00    +0.000 A 
ATOM     19  C   UNL     1      -0.151  12.059  18.958  0.00  0.00    +0.000 A 
ATOM     20  N   UNL     1      -1.364  11.694  18.492  0.00  0.00    +0.000 NA
ATOM     21  C   UNL     1      -1.446  10.479  17.914  0.00  0.00    +0.000 A 
ATOM     22  C   UNL     1      -0.367   9.617  17.777  0.00  0.00    +0.000 A 
ENDBRANCH  15  17
ENDBRANCH   1  13
BRANCH   1  23
ATOM     23  C   UNL     1       3.685   7.081  17.119  0.00  0.00    +0.000 C 
BRANCH  23  24
ATOM     24  C   UNL     1       5.076   6.631  16.751  0.00  0.00    +0.000 A 
ATOM     25  C   UNL     1       6.267   7.080  17.291  0.00  0.00    +0.000 A 
ATOM     26  N   UNL     1       7.297   6.556  16.575  0.00  0.00    +0.000 N 
ATOM     27  C   UNL     1       6.819   5.665  15.655  0.00  0.00    +0.000 A 
ATOM     28  C   UNL     1       7.519   4.890  14.733  0.00  0.00    +0.000 A 
ATOM     29  C   UNL     1       6.781   4.027  13.925  0.00  0.00    +0.000 A 
ATOM     30  C   UNL     1       5.393   3.952  14.038  0.00  0.00    +0.000 A 
ATOM     31  C   UNL     1       4.701   4.765  14.946  0.00  0.00    +0.000 A 
ATOM     32  C   UNL     1       5.428   5.649  15.770  0.00  0.00    +0.000 A 
ATOM     33  H   UNL     1       8.274   6.784  16.712  0.00  0.00    +0.000 HD
ENDBRANCH  23  24
ENDBRANCH   1  23
TORSDOF 6
ENDMDL
