MODEL 1
REMARK VINA RESULT:      -8.3      0.000      0.000
REMARK  Name = 
REMARK  7 active torsions:
REMARK  status: ('A' for Active; 'I' for Inactive)
REMARK    1  A    between atoms: C_4  and  C_5
REMARK    2  A    between atoms: C_8  and  O_9
REMARK    3  A    between atoms: C_15  and  O_16
REMARK    4  A    between atoms: C_17  and  C_18
REMARK    5  A    between atoms: C_21  and  O_22
REMARK    6  A    between atoms: C_23  and  O_24
REMARK    7  A    between atoms: C_26  and  O_27
REMARK                            x       y       z     vdW  Elec       q    Type
REMARK                         _______ _______ _______ _____ _____    ______ ____
ROOT
ATOM      1  O   UNL     1       0.146  10.404  17.546  0.00  0.00    +0.000 OA
ATOM      2  C   UNL     1       0.707   9.663  18.339  0.00  0.00    +0.000 A 
ATOM      3  C   UNL     1       1.589   8.608  17.805  0.00  0.00    +0.000 A 
ATOM      4  C   UNL     1       2.189   7.768  18.651  0.00  0.00    +0.000 A 
ATOM      5  O   UNL     1       2.039   7.788  20.021  0.00  0.00    +0.000 OA
ATOM      6  C   UNL     1       1.250   8.767  20.566  0.00  0.00    +0.000 A 
ATOM      7  C   UNL     1       1.162   8.767  21.956  0.00  0.00    +0.000 A 
ATOM      8  C   UNL     1       0.392   9.732  22.605  0.00  0.00    +0.000 A 
ATOM      9  C   UNL     1      -0.307  10.748  21.905  0.00  0.00    +0.000 A 
ATOM     10  C   UNL     1      -0.174  10.721  20.484  0.00  0.00    +0.000 A 
ATOM     11  C   UNL     1       0.570   9.726  19.820  0.00  0.00    +0.000 A 
ENDROOT
BRANCH   4  12
ATOM     12  C   UNL     1       3.088   6.725  18.157  0.00  0.00    +0.000 A 
ATOM     13  C   UNL     1       4.209   7.074  17.391  0.00  0.00    +0.000 A 
ATOM     14  C   UNL     1       5.065   6.083  16.906  0.00  0.00    +0.000 A 
ATOM     15  C   UNL     1       4.795   4.749  17.190  0.00  0.00    +0.000 A 
ATOM     16  C   UNL     1       3.684   4.389  17.948  0.00  0.00    +0.000 A 
ATOM     17  C   UNL     1       2.828   5.378  18.433  0.00  0.00    +0.000 A 
BRANCH  15  18
ATOM     18  O   UNL     1       5.603   3.748  16.737  0.00  0.00    +0.000 OA
ATOM     19  H   UNL     1       5.503   3.681  15.773  0.00  0.00    +0.000 HD
ENDBRANCH  15  18
ENDBRANCH   4  12
BRANCH   9  20
ATOM     20  C   UNL     1      -1.112  11.787  22.623  0.00  0.00    +0.000 A 
ATOM     21  C   UNL     1      -0.658  13.121  22.747  0.00  0.00    +0.000 A 
ATOM     22  C   UNL     1      -1.403  14.114  23.399  0.00  0.00    +0.000 A 
ATOM     23  C   UNL     1      -2.658  13.798  23.889  0.00  0.00    +0.000 A 
ATOM     24  C   UNL     1      -3.142  12.503  23.767  0.00  0.00    +0.000 A 
ATOM     25  C   UNL     1      -2.369  11.499  23.189  0.00  0.00    +0.000 A 
BRANCH  23  26
ATOM     26  O   UNL     1      -3.455  14.727  24.495  0.00  0.00    +0.000 OA
ATOM     27  H   UNL     1      -3.107  14.883  25.390  0.00  0.00    +0.000 HD
ENDBRANCH  23  26
BRANCH  24  28
ATOM     28  O   UNL     1      -4.403  12.205  24.199  0.00  0.00    +0.000 OA
ATOM     29  H   UNL     1      -4.993  12.699  23.595  0.00  0.00    +0.000 HD
ENDBRANCH  24  28
ENDBRANCH   9  20
BRANCH   8  30
ATOM     30  O   UNL     1       0.318   9.658  23.975  0.00  0.00    +0.000 OA
ATOM     31  H   UNL     1       0.178   8.738  24.251  0.00  0.00    +0.000 HD
ENDBRANCH   8  30
BRANCH  10  32
ATOM     32  O   UNL     1      -0.745  11.688  19.699  0.00  0.00    +0.000 OA
ATOM     33  H   UNL     1      -1.717  11.661  19.774  0.00  0.00    +0.000 HD
ENDBRANCH  10  32
TORSDOF 7
ENDMDL
MODEL 2
REMARK VINA RESULT:      -8.1      1.956      2.163
REMARK  Name = 
REMARK  7 active torsions:
REMARK  status: ('A' for Active; 'I' for Inactive)
REMARK    1  A    between atoms: C_4  and  C_5
REMARK    2  A    between atoms: C_8  and  O_9
REMARK    3  A    between atoms: C_15  and  O_16
REMARK    4  A    between atoms: C_17  and  C_18
REMARK    5  A    between atoms: C_21  and  O_22
REMARK    6  A    between atoms: C_23  and  O_24
REMARK    7  A    between atoms: C_26  and  O_27
REMARK                            x       y       z     vdW  Elec       q    Type
REMARK                         _______ _______ _______ _____ _____    ______ ____
ROOT
ATOM      1  O   UNL     1       1.849   9.547  17.392  0.00  0.00    +0.000 OA
ATOM      2  C   UNL     1       1.827   8.905  18.432  0.00  0.00    +0.000 A 
ATOM      3  C   UNL     1       2.480   7.583  18.449  0.00  0.00    +0.000 A 
ATOM      4  C   UNL     1       2.443   6.852  19.565  0.00  0.00    +0.000 A 
ATOM      5  O   UNL     1       1.813   7.226  20.733  0.00  0.00    +0.000 OA
ATOM      6  C   UNL     1       1.215   8.458  20.772  0.00  0.00    +0.000 A 
ATOM      7  C   UNL     1       0.626   8.804  21.987  0.00  0.00    +0.000 A 
ATOM      8  C   UNL     1       0.002  10.044  22.129  0.00  0.00    +0.000 A 
ATOM      9  C   UNL     1      -0.049  10.998  21.081  0.00  0.00    +0.000 A 
ATOM     10  C   UNL     1       0.582  10.609  19.862  0.00  0.00    +0.000 A 
ATOM     11  C   UNL     1       1.180   9.343  19.698  0.00  0.00    +0.000 A 
ENDROOT
BRANCH   4  12
ATOM     12  C   UNL     1       3.100   5.546  19.626  0.00  0.00    +0.000 A 
ATOM     13  C   UNL     1       4.386   5.385  19.090  0.00  0.00    +0.000 A 
ATOM     14  C   UNL     1       5.015   4.140  19.133  0.00  0.00    +0.000 A 
ATOM     15  C   UNL     1       4.354   3.062  19.712  0.00  0.00    +0.000 A 
ATOM     16  C   UNL     1       3.078   3.207  20.246  0.00  0.00    +0.000 A 
ATOM     17  C   UNL     1       2.448   4.452  20.203  0.00  0.00    +0.000 A 
BRANCH  15  18
ATOM     18  O   UNL     1       4.930   1.826  19.776  0.00  0.00    +0.000 OA
ATOM     19  H   UNL     1       5.778   1.902  20.242  0.00  0.00    +0.000 HD
ENDBRANCH  15  18
ENDBRANCH   4  12
BRANCH   9  20
ATOM     20  C   UNL     1      -0.707  12.331  21.263  0.00  0.00    +0.000 A 
ATOM     21  C   UNL     1      -0.035  13.412  21.880  0.00  0.00    +0.000 A 
ATOM     22  C   UNL     1      -0.625  14.672  22.044  0.00  0.00    +0.000 A 
ATOM     23  C   UNL     1      -1.890  14.893  21.530  0.00  0.00    +0.000 A 
ATOM     24  C   UNL     1      -2.571  13.860  20.901  0.00  0.00    +0.000 A 
ATOM     25  C   UNL     1      -2.015  12.585  20.809  0.00  0.00    +0.000 A 
BRANCH  23  26
ATOM     26  O   UNL     1      -2.506  16.109  21.615  0.00  0.00    +0.000 OA
ATOM     27  H   UNL     1      -3.357  16.048  21.146  0.00  0.00    +0.000 HD
ENDBRANCH  23  26
BRANCH  24  28
ATOM     28  O   UNL     1      -3.795  14.092  20.343  0.00  0.00    +0.000 OA
ATOM     29  H   UNL     1      -3.690  14.936  19.861  0.00  0.00    +0.000 HD
ENDBRANCH  24  28
ENDBRANCH   9  20
BRANCH   8  30
ATOM     30  O   UNL     1      -0.590  10.311  23.340  0.00  0.00    +0.000 OA
ATOM     31  H   UNL     1      -1.516  10.023  23.329  0.00  0.00    +0.000 HD
ENDBRANCH   8  30
BRANCH  10  32
ATOM     32  O   UNL     1       0.661  11.468  18.797  0.00  0.00    +0.000 OA
ATOM     33  H   UNL     1       1.377  11.200  18.193  0.00  0.00    +0.000 HD
ENDBRANCH  10  32
TORSDOF 7
ENDMDL
MODEL 3
REMARK VINA RESULT:      -8.1      0.594      1.297
REMARK  Name = 
REMARK  7 active torsions:
REMARK  status: ('A' for Active; 'I' for Inactive)
REMARK    1  A    between atoms: C_4  and  C_5
REMARK    2  A    between atoms: C_8  and  O_9
REMARK    3  A    between atoms: C_15  and  O_16
REMARK    4  A    between atoms: C_17  and  C_18
REMARK    5  A    between atoms: C_21  and  O_22
REMARK    6  A    between atoms: C_23  and  O_24
REMARK    7  A    between atoms: C_26  and  O_27
REMARK                            x       y       z     vdW  Elec       q    Type
REMARK                         _______ _______ _______ _____ _____    ______ ____
ROOT
ATOM      1  O   UNL     1       0.228  10.613  17.584  0.00  0.00    +0.000 OA
ATOM      2  C   UNL     1       0.715   9.824  18.380  0.00  0.00    +0.000 A 
ATOM      3  C   UNL     1       1.562   8.736  17.856  0.00  0.00    +0.000 A 
ATOM      4  C   UNL     1       2.080   7.846  18.704  0.00  0.00    +0.000 A 
ATOM      5  O   UNL     1       1.872   7.841  20.067  0.00  0.00    +0.000 OA
ATOM      6  C   UNL     1       1.113   8.847  20.603  0.00  0.00    +0.000 A 
ATOM      7  C   UNL     1       0.965   8.819  21.988  0.00  0.00    +0.000 A 
ATOM      8  C   UNL     1       0.219   9.808  22.629  0.00  0.00    +0.000 A 
ATOM      9  C   UNL     1      -0.395  10.876  21.927  0.00  0.00    +0.000 A 
ATOM     10  C   UNL     1      -0.202  10.877  20.513  0.00  0.00    +0.000 A 
ATOM     11  C   UNL     1       0.517   9.859  19.855  0.00  0.00    +0.000 A 
ENDROOT
BRANCH   4  12
ATOM     12  C   UNL     1       2.944   6.768  18.222  0.00  0.00    +0.000 A 
ATOM     13  C   UNL     1       4.071   7.070  17.445  0.00  0.00    +0.000 A 
ATOM     14  C   UNL     1       4.893   6.047  16.971  0.00  0.00    +0.000 A 
ATOM     15  C   UNL     1       4.583   4.726  17.276  0.00  0.00    +0.000 A 
ATOM     16  C   UNL     1       3.466   4.412  18.043  0.00  0.00    +0.000 A 
ATOM     17  C   UNL     1       2.644   5.434  18.518  0.00  0.00    +0.000 A 
BRANCH  15  18
ATOM     18  O   UNL     1       5.357   3.693  16.833  0.00  0.00    +0.000 OA
ATOM     19  H   UNL     1       5.678   3.194  17.602  0.00  0.00    +0.000 HD
ENDBRANCH  15  18
ENDBRANCH   4  12
BRANCH   9  20
ATOM     20  C   UNL     1      -1.175  11.940  22.638  0.00  0.00    +0.000 A 
ATOM     21  C   UNL     1      -2.505  11.722  23.066  0.00  0.00    +0.000 A 
ATOM     22  C   UNL     1      -3.247  12.696  23.748  0.00  0.00    +0.000 A 
ATOM     23  C   UNL     1      -2.641  13.897  24.072  0.00  0.00    +0.000 A 
ATOM     24  C   UNL     1      -1.330  14.137  23.682  0.00  0.00    +0.000 A 
ATOM     25  C   UNL     1      -0.620  13.199  22.936  0.00  0.00    +0.000 A 
BRANCH  23  26
ATOM     26  O   UNL     1      -3.290  14.872  24.773  0.00  0.00    +0.000 OA
ATOM     27  H   UNL     1      -4.225  14.864  24.504  0.00  0.00    +0.000 HD
ENDBRANCH  23  26
BRANCH  24  28
ATOM     28  O   UNL     1      -0.713  15.298  24.050  0.00  0.00    +0.000 OA
ATOM     29  H   UNL     1      -1.442  15.887  24.328  0.00  0.00    +0.000 HD
ENDBRANCH  24  28
ENDBRANCH   9  20
BRANCH   8  30
ATOM     30  O   UNL     1       0.082   9.705  23.992  0.00  0.00    +0.000 OA
ATOM     31  H   UNL     1       0.651  10.355  24.434  0.00  0.00    +0.000 HD
ENDBRANCH   8  30
BRANCH  10  32
ATOM     32  O   UNL     1      -0.687  11.892  19.730  0.00  0.00    +0.000 OA
ATOM     33  H   UNL     1      -1.554  12.191  20.057  0.00  0.00    +0.000 HD
ENDBRANCH  10  32
TORSDOF 7
ENDMDL
MODEL 4
REMARK VINA RESULT:      -8.0      1.893      2.348
REMARK  Name = 
REMARK  7 active torsions:
REMARK  status: ('A' for Active; 'I' for Inactive)
REMARK    1  A    between atoms: C_4  and  C_5
REMARK    2  A    between atoms: C_8  and  O_9
REMARK    3  A    between atoms: C_15  and  O_16
REMARK    4  A    between atoms: C_17  and  C_18
REMARK    5  A    between atoms: C_21  and  O_22
REMARK    6  A    between atoms: C_23  and  O_24
REMARK    7  A    between atoms: C_26  and  O_27
REMARK                            x       y       z     vdW  Elec       q    Type
REMARK                         _______ _______ _______ _____ _____    ______ ____
ROOT
ATOM      1  O   UNL     1       1.825   9.558  17.409  0.00  0.00    +0.000 OA
ATOM      2  C   UNL     1       1.813   8.912  18.447  0.00  0.00    +0.000 A 
ATOM      3  C   UNL     1       2.471   7.592  18.455  0.00  0.00    +0.000 A 
ATOM      4  C   UNL     1       2.445   6.857  19.568  0.00  0.00    +0.000 A 
ATOM      5  O   UNL     1       1.822   7.225  20.742  0.00  0.00    +0.000 OA
ATOM      6  C   UNL     1       1.220   8.454  20.790  0.00  0.00    +0.000 A 
ATOM      7  C   UNL     1       0.639   8.794  22.010  0.00  0.00    +0.000 A 
ATOM      8  C   UNL     1       0.011  10.030  22.161  0.00  0.00    +0.000 A 
ATOM      9  C   UNL     1      -0.051  10.988  21.118  0.00  0.00    +0.000 A 
ATOM     10  C   UNL     1       0.573  10.606  19.892  0.00  0.00    +0.000 A 
ATOM     11  C   UNL     1       1.174   9.343  19.720  0.00  0.00    +0.000 A 
ENDROOT
BRANCH   4  12
ATOM     12  C   UNL     1       3.107   5.553  19.620  0.00  0.00    +0.000 A 
ATOM     13  C   UNL     1       4.396   5.403  19.088  0.00  0.00    +0.000 A 
ATOM     14  C   UNL     1       5.030   4.160  19.122  0.00  0.00    +0.000 A 
ATOM     15  C   UNL     1       4.371   3.074  19.688  0.00  0.00    +0.000 A 
ATOM     16  C   UNL     1       3.091   3.208  20.216  0.00  0.00    +0.000 A 
ATOM     17  C   UNL     1       2.457   4.451  20.183  0.00  0.00    +0.000 A 
BRANCH  15  18
ATOM     18  O   UNL     1       4.951   1.840  19.742  0.00  0.00    +0.000 OA
ATOM     19  H   UNL     1       4.612   1.304  19.007  0.00  0.00    +0.000 HD
ENDBRANCH  15  18
ENDBRANCH   4  12
BRANCH   9  20
ATOM     20  C   UNL     1      -0.713  12.318  21.309  0.00  0.00    +0.000 A 
ATOM     21  C   UNL     1      -2.063  12.533  20.947  0.00  0.00    +0.000 A 
ATOM     22  C   UNL     1      -2.708  13.763  21.133  0.00  0.00    +0.000 A 
ATOM     23  C   UNL     1      -2.021  14.794  21.749  0.00  0.00    +0.000 A 
ATOM     24  C   UNL     1      -0.699  14.612  22.134  0.00  0.00    +0.000 A 
ATOM     25  C   UNL     1      -0.036  13.414  21.878  0.00  0.00    +0.000 A 
BRANCH  23  26
ATOM     26  O   UNL     1      -2.601  16.004  22.002  0.00  0.00    +0.000 OA
ATOM     27  H   UNL     1      -3.566  15.888  21.964  0.00  0.00    +0.000 HD
ENDBRANCH  23  26
BRANCH  24  28
ATOM     28  O   UNL     1      -0.039  15.609  22.794  0.00  0.00    +0.000 OA
ATOM     29  H   UNL     1      -0.413  16.435  22.429  0.00  0.00    +0.000 HD
ENDBRANCH  24  28
ENDBRANCH   9  20
BRANCH   8  30
ATOM     30  O   UNL     1      -0.573  10.291  23.377  0.00  0.00    +0.000 OA
ATOM     31  H   UNL     1      -0.951   9.478  23.747  0.00  0.00    +0.000 HD
ENDBRANCH   8  30
BRANCH  10  32
ATOM     32  O   UNL     1       0.641  11.469  18.830  0.00  0.00    +0.000 OA
ATOM     33  H   UNL     1       0.106  11.138  18.086  0.00  0.00    +0.000 HD
ENDBRANCH  10  32
TORSDOF 7
ENDMDL
MODEL 5
REMARK VINA RESULT:      -7.8      1.670      3.010
REMARK  Name = 
REMARK  7 active torsions:
REMARK  status: ('A' for Active; 'I' for Inactive)
REMARK    1  A    between atoms: C_4  and  C_5
REMARK    2  A    between atoms: C_8  and  O_9
REMARK    3  A    between atoms: C_15  and  O_16
REMARK    4  A    between atoms: C_17  and  C_18
REMARK    5  A    between atoms: C_21  and  O_22
REMARK    6  A    between atoms: C_23  and  O_24
REMARK    7  A    between atoms: C_26  and  O_27
REMARK                            x       y       z     vdW  Elec       q    Type
REMARK                         _______ _______ _______ _____ _____    ______ ____
ROOT
ATOM      1  O   UNL     1       1.511   6.398  21.134  0.00  0.00    +0.000 OA
ATOM      2  C   UNL     1       1.919   6.891  20.092  0.00  0.00    +0.000 A 
ATOM      3  C   UNL     1       2.790   6.073  19.227  0.00  0.00    +0.000 A 
ATOM      4  C   UNL     1       3.271   6.601  18.099  0.00  0.00    +0.000 A 
ATOM      5  O   UNL     1       3.034   7.888  17.667  0.00  0.00    +0.000 OA
ATOM      6  C   UNL     1       2.209   8.677  18.425  0.00  0.00    +0.000 A 
ATOM      7  C   UNL     1       1.971   9.956  17.925  0.00  0.00    +0.000 A 
ATOM      8  C   UNL     1       1.135  10.830  18.620  0.00  0.00    +0.000 A 
ATOM      9  C   UNL     1       0.486  10.468  19.828  0.00  0.00    +0.000 A 
ATOM     10  C   UNL     1       0.743   9.143  20.293  0.00  0.00    +0.000 A 
ATOM     11  C   UNL     1       1.618   8.269  19.617  0.00  0.00    +0.000 A 
ENDROOT
BRANCH   4  12
ATOM     12  C   UNL     1       4.118   5.811  17.206  0.00  0.00    +0.000 A 
ATOM     13  C   UNL     1       4.928   6.455  16.260  0.00  0.00    +0.000 A 
ATOM     14  C   UNL     1       5.730   5.708  15.395  0.00  0.00    +0.000 A 
ATOM     15  C   UNL     1       5.717   4.320  15.482  0.00  0.00    +0.000 A 
ATOM     16  C   UNL     1       4.916   3.668  16.414  0.00  0.00    +0.000 A 
ATOM     17  C   UNL     1       4.115   4.414  17.279  0.00  0.00    +0.000 A 
BRANCH  15  18
ATOM     18  O   UNL     1       6.483   3.549  14.657  0.00  0.00    +0.000 OA
ATOM     19  H   UNL     1       6.857   4.114  13.961  0.00  0.00    +0.000 HD
ENDBRANCH  15  18
ENDBRANCH   4  12
BRANCH   9  20
ATOM     20  C   UNL     1      -0.424  11.416  20.547  0.00  0.00    +0.000 A 
ATOM     21  C   UNL     1      -0.067  11.986  21.791  0.00  0.00    +0.000 A 
ATOM     22  C   UNL     1      -0.895  12.888  22.473  0.00  0.00    +0.000 A 
ATOM     23  C   UNL     1      -2.081  13.289  21.883  0.00  0.00    +0.000 A 
ATOM     24  C   UNL     1      -2.453  12.763  20.653  0.00  0.00    +0.000 A 
ATOM     25  C   UNL     1      -1.667  11.807  20.013  0.00  0.00    +0.000 A 
BRANCH  23  26
ATOM     26  O   UNL     1      -2.913  14.198  22.470  0.00  0.00    +0.000 OA
ATOM     27  H   UNL     1      -2.410  15.019  22.610  0.00  0.00    +0.000 HD
ENDBRANCH  23  26
BRANCH  24  28
ATOM     28  O   UNL     1      -3.594  13.201  20.044  0.00  0.00    +0.000 OA
ATOM     29  H   UNL     1      -4.277  12.551  20.303  0.00  0.00    +0.000 HD
ENDBRANCH  24  28
ENDBRANCH   9  20
BRANCH   8  30
ATOM     30  O   UNL     1       0.968  12.088  18.094  0.00  0.00    +0.000 OA
ATOM     31  H   UNL     1       0.048  12.211  17.810  0.00  0.00    +0.000 HD
ENDBRANCH   8  30
BRANCH  10  32
ATOM     32  O   UNL     1       0.123   8.650  21.410  0.00  0.00    +0.000 OA
ATOM     33  H   UNL     1       0.681   7.979  21.844  0.00  0.00    +0.000 HD
ENDBRANCH  10  32
TORSDOF 7
ENDMDL
MODEL 6
REMARK VINA RESULT:      -7.8      1.676      3.015
REMARK  Name = 
REMARK  7 active torsions:
REMARK  status: ('A' for Active; 'I' for Inactive)
REMARK    1  A    between atoms: C_4  and  C_5
REMARK    2  A    between atoms: C_8  and  O_9
REMARK    3  A    between atoms: C_15  and  O_16
REMARK    4  A    between atoms: C_17  and  C_18
REMARK    5  A    between atoms: C_21  and  O_22
REMARK    6  A    between atoms: C_23  and  O_24
REMARK    7  A    between atoms: C_26  and  O_27
REMARK                            x       y       z     vdW  Elec       q    Type
REMARK                         _______ _______ _______ _____ _____    ______ ____
ROOT
ATOM      1  O   UNL     1       1.408   6.548  21.161  0.00  0.00    +0.000 OA
ATOM      2  C   UNL     1       1.835   7.025  20.119  0.00  0.00    +0.000 A 
ATOM      3  C   UNL     1       2.709   6.189  19.275  0.00  0.00    +0.000 A 
ATOM      4  C   UNL     1       3.210   6.699  18.148  0.00  0.00    +0.000 A 
ATOM      5  O   UNL     1       2.992   7.984  17.699  0.00  0.00    +0.000 OA
ATOM      6  C   UNL     1       2.166   8.789  18.436  0.00  0.00    +0.000 A 
ATOM      7  C   UNL     1       1.948  10.065  17.919  0.00  0.00    +0.000 A 
ATOM      8  C   UNL     1       1.111  10.955  18.593  0.00  0.00    +0.000 A 
ATOM      9  C   UNL     1       0.443  10.613  19.796  0.00  0.00    +0.000 A 
ATOM     10  C   UNL     1       0.680   9.292  20.279  0.00  0.00    +0.000 A 
ATOM     11  C   UNL     1       1.554   8.401  19.625  0.00  0.00    +0.000 A 
ENDROOT
BRANCH   4  12
ATOM     12  C   UNL     1       4.061   5.890  17.275  0.00  0.00    +0.000 A 
ATOM     13  C   UNL     1       4.887   6.515  16.331  0.00  0.00    +0.000 A 
ATOM     14  C   UNL     1       5.693   5.750  15.486  0.00  0.00    +0.000 A 
ATOM     15  C   UNL     1       5.667   4.364  15.590  0.00  0.00    +0.000 A 
ATOM     16  C   UNL     1       4.849   3.731  16.520  0.00  0.00    +0.000 A 
ATOM     17  C   UNL     1       4.044   4.494  17.366  0.00  0.00    +0.000 A 
BRANCH  15  18
ATOM     18  O   UNL     1       6.436   3.575  14.784  0.00  0.00    +0.000 OA
ATOM     19  H   UNL     1       5.924   2.788  14.539  0.00  0.00    +0.000 HD
ENDBRANCH  15  18
ENDBRANCH   4  12
BRANCH   9  20
ATOM     20  C   UNL     1      -0.467  11.579  20.492  0.00  0.00    +0.000 A 
ATOM     21  C   UNL     1      -1.771  11.846  20.012  0.00  0.00    +0.000 A 
ATOM     22  C   UNL     1      -2.645  12.732  20.657  0.00  0.00    +0.000 A 
ATOM     23  C   UNL     1      -2.247  13.324  21.843  0.00  0.00    +0.000 A 
ATOM     24  C   UNL     1      -0.981  13.068  22.352  0.00  0.00    +0.000 A 
ATOM     25  C   UNL     1      -0.084  12.250  21.669  0.00  0.00    +0.000 A 
BRANCH  23  26
ATOM     26  O   UNL     1      -3.064  14.161  22.546  0.00  0.00    +0.000 OA
ATOM     27  H   UNL     1      -2.555  14.521  23.293  0.00  0.00    +0.000 HD
ENDBRANCH  23  26
BRANCH  24  28
ATOM     28  O   UNL     1      -0.609  13.606  23.550  0.00  0.00    +0.000 OA
ATOM     29  H   UNL     1      -1.357  14.181  23.805  0.00  0.00    +0.000 HD
ENDBRANCH  24  28
ENDBRANCH   9  20
BRANCH   8  30
ATOM     30  O   UNL     1       0.964  12.209  18.050  0.00  0.00    +0.000 OA
ATOM     31  H   UNL     1       0.588  12.815  18.708  0.00  0.00    +0.000 HD
ENDBRANCH   8  30
BRANCH  10  32
ATOM     32  O   UNL     1       0.039   8.817  21.394  0.00  0.00    +0.000 OA
ATOM     33  H   UNL     1      -0.573   9.488  21.748  0.00  0.00    +0.000 HD
ENDBRANCH  10  32
TORSDOF 7
ENDMDL
MODEL 7
REMARK VINA RESULT:      -7.7      1.555      9.319
REMARK  Name = 
REMARK  7 active torsions:
REMARK  status: ('A' for Active; 'I' for Inactive)
REMARK    1  A    between atoms: C_4  and  C_5
REMARK    2  A    between atoms: C_8  and  O_9
REMARK    3  A    between atoms: C_15  and  O_16
REMARK    4  A    between atoms: C_17  and  C_18
REMARK    5  A    between atoms: C_21  and  O_22
REMARK    6  A    between atoms: C_23  and  O_24
REMARK    7  A    between atoms: C_26  and  O_27
REMARK                            x       y       z     vdW  Elec       q    Type
REMARK                         _______ _______ _______ _____ _____    ______ ____
ROOT
ATOM      1  O   UNL     1       1.807  10.700  17.402  0.00  0.00    +0.000 OA
ATOM      2  C   UNL     1       1.404  10.199  18.442  0.00  0.00    +0.000 A 
ATOM      3  C   UNL     1       0.472  10.980  19.278  0.00  0.00    +0.000 A 
ATOM      4  C   UNL     1       0.043  10.465  20.432  0.00  0.00    +0.000 A 
ATOM      5  O   UNL     1       0.419   9.238  20.937  0.00  0.00    +0.000 OA
ATOM      6  C   UNL     1       1.263   8.467  20.184  0.00  0.00    +0.000 A 
ATOM      7  C   UNL     1       1.583   7.221  20.721  0.00  0.00    +0.000 A 
ATOM      8  C   UNL     1       2.427   6.358  20.022  0.00  0.00    +0.000 A 
ATOM      9  C   UNL     1       2.974   6.684  18.756  0.00  0.00    +0.000 A 
ATOM     10  C   UNL     1       2.606   7.961  18.235  0.00  0.00    +0.000 A 
ATOM     11  C   UNL     1       1.786   8.854  18.953  0.00  0.00    +0.000 A 
ENDROOT
BRANCH   4  12
ATOM     12  C   UNL     1      -0.901  11.201  21.273  0.00  0.00    +0.000 A 
ATOM     13  C   UNL     1      -1.732  12.175  20.704  0.00  0.00    +0.000 A 
ATOM     14  C   UNL     1      -2.627  12.890  21.503  0.00  0.00    +0.000 A 
ATOM     15  C   UNL     1      -2.684  12.626  22.867  0.00  0.00    +0.000 A 
ATOM     16  C   UNL     1      -1.862  11.664  23.445  0.00  0.00    +0.000 A 
ATOM     17  C   UNL     1      -0.969  10.948  22.647  0.00  0.00    +0.000 A 
BRANCH  15  18
ATOM     18  O   UNL     1      -3.542  13.301  23.686  0.00  0.00    +0.000 OA
ATOM     19  H   UNL     1      -4.108  12.657  24.141  0.00  0.00    +0.000 HD
ENDBRANCH  15  18
ENDBRANCH   4  12
BRANCH   9  20
ATOM     20  C   UNL     1       3.863   5.733  18.014  0.00  0.00    +0.000 A 
ATOM     21  C   UNL     1       3.358   4.543  17.439  0.00  0.00    +0.000 A 
ATOM     22  C   UNL     1       4.167   3.648  16.726  0.00  0.00    +0.000 A 
ATOM     23  C   UNL     1       5.498   3.964  16.520  0.00  0.00    +0.000 A 
ATOM     24  C   UNL     1       6.021   5.134  17.054  0.00  0.00    +0.000 A 
ATOM     25  C   UNL     1       5.236   5.984  17.829  0.00  0.00    +0.000 A 
BRANCH  23  26
ATOM     26  O   UNL     1       6.332   3.160  15.797  0.00  0.00    +0.000 OA
ATOM     27  H   UNL     1       7.009   3.724  15.384  0.00  0.00    +0.000 HD
ENDBRANCH  23  26
BRANCH  24  28
ATOM     28  O   UNL     1       7.319   5.476  16.802  0.00  0.00    +0.000 OA
ATOM     29  H   UNL     1       7.379   5.514  15.827  0.00  0.00    +0.000 HD
ENDBRANCH  24  28
ENDBRANCH   9  20
BRANCH   8  30
ATOM     30  O   UNL     1       2.731   5.159  20.621  0.00  0.00    +0.000 OA
ATOM     31  H   UNL     1       3.689   5.091  20.763  0.00  0.00    +0.000 HD
ENDBRANCH   8  30
BRANCH  10  32
ATOM     32  O   UNL     1       3.014   8.365  16.991  0.00  0.00    +0.000 OA
ATOM     33  H   UNL     1       3.969   8.209  16.877  0.00  0.00    +0.000 HD
ENDBRANCH  10  32
TORSDOF 7
ENDMDL
MODEL 8
REMARK VINA RESULT:      -7.6      2.390      9.169
REMARK  Name = 
REMARK  7 active torsions:
REMARK  status: ('A' for Active; 'I' for Inactive)
REMARK    1  A    between atoms: C_4  and  C_5
REMARK    2  A    between atoms: C_8  and  O_9
REMARK    3  A    between atoms: C_15  and  O_16
REMARK    4  A    between atoms: C_17  and  C_18
REMARK    5  A    between atoms: C_21  and  O_22
REMARK    6  A    between atoms: C_23  and  O_24
REMARK    7  A    between atoms: C_26  and  O_27
REMARK                            x       y       z     vdW  Elec       q    Type
REMARK                         _______ _______ _______ _____ _____    ______ ____
ROOT
ATOM      1  O   UNL     1       0.145   8.950  22.282  0.00  0.00    +0.000 OA
ATOM      2  C   UNL     1       0.440   9.598  21.289  0.00  0.00    +0.000 A 
ATOM      3  C   UNL     1       0.042  11.018  21.238  0.00  0.00    +0.000 A 
ATOM      4  C   UNL     1       0.327  11.737  20.150  0.00  0.00    +0.000 A 
ATOM      5  O   UNL     1       0.963  11.251  19.028  0.00  0.00    +0.000 OA
ATOM      6  C   UNL     1       1.374   9.944  19.039  0.00  0.00    +0.000 A 
ATOM      7  C   UNL     1       2.045   9.513  17.897  0.00  0.00    +0.000 A 
ATOM      8  C   UNL     1       2.513   8.201  17.818  0.00  0.00    +0.000 A 
ATOM      9  C   UNL     1       2.353   7.269  18.874  0.00  0.00    +0.000 A 
ATOM     10  C   UNL     1       1.676   7.758  20.032  0.00  0.00    +0.000 A 
ATOM     11  C   UNL     1       1.166   9.070  20.102  0.00  0.00    +0.000 A 
ENDROOT
BRANCH   4  12
ATOM     12  C   UNL     1      -0.031  13.153  20.076  0.00  0.00    +0.000 A 
ATOM     13  C   UNL     1       0.347  13.911  18.958  0.00  0.00    +0.000 A 
ATOM     14  C   UNL     1       0.020  15.266  18.885  0.00  0.00    +0.000 A 
ATOM     15  C   UNL     1      -0.683  15.856  19.930  0.00  0.00    +0.000 A 
ATOM     16  C   UNL     1      -1.061  15.116  21.046  0.00  0.00    +0.000 A 
ATOM     17  C   UNL     1      -0.735  13.761  21.120  0.00  0.00    +0.000 A 
BRANCH  15  18
ATOM     18  O   UNL     1      -1.023  17.177  19.902  0.00  0.00    +0.000 OA
ATOM     19  H   UNL     1      -1.244  17.422  18.989  0.00  0.00    +0.000 HD
ENDBRANCH  15  18
ENDBRANCH   4  12
BRANCH   9  20
ATOM     20  C   UNL     1       2.881   5.870  18.776  0.00  0.00    +0.000 A 
ATOM     21  C   UNL     1       2.074   4.804  18.316  0.00  0.00    +0.000 A 
ATOM     22  C   UNL     1       2.553   3.492  18.200  0.00  0.00    +0.000 A 
ATOM     23  C   UNL     1       3.882   3.234  18.486  0.00  0.00    +0.000 A 
ATOM     24  C   UNL     1       4.707   4.262  18.922  0.00  0.00    +0.000 A 
ATOM     25  C   UNL     1       4.210   5.549  19.113  0.00  0.00    +0.000 A 
BRANCH  23  26
ATOM     26  O   UNL     1       4.426   1.989  18.351  0.00  0.00    +0.000 OA
ATOM     27  H   UNL     1       5.367   2.094  18.130  0.00  0.00    +0.000 HD
ENDBRANCH  23  26
BRANCH  24  28
ATOM     28  O   UNL     1       6.032   4.021  19.149  0.00  0.00    +0.000 OA
ATOM     29  H   UNL     1       6.041   3.319  19.829  0.00  0.00    +0.000 HD
ENDBRANCH  24  28
ENDBRANCH   9  20
BRANCH   8  30
ATOM     30  O   UNL     1       3.136   7.828  16.652  0.00  0.00    +0.000 OA
ATOM     31  H   UNL     1       3.851   8.450  16.442  0.00  0.00    +0.000 HD
ENDBRANCH   8  30
BRANCH  10  32
ATOM     32  O   UNL     1       1.519   6.976  21.146  0.00  0.00    +0.000 OA
ATOM     33  H   UNL     1       0.795   6.336  21.015  0.00  0.00    +0.000 HD
ENDBRANCH  10  32
TORSDOF 7
ENDMDL
MODEL 9
REMARK VINA RESULT:      -7.6      1.227      9.035
REMARK  Name = 
REMARK  7 active torsions:
REMARK  status: ('A' for Active; 'I' for Inactive)
REMARK    1  A    between atoms: C_4  and  C_5
REMARK    2  A    between atoms: C_8  and  O_9
REMARK    3  A    between atoms: C_15  and  O_16
REMARK    4  A    between atoms: C_17  and  C_18
REMARK    5  A    between atoms: C_21  and  O_22
REMARK    6  A    between atoms: C_23  and  O_24
REMARK    7  A    between atoms: C_26  and  O_27
REMARK                            x       y       z     vdW  Elec       q    Type
REMARK                         _______ _______ _______ _____ _____    ______ ____
ROOT
ATOM      1  O   UNL     1       0.786  11.902  18.150  0.00  0.00    +0.000 OA
ATOM      2  C   UNL     1       0.529  11.404  19.236  0.00  0.00    +0.000 A 
ATOM      3  C   UNL     1      -0.244  12.203  20.205  0.00  0.00    +0.000 A 
ATOM      4  C   UNL     1      -0.510  11.690  21.408  0.00  0.00    +0.000 A 
ATOM      5  O   UNL     1      -0.098  10.450  21.846  0.00  0.00    +0.000 OA
ATOM      6  C   UNL     1       0.601   9.661  20.971  0.00  0.00    +0.000 A 
ATOM      7  C   UNL     1       0.961   8.402  21.450  0.00  0.00    +0.000 A 
ATOM      8  C   UNL     1       1.665   7.522  20.628  0.00  0.00    +0.000 A 
ATOM      9  C   UNL     1       2.025   7.843  19.295  0.00  0.00    +0.000 A 
ATOM     10  C   UNL     1       1.621   9.134  18.841  0.00  0.00    +0.000 A 
ATOM     11  C   UNL     1       0.944  10.044  19.678  0.00  0.00    +0.000 A 
ENDROOT
BRANCH   4  12
ATOM     12  C   UNL     1      -1.295  12.445  22.386  0.00  0.00    +0.000 A 
ATOM     13  C   UNL     1      -0.833  13.687  22.843  0.00  0.00    +0.000 A 
ATOM     14  C   UNL     1      -1.570  14.408  23.785  0.00  0.00    +0.000 A 
ATOM     15  C   UNL     1      -2.765  13.882  24.263  0.00  0.00    +0.000 A 
ATOM     16  C   UNL     1      -3.233  12.650  23.819  0.00  0.00    +0.000 A 
ATOM     17  C   UNL     1      -2.498  11.929  22.878  0.00  0.00    +0.000 A 
BRANCH  15  18
ATOM     18  O   UNL     1      -3.518  14.551  25.184  0.00  0.00    +0.000 OA
ATOM     19  H   UNL     1      -3.158  15.446  25.289  0.00  0.00    +0.000 HD
ENDBRANCH  15  18
ENDBRANCH   4  12
BRANCH   9  20
ATOM     20  C   UNL     1       2.764   6.874  18.424  0.00  0.00    +0.000 A 
ATOM     21  C   UNL     1       4.007   7.206  17.835  0.00  0.00    +0.000 A 
ATOM     22  C   UNL     1       4.724   6.309  17.032  0.00  0.00    +0.000 A 
ATOM     23  C   UNL     1       4.234   5.027  16.854  0.00  0.00    +0.000 A 
ATOM     24  C   UNL     1       3.026   4.662  17.433  0.00  0.00    +0.000 A 
ATOM     25  C   UNL     1       2.275   5.579  18.167  0.00  0.00    +0.000 A 
BRANCH  23  26
ATOM     26  O   UNL     1       4.902   4.089  16.121  0.00  0.00    +0.000 OA
ATOM     27  H   UNL     1       5.396   3.522  16.738  0.00  0.00    +0.000 HD
ENDBRANCH  23  26
BRANCH  24  28
ATOM     28  O   UNL     1       2.570   3.381  17.307  0.00  0.00    +0.000 OA
ATOM     29  H   UNL     1       3.374   2.848  17.152  0.00  0.00    +0.000 HD
ENDBRANCH  24  28
ENDBRANCH   9  20
BRANCH   8  30
ATOM     30  O   UNL     1       2.021   6.310  21.170  0.00  0.00    +0.000 OA
ATOM     31  H   UNL     1       2.912   6.363  21.549  0.00  0.00    +0.000 HD
ENDBRANCH   8  30
BRANCH  10  32
ATOM     32  O   UNL     1       1.849   9.537  17.552  0.00  0.00    +0.000 OA
ATOM     33  H   UNL     1       1.819  10.509  17.487  0.00  0.00    +0.000 HD
ENDBRANCH  10  32
TORSDOF 7
ENDMDL
