MODEL 1
REMARK VINA RESULT:      -6.9      0.000      0.000
REMARK  Name = 
REMARK  6 active torsions:
REMARK  status: ('A' for Active; 'I' for Inactive)
REMARK    1  A    between atoms: C_2  and  C_15
REMARK    2  A    between atoms: N_3  and  C_4
REMARK    3  A    between atoms: C_4  and  N_6
REMARK    4  A    between atoms: N_6  and  C_7
REMARK    5  A    between atoms: C_7  and  C_8
REMARK    6  A    between atoms: C_8  and  N_9
REMARK                            x       y       z     vdW  Elec       q    Type
REMARK                         _______ _______ _______ _____ _____    ______ ____
ROOT
ATOM      1  C   UNL     1       6.924   4.805  18.078  0.00  0.00    +0.000 C 
ATOM      2  S   UNL     1       7.840   5.912  18.924  0.00  0.00    +0.000 S 
ENDROOT
BRANCH   1   5
ATOM      3  O   UNL     1       5.233   5.991  15.922  0.00  0.00    +0.000 OA
ATOM      4  C   UNL     1       6.141   5.186  15.735  0.00  0.00    +0.000 C 
ATOM      5  N   UNL     1       6.911   4.575  16.719  0.00  0.00    +0.000 N 
ATOM      6  H   UNL     1       7.474   3.805  16.402  0.00  0.00    +0.000 HD
BRANCH   4   7
ATOM      7  C   UNL     1       6.399   4.728  14.345  0.00  0.00    +0.000 A 
ATOM      8  C   UNL     1       5.617   3.747  13.724  0.00  0.00    +0.000 A 
ATOM      9  C   UNL     1       5.916   3.344  12.421  0.00  0.00    +0.000 A 
ATOM     10  C   UNL     1       6.994   3.914  11.741  0.00  0.00    +0.000 A 
ATOM     11  C   UNL     1       7.780   4.881  12.359  0.00  0.00    +0.000 A 
ATOM     12  C   UNL     1       7.489   5.290  13.660  0.00  0.00    +0.000 A 
ENDBRANCH   4   7
ENDBRANCH   1   5
BRANCH   1  13
ATOM     13  N   UNL     1       6.078   4.027  18.821  0.00  0.00    +0.000 N 
ATOM     14  H   UNL     1       6.399   3.068  18.914  0.00  0.00    +0.000 HD
BRANCH  13  15
ATOM     15  C   UNL     1       4.768   4.343  19.368  0.00  0.00    +0.000 C 
BRANCH  15  16
ATOM     16  C   UNL     1       3.644   3.593  18.623  0.00  0.00    +0.000 C 
BRANCH  16  17
ATOM     17  N   UNL     1       3.182   2.375  19.309  0.00  0.00    +0.000 NA
ATOM     18  C   UNL     1       1.766   2.040  19.027  0.00  0.00    +0.000 C 
ATOM     19  C   UNL     1       0.759   2.998  19.684  0.00  0.00    +0.000 C 
ATOM     20  O   UNL     1       0.940   3.037  21.103  0.00  0.00    +0.000 OA
ATOM     21  C   UNL     1       2.277   3.430  21.438  0.00  0.00    +0.000 C 
ATOM     22  C   UNL     1       3.321   2.506  20.781  0.00  0.00    +0.000 C 
ENDBRANCH  16  17
ENDBRANCH  15  16
ENDBRANCH  13  15
ENDBRANCH   1  13
TORSDOF 6
ENDMDL
MODEL 2
REMARK VINA RESULT:      -6.9      1.242      1.613
REMARK  Name = 
REMARK  6 active torsions:
REMARK  status: ('A' for Active; 'I' for Inactive)
REMARK    1  A    between atoms: C_2  and  C_15
REMARK    2  A    between atoms: N_3  and  C_4
REMARK    3  A    between atoms: C_4  and  N_6
REMARK    4  A    between atoms: N_6  and  C_7
REMARK    5  A    between atoms: C_7  and  C_8
REMARK    6  A    between atoms: C_8  and  N_9
REMARK                            x       y       z     vdW  Elec       q    Type
REMARK                         _______ _______ _______ _____ _____    ______ ____
ROOT
ATOM      1  C   UNL     1       7.076   5.052  18.035  0.00  0.00    +0.000 C 
ATOM      2  S   UNL     1       7.938   6.290  18.746  0.00  0.00    +0.000 S 
ENDROOT
BRANCH   1   5
ATOM      3  O   UNL     1       5.566   6.376  15.826  0.00  0.00    +0.000 OA
ATOM      4  C   UNL     1       6.312   5.412  15.682  0.00  0.00    +0.000 C 
ATOM      5  N   UNL     1       6.987   4.740  16.696  0.00  0.00    +0.000 N 
ATOM      6  H   UNL     1       7.396   3.862  16.425  0.00  0.00    +0.000 HD
BRANCH   4   7
ATOM      7  C   UNL     1       6.449   4.825  14.324  0.00  0.00    +0.000 A 
ATOM      8  C   UNL     1       5.570   3.847  13.841  0.00  0.00    +0.000 A 
ATOM      9  C   UNL     1       5.757   3.319  12.562  0.00  0.00    +0.000 A 
ATOM     10  C   UNL     1       6.817   3.761  11.768  0.00  0.00    +0.000 A 
ATOM     11  C   UNL     1       7.698   4.725  12.249  0.00  0.00    +0.000 A 
ATOM     12  C   UNL     1       7.520   5.258  13.525  0.00  0.00    +0.000 A 
ENDBRANCH   4   7
ENDBRANCH   1   5
BRANCH   1  13
ATOM     13  N   UNL     1       6.367   4.245  18.882  0.00  0.00    +0.000 N 
ATOM     14  H   UNL     1       6.879   3.413  19.160  0.00  0.00    +0.000 HD
BRANCH  13  15
ATOM     15  C   UNL     1       4.984   4.349  19.322  0.00  0.00    +0.000 C 
BRANCH  15  16
ATOM     16  C   UNL     1       4.247   2.998  19.207  0.00  0.00    +0.000 C 
BRANCH  16  17
ATOM     17  N   UNL     1       3.662   2.747  17.880  0.00  0.00    +0.000 NA
ATOM     18  C   UNL     1       3.227   3.981  17.184  0.00  0.00    +0.000 C 
ATOM     19  C   UNL     1       1.979   4.634  17.799  0.00  0.00    +0.000 C 
ATOM     20  O   UNL     1       0.880   3.717  17.823  0.00  0.00    +0.000 OA
ATOM     21  C   UNL     1       1.219   2.530  18.550  0.00  0.00    +0.000 C 
ATOM     22  C   UNL     1       2.480   1.853  17.978  0.00  0.00    +0.000 C 
ENDBRANCH  16  17
ENDBRANCH  15  16
ENDBRANCH  13  15
ENDBRANCH   1  13
TORSDOF 6
ENDMDL
MODEL 3
REMARK VINA RESULT:      -6.9      3.955      7.135
REMARK  Name = 
REMARK  6 active torsions:
REMARK  status: ('A' for Active; 'I' for Inactive)
REMARK    1  A    between atoms: C_2  and  C_15
REMARK    2  A    between atoms: N_3  and  C_4
REMARK    3  A    between atoms: C_4  and  N_6
REMARK    4  A    between atoms: N_6  and  C_7
REMARK    5  A    between atoms: C_7  and  C_8
REMARK    6  A    between atoms: C_8  and  N_9
REMARK                            x       y       z     vdW  Elec       q    Type
REMARK                         _______ _______ _______ _____ _____    ______ ____
ROOT
ATOM      1  C   UNL     1       2.655   4.201  18.476  0.00  0.00    +0.000 C 
ATOM      2  S   UNL     1       1.704   2.836  18.347  0.00  0.00    +0.000 S 
ENDROOT
BRANCH   1   5
ATOM      3  O   UNL     1       3.613   6.853  17.493  0.00  0.00    +0.000 OA
ATOM      4  C   UNL     1       2.700   6.694  18.298  0.00  0.00    +0.000 C 
ATOM      5  N   UNL     1       2.266   5.478  18.816  0.00  0.00    +0.000 N 
ATOM      6  H   UNL     1       1.643   5.549  19.602  0.00  0.00    +0.000 HD
BRANCH   4   7
ATOM      7  C   UNL     1       2.045   7.901  18.865  0.00  0.00    +0.000 A 
ATOM      8  C   UNL     1       1.656   7.979  20.208  0.00  0.00    +0.000 A 
ATOM      9  C   UNL     1       1.030   9.134  20.682  0.00  0.00    +0.000 A 
ATOM     10  C   UNL     1       0.787  10.205  19.820  0.00  0.00    +0.000 A 
ATOM     11  C   UNL     1       1.162  10.126  18.482  0.00  0.00    +0.000 A 
ATOM     12  C   UNL     1       1.789   8.978  18.000  0.00  0.00    +0.000 A 
ENDBRANCH   4   7
ENDBRANCH   1   5
BRANCH   1  13
ATOM     13  N   UNL     1       3.987   4.036  18.211  0.00  0.00    +0.000 N 
ATOM     14  H   UNL     1       4.182   3.904  17.222  0.00  0.00    +0.000 HD
BRANCH  13  15
ATOM     15  C   UNL     1       5.107   3.903  19.130  0.00  0.00    +0.000 C 
BRANCH  15  16
ATOM     16  C   UNL     1       5.906   5.219  19.248  0.00  0.00    +0.000 C 
BRANCH  16  17
ATOM     17  N   UNL     1       7.300   5.115  18.784  0.00  0.00    +0.000 NA
ATOM     18  C   UNL     1       8.010   6.415  18.754  0.00  0.00    +0.000 C 
ATOM     19  C   UNL     1       7.530   7.360  17.641  0.00  0.00    +0.000 C 
ATOM     20  O   UNL     1       7.660   6.744  16.355  0.00  0.00    +0.000 OA
ATOM     21  C   UNL     1       6.929   5.513  16.300  0.00  0.00    +0.000 C 
ATOM     22  C   UNL     1       7.365   4.543  17.415  0.00  0.00    +0.000 C 
ENDBRANCH  16  17
ENDBRANCH  15  16
ENDBRANCH  13  15
ENDBRANCH   1  13
TORSDOF 6
ENDMDL
MODEL 4
REMARK VINA RESULT:      -6.9      1.249      1.539
REMARK  Name = 
REMARK  6 active torsions:
REMARK  status: ('A' for Active; 'I' for Inactive)
REMARK    1  A    between atoms: C_2  and  C_15
REMARK    2  A    between atoms: N_3  and  C_4
REMARK    3  A    between atoms: C_4  and  N_6
REMARK    4  A    between atoms: N_6  and  C_7
REMARK    5  A    between atoms: C_7  and  C_8
REMARK    6  A    between atoms: C_8  and  N_9
REMARK                            x       y       z     vdW  Elec       q    Type
REMARK                         _______ _______ _______ _____ _____    ______ ____
ROOT
ATOM      1  C   UNL     1       7.173   5.022  18.017  0.00  0.00    +0.000 C 
ATOM      2  S   UNL     1       8.030   6.114  18.942  0.00  0.00    +0.000 S 
ENDROOT
BRANCH   1   5
ATOM      3  O   UNL     1       5.107   3.927  16.160  0.00  0.00    +0.000 OA
ATOM      4  C   UNL     1       6.179   4.408  15.807  0.00  0.00    +0.000 C 
ATOM      5  N   UNL     1       7.185   4.876  16.647  0.00  0.00    +0.000 N 
ATOM      6  H   UNL     1       8.066   5.054  16.198  0.00  0.00    +0.000 HD
BRANCH   4   7
ATOM      7  C   UNL     1       6.505   4.411  14.357  0.00  0.00    +0.000 A 
ATOM      8  C   UNL     1       5.835   3.595  13.438  0.00  0.00    +0.000 A 
ATOM      9  C   UNL     1       6.194   3.629  12.089  0.00  0.00    +0.000 A 
ATOM     10  C   UNL     1       7.221   4.471  11.658  0.00  0.00    +0.000 A 
ATOM     11  C   UNL     1       7.897   5.276  12.570  0.00  0.00    +0.000 A 
ATOM     12  C   UNL     1       7.545   5.249  13.919  0.00  0.00    +0.000 A 
ENDBRANCH   4   7
ENDBRANCH   1   5
BRANCH   1  13
ATOM     13  N   UNL     1       6.353   4.165  18.699  0.00  0.00    +0.000 N 
ATOM     14  H   UNL     1       6.558   3.187  18.513  0.00  0.00    +0.000 HD
BRANCH  13  15
ATOM     15  C   UNL     1       5.191   4.453  19.525  0.00  0.00    +0.000 C 
BRANCH  15  16
ATOM     16  C   UNL     1       4.290   3.211  19.694  0.00  0.00    +0.000 C 
BRANCH  16  17
ATOM     17  N   UNL     1       2.913   3.523  20.108  0.00  0.00    +0.000 NA
ATOM     18  C   UNL     1       1.935   2.468  19.751  0.00  0.00    +0.000 C 
ATOM     19  C   UNL     1       1.643   2.375  18.245  0.00  0.00    +0.000 C 
ATOM     20  O   UNL     1       1.163   3.626  17.739  0.00  0.00    +0.000 OA
ATOM     21  C   UNL     1       2.105   4.675  17.991  0.00  0.00    +0.000 C 
ATOM     22  C   UNL     1       2.443   4.789  19.490  0.00  0.00    +0.000 C 
ENDBRANCH  16  17
ENDBRANCH  15  16
ENDBRANCH  13  15
ENDBRANCH   1  13
TORSDOF 6
ENDMDL
MODEL 5
REMARK VINA RESULT:      -6.9      3.996      7.150
REMARK  Name = 
REMARK  6 active torsions:
REMARK  status: ('A' for Active; 'I' for Inactive)
REMARK    1  A    between atoms: C_2  and  C_15
REMARK    2  A    between atoms: N_3  and  C_4
REMARK    3  A    between atoms: C_4  and  N_6
REMARK    4  A    between atoms: N_6  and  C_7
REMARK    5  A    between atoms: C_7  and  C_8
REMARK    6  A    between atoms: C_8  and  N_9
REMARK                            x       y       z     vdW  Elec       q    Type
REMARK                         _______ _______ _______ _____ _____    ______ ____
ROOT
ATOM      1  C   UNL     1       2.645   4.290  18.641  0.00  0.00    +0.000 C 
ATOM      2  S   UNL     1       1.735   2.901  18.801  0.00  0.00    +0.000 S 
ENDROOT
BRANCH   1   5
ATOM      3  O   UNL     1       3.643   6.858  17.491  0.00  0.00    +0.000 OA
ATOM      4  C   UNL     1       2.712   6.764  18.286  0.00  0.00    +0.000 C 
ATOM      5  N   UNL     1       2.258   5.591  18.880  0.00  0.00    +0.000 N 
ATOM      6  H   UNL     1       1.620   5.721  19.647  0.00  0.00    +0.000 HD
BRANCH   4   7
ATOM      7  C   UNL     1       2.054   8.012  18.751  0.00  0.00    +0.000 A 
ATOM      8  C   UNL     1       1.881   9.122  17.915  0.00  0.00    +0.000 A 
ATOM      9  C   UNL     1       1.269  10.275  18.412  0.00  0.00    +0.000 A 
ATOM     10  C   UNL     1       0.835  10.323  19.738  0.00  0.00    +0.000 A 
ATOM     11  C   UNL     1       1.016   9.225  20.575  0.00  0.00    +0.000 A 
ATOM     12  C   UNL     1       1.625   8.070  20.087  0.00  0.00    +0.000 A 
ENDBRANCH   4   7
ENDBRANCH   1   5
BRANCH   1  13
ATOM     13  N   UNL     1       3.935   4.121  18.218  0.00  0.00    +0.000 N 
ATOM     14  H   UNL     1       4.021   4.095  17.206  0.00  0.00    +0.000 HD
BRANCH  13  15
ATOM     15  C   UNL     1       5.138   3.858  18.991  0.00  0.00    +0.000 C 
BRANCH  15  16
ATOM     16  C   UNL     1       5.938   5.151  19.257  0.00  0.00    +0.000 C 
BRANCH  16  17
ATOM     17  N   UNL     1       7.333   5.098  18.787  0.00  0.00    +0.000 NA
ATOM     18  C   UNL     1       7.993   6.424  18.748  0.00  0.00    +0.000 C 
ATOM     19  C   UNL     1       7.473   7.345  17.633  0.00  0.00    +0.000 C 
ATOM     20  O   UNL     1       7.621   6.728  16.350  0.00  0.00    +0.000 OA
ATOM     21  C   UNL     1       6.936   5.470  16.304  0.00  0.00    +0.000 C 
ATOM     22  C   UNL     1       7.414   4.522  17.421  0.00  0.00    +0.000 C 
ENDBRANCH  16  17
ENDBRANCH  15  16
ENDBRANCH  13  15
ENDBRANCH   1  13
TORSDOF 6
ENDMDL
MODEL 6
REMARK VINA RESULT:      -6.8      1.729      2.291
REMARK  Name = 
REMARK  6 active torsions:
REMARK  status: ('A' for Active; 'I' for Inactive)
REMARK    1  A    between atoms: C_2  and  C_15
REMARK    2  A    between atoms: N_3  and  C_4
REMARK    3  A    between atoms: C_4  and  N_6
REMARK    4  A    between atoms: N_6  and  C_7
REMARK    5  A    between atoms: C_7  and  C_8
REMARK    6  A    between atoms: C_8  and  N_9
REMARK                            x       y       z     vdW  Elec       q    Type
REMARK                         _______ _______ _______ _____ _____    ______ ____
ROOT
ATOM      1  C   UNL     1       6.917   6.897  17.338  0.00  0.00    +0.000 C 
ATOM      2  S   UNL     1       7.824   8.232  17.762  0.00  0.00    +0.000 S 
ENDROOT
BRANCH   1   5
ATOM      3  O   UNL     1       7.753   4.155  16.503  0.00  0.00    +0.000 OA
ATOM      4  C   UNL     1       7.201   4.970  15.770  0.00  0.00    +0.000 C 
ATOM      5  N   UNL     1       6.848   6.272  16.111  0.00  0.00    +0.000 N 
ATOM      6  H   UNL     1       6.585   6.858  15.338  0.00  0.00    +0.000 HD
BRANCH   4   7
ATOM      7  C   UNL     1       6.966   4.596  14.352  0.00  0.00    +0.000 A 
ATOM      8  C   UNL     1       7.750   5.099  13.306  0.00  0.00    +0.000 A 
ATOM      9  C   UNL     1       7.473   4.724  11.990  0.00  0.00    +0.000 A 
ATOM     10  C   UNL     1       6.417   3.853  11.716  0.00  0.00    +0.000 A 
ATOM     11  C   UNL     1       5.630   3.358  12.752  0.00  0.00    +0.000 A 
ATOM     12  C   UNL     1       5.899   3.728  14.070  0.00  0.00    +0.000 A 
ENDBRANCH   4   7
ENDBRANCH   1   5
BRANCH   1  13
ATOM     13  N   UNL     1       6.142   6.354  18.326  0.00  0.00    +0.000 N 
ATOM     14  H   UNL     1       6.684   6.022  19.118  0.00  0.00    +0.000 HD
BRANCH  13  15
ATOM     15  C   UNL     1       4.713   6.083  18.340  0.00  0.00    +0.000 C 
BRANCH  15  16
ATOM     16  C   UNL     1       4.365   4.914  19.286  0.00  0.00    +0.000 C 
BRANCH  16  17
ATOM     17  N   UNL     1       4.689   3.586  18.739  0.00  0.00    +0.000 NA
ATOM     18  C   UNL     1       4.176   3.373  17.365  0.00  0.00    +0.000 C 
ATOM     19  C   UNL     1       2.648   3.222  17.288  0.00  0.00    +0.000 C 
ATOM     20  O   UNL     1       2.200   2.139  18.110  0.00  0.00    +0.000 OA
ATOM     21  C   UNL     1       2.604   2.329  19.472  0.00  0.00    +0.000 C 
ATOM     22  C   UNL     1       4.130   2.507  19.592  0.00  0.00    +0.000 C 
ENDBRANCH  16  17
ENDBRANCH  15  16
ENDBRANCH  13  15
ENDBRANCH   1  13
TORSDOF 6
ENDMDL
MODEL 7
REMARK VINA RESULT:      -6.7      0.952      1.767
REMARK  Name = 
REMARK  6 active torsions:
REMARK  status: ('A' for Active; 'I' for Inactive)
REMARK    1  A    between atoms: C_2  and  C_15
REMARK    2  A    between atoms: N_3  and  C_4
REMARK    3  A    between atoms: C_4  and  N_6
REMARK    4  A    between atoms: N_6  and  C_7
REMARK    5  A    between atoms: C_7  and  C_8
REMARK    6  A    between atoms: C_8  and  N_9
REMARK                            x       y       z     vdW  Elec       q    Type
REMARK                         _______ _______ _______ _____ _____    ______ ____
ROOT
ATOM      1  C   UNL     1       7.082   4.884  18.062  0.00  0.00    +0.000 C 
ATOM      2  S   UNL     1       7.918   5.966  19.018  0.00  0.00    +0.000 S 
ENDROOT
BRANCH   1   5
ATOM      3  O   UNL     1       4.919   4.714  16.011  0.00  0.00    +0.000 OA
ATOM      4  C   UNL     1       6.121   4.705  15.761  0.00  0.00    +0.000 C 
ATOM      5  N   UNL     1       7.152   4.728  16.695  0.00  0.00    +0.000 N 
ATOM      6  H   UNL     1       8.064   4.521  16.326  0.00  0.00    +0.000 HD
BRANCH   4   7
ATOM      7  C   UNL     1       6.544   4.554  14.345  0.00  0.00    +0.000 A 
ATOM      8  C   UNL     1       7.551   5.346  13.778  0.00  0.00    +0.000 A 
ATOM      9  C   UNL     1       7.897   5.171  12.436  0.00  0.00    +0.000 A 
ATOM     10  C   UNL     1       7.240   4.213  11.662  0.00  0.00    +0.000 A 
ATOM     11  C   UNL     1       6.232   3.432  12.220  0.00  0.00    +0.000 A 
ATOM     12  C   UNL     1       5.880   3.599  13.558  0.00  0.00    +0.000 A 
ENDBRANCH   4   7
ENDBRANCH   1   5
BRANCH   1  13
ATOM     13  N   UNL     1       6.216   4.048  18.712  0.00  0.00    +0.000 N 
ATOM     14  H   UNL     1       6.287   3.083  18.401  0.00  0.00    +0.000 HD
BRANCH  13  15
ATOM     15  C   UNL     1       5.160   4.362  19.663  0.00  0.00    +0.000 C 
BRANCH  15  16
ATOM     16  C   UNL     1       3.946   3.424  19.494  0.00  0.00    +0.000 C 
BRANCH  16  17
ATOM     17  N   UNL     1       2.885   3.970  18.631  0.00  0.00    +0.000 NA
ATOM     18  C   UNL     1       1.812   4.664  19.381  0.00  0.00    +0.000 C 
ATOM     19  C   UNL     1       0.907   3.719  20.188  0.00  0.00    +0.000 C 
ATOM     20  O   UNL     1       0.302   2.740  19.336  0.00  0.00    +0.000 OA
ATOM     21  C   UNL     1       1.298   1.983  18.637  0.00  0.00    +0.000 C 
ATOM     22  C   UNL     1       2.243   2.896  17.831  0.00  0.00    +0.000 C 
ENDBRANCH  16  17
ENDBRANCH  15  16
ENDBRANCH  13  15
ENDBRANCH   1  13
TORSDOF 6
ENDMDL
MODEL 8
REMARK VINA RESULT:      -6.7      1.712      2.359
REMARK  Name = 
REMARK  6 active torsions:
REMARK  status: ('A' for Active; 'I' for Inactive)
REMARK    1  A    between atoms: C_2  and  C_15
REMARK    2  A    between atoms: N_3  and  C_4
REMARK    3  A    between atoms: C_4  and  N_6
REMARK    4  A    between atoms: N_6  and  C_7
REMARK    5  A    between atoms: C_7  and  C_8
REMARK    6  A    between atoms: C_8  and  N_9
REMARK                            x       y       z     vdW  Elec       q    Type
REMARK                         _______ _______ _______ _____ _____    ______ ____
ROOT
ATOM      1  C   UNL     1       7.335   6.855  17.482  0.00  0.00    +0.000 C 
ATOM      2  S   UNL     1       7.839   8.413  17.800  0.00  0.00    +0.000 S 
ENDROOT
BRANCH   1   5
ATOM      3  O   UNL     1       7.962   4.086  16.558  0.00  0.00    +0.000 OA
ATOM      4  C   UNL     1       7.410   4.942  15.873  0.00  0.00    +0.000 C 
ATOM      5  N   UNL     1       7.153   6.255  16.254  0.00  0.00    +0.000 N 
ATOM      6  H   UNL     1       6.872   6.868  15.508  0.00  0.00    +0.000 HD
BRANCH   4   7
ATOM      7  C   UNL     1       7.064   4.605  14.469  0.00  0.00    +0.000 A 
ATOM      8  C   UNL     1       7.784   5.110  13.379  0.00  0.00    +0.000 A 
ATOM      9  C   UNL     1       7.403   4.771  12.079  0.00  0.00    +0.000 A 
ATOM     10  C   UNL     1       6.306   3.934  11.865  0.00  0.00    +0.000 A 
ATOM     11  C   UNL     1       5.581   3.439  12.946  0.00  0.00    +0.000 A 
ATOM     12  C   UNL     1       5.954   3.772  14.247  0.00  0.00    +0.000 A 
ENDBRANCH   4   7
ENDBRANCH   1   5
BRANCH   1  13
ATOM     13  N   UNL     1       7.065   6.072  18.571  0.00  0.00    +0.000 N 
ATOM     14  H   UNL     1       7.888   5.599  18.934  0.00  0.00    +0.000 HD
BRANCH  13  15
ATOM     15  C   UNL     1       5.787   5.739  19.181  0.00  0.00    +0.000 C 
BRANCH  15  16
ATOM     16  C   UNL     1       5.312   4.329  18.772  0.00  0.00    +0.000 C 
BRANCH  16  17
ATOM     17  N   UNL     1       3.942   4.292  18.234  0.00  0.00    +0.000 NA
ATOM     18  C   UNL     1       2.896   4.443  19.273  0.00  0.00    +0.000 C 
ATOM     19  C   UNL     1       2.752   3.219  20.192  0.00  0.00    +0.000 C 
ATOM     20  O   UNL     1       2.467   2.040  19.431  0.00  0.00    +0.000 OA
ATOM     21  C   UNL     1       3.488   1.801  18.455  0.00  0.00    +0.000 C 
ATOM     22  C   UNL     1       3.681   3.014  17.525  0.00  0.00    +0.000 C 
ENDBRANCH  16  17
ENDBRANCH  15  16
ENDBRANCH  13  15
ENDBRANCH   1  13
TORSDOF 6
ENDMDL
MODEL 9
REMARK VINA RESULT:      -6.7      0.967      1.445
REMARK  Name = 
REMARK  6 active torsions:
REMARK  status: ('A' for Active; 'I' for Inactive)
REMARK    1  A    between atoms: C_2  and  C_15
REMARK    2  A    between atoms: N_3  and  C_4
REMARK    3  A    between atoms: C_4  and  N_6
REMARK    4  A    between atoms: N_6  and  C_7
REMARK    5  A    between atoms: C_7  and  C_8
REMARK    6  A    between atoms: C_8  and  N_9
REMARK                            x       y       z     vdW  Elec       q    Type
REMARK                         _______ _______ _______ _____ _____    ______ ____
ROOT
ATOM      1  C   UNL     1       6.490   5.662  17.952  0.00  0.00    +0.000 C 
ATOM      2  S   UNL     1       7.641   5.763  19.155  0.00  0.00    +0.000 S 
ENDROOT
BRANCH   1   5
ATOM      3  O   UNL     1       5.048   3.740  16.179  0.00  0.00    +0.000 OA
ATOM      4  C   UNL     1       5.949   4.488  15.811  0.00  0.00    +0.000 C 
ATOM      5  N   UNL     1       6.677   5.355  16.621  0.00  0.00    +0.000 N 
ATOM      6  H   UNL     1       7.499   5.745  16.195  0.00  0.00    +0.000 HD
BRANCH   4   7
ATOM      7  C   UNL     1       6.395   4.411  14.396  0.00  0.00    +0.000 A 
ATOM      8  C   UNL     1       7.451   5.187  13.901  0.00  0.00    +0.000 A 
ATOM      9  C   UNL     1       7.816   5.084  12.558  0.00  0.00    +0.000 A 
ATOM     10  C   UNL     1       7.129   4.214  11.709  0.00  0.00    +0.000 A 
ATOM     11  C   UNL     1       6.073   3.449  12.194  0.00  0.00    +0.000 A 
ATOM     12  C   UNL     1       5.701   3.545  13.535  0.00  0.00    +0.000 A 
ENDBRANCH   4   7
ENDBRANCH   1   5
BRANCH   1  13
ATOM     13  N   UNL     1       5.200   5.917  18.327  0.00  0.00    +0.000 N 
ATOM     14  H   UNL     1       4.776   6.677  17.804  0.00  0.00    +0.000 HD
BRANCH  13  15
ATOM     15  C   UNL     1       4.423   5.352  19.420  0.00  0.00    +0.000 C 
BRANCH  15  16
ATOM     16  C   UNL     1       3.053   4.830  18.935  0.00  0.00    +0.000 C 
BRANCH  16  17
ATOM     17  N   UNL     1       2.933   3.363  18.952  0.00  0.00    +0.000 NA
ATOM     18  C   UNL     1       1.542   2.883  18.776  0.00  0.00    +0.000 C 
ATOM     19  C   UNL     1       0.637   3.143  19.991  0.00  0.00    +0.000 C 
ATOM     20  O   UNL     1       1.178   2.538  21.171  0.00  0.00    +0.000 OA
ATOM     21  C   UNL     1       2.500   3.023  21.434  0.00  0.00    +0.000 C 
ATOM     22  C   UNL     1       3.437   2.801  20.231  0.00  0.00    +0.000 C 
ENDBRANCH  16  17
ENDBRANCH  15  16
ENDBRANCH  13  15
ENDBRANCH   1  13
TORSDOF 6
ENDMDL
