MODEL 1
REMARK VINA RESULT:      -7.2      0.000      0.000
REMARK  Name = 
REMARK  11 active torsions:
REMARK  status: ('A' for Active; 'I' for Inactive)
REMARK    1  A    between atoms: C_1  and  C_2
REMARK    2  A    between atoms: C_2  and  O_3
REMARK    3  A    between atoms: O_3  and  C_4
REMARK    4  A    between atoms: C_4  and  C_6
REMARK    5  A    between atoms: C_7  and  C_8
REMARK    6  A    between atoms: C_14  and  C_15
REMARK    7  A    between atoms: C_15  and  O_17
REMARK    8  A    between atoms: O_17  and  C_18
REMARK    9  A    between atoms: C_18  and  C_19
REMARK   10  A    between atoms: C_20  and  C_21
REMARK   11  A    between atoms: C_24  and  O_25
REMARK                            x       y       z     vdW  Elec       q    Type
REMARK                         _______ _______ _______ _____ _____    ______ ____
ROOT
ATOM      1  C   UNL     1       2.307   6.589  19.636  0.00  0.00    +0.000 A 
ATOM      2  C   UNL     1       2.904   6.720  18.364  0.00  0.00    +0.000 A 
ATOM      3  C   UNL     1       2.862   7.930  17.666  0.00  0.00    +0.000 A 
ATOM      4  C   UNL     1       2.201   8.985  18.248  0.00  0.00    +0.000 A 
ATOM      5  C   UNL     1       1.577   8.872  19.481  0.00  0.00    +0.000 A 
ATOM      6  C   UNL     1       1.628   7.684  20.194  0.00  0.00    +0.000 A 
ATOM      7  C   UNL     1       1.036  10.201  19.870  0.00  0.00    +0.000 C 
ATOM      8  C   UNL     1       1.115  10.903  18.498  0.00  0.00    +0.000 C 
ATOM      9  O   UNL     1       2.126  10.238  17.696  0.00  0.00    +0.000 OA
ENDROOT
BRANCH   8  10
ATOM     10  C   UNL     1       1.393  12.395  18.518  0.00  0.00    +0.000 A 
ATOM     11  C   UNL     1       2.672  12.929  18.300  0.00  0.00    +0.000 A 
ATOM     12  C   UNL     1       2.904  14.301  18.406  0.00  0.00    +0.000 A 
ATOM     13  C   UNL     1       1.848  15.155  18.697  0.00  0.00    +0.000 A 
ATOM     14  C   UNL     1       0.562  14.659  18.865  0.00  0.00    +0.000 A 
ATOM     15  C   UNL     1       0.335  13.286  18.772  0.00  0.00    +0.000 A 
BRANCH  13  16
ATOM     16  O   UNL     1       2.040  16.498  18.829  0.00  0.00    +0.000 OA
ATOM     17  H   UNL     1       2.182  16.877  17.947  0.00  0.00    +0.000 HD
ENDBRANCH  13  16
ENDBRANCH   8  10
BRANCH   1  19
ATOM     18  C   UNL     1       1.453   4.345  20.282  0.00  0.00    +0.000 C 
ATOM     19  C   UNL     1       2.351   5.334  20.400  0.00  0.00    +0.000 C 
BRANCH  18  20
ATOM     20  C   UNL     1       1.652   3.088  21.027  0.00  0.00    +0.000 C 
ATOM     21  O   UNL     1       1.965   3.006  22.201  0.00  0.00    +0.000 OA
BRANCH  20  22
ATOM     22  O   UNL     1       1.538   2.069  20.139  0.00  0.00    +0.000 OA
BRANCH  22  24
ATOM     23  C   UNL     1       2.445   1.961  17.933  0.00  0.00    +0.000 C 
ATOM     24  C   UNL     1       1.296   2.471  18.785  0.00  0.00    +0.000 C 
ENDBRANCH  22  24
ENDBRANCH  20  22
ENDBRANCH  18  20
ENDBRANCH   1  19
BRANCH   7  25
ATOM     25  C   UNL     1      -0.391  10.265  20.329  0.00  0.00    +0.000 C 
ATOM     26  O   UNL     1      -1.377  10.323  19.608  0.00  0.00    +0.000 OA
BRANCH  25  27
ATOM     27  O   UNL     1      -0.402  10.398  21.688  0.00  0.00    +0.000 OA
BRANCH  27  28
ATOM     28  C   UNL     1      -0.625  11.723  22.189  0.00  0.00    +0.000 C 
ATOM     29  C   UNL     1      -1.903  11.701  23.010  0.00  0.00    +0.000 C 
ENDBRANCH  27  28
ENDBRANCH  25  27
ENDBRANCH   7  25
TORSDOF 9
ENDMDL
MODEL 2
REMARK VINA RESULT:      -7.1      0.823      1.252
REMARK  Name = 
REMARK  11 active torsions:
REMARK  status: ('A' for Active; 'I' for Inactive)
REMARK    1  A    between atoms: C_1  and  C_2
REMARK    2  A    between atoms: C_2  and  O_3
REMARK    3  A    between atoms: O_3  and  C_4
REMARK    4  A    between atoms: C_4  and  C_6
REMARK    5  A    between atoms: C_7  and  C_8
REMARK    6  A    between atoms: C_14  and  C_15
REMARK    7  A    between atoms: C_15  and  O_17
REMARK    8  A    between atoms: O_17  and  C_18
REMARK    9  A    between atoms: C_18  and  C_19
REMARK   10  A    between atoms: C_20  and  C_21
REMARK   11  A    between atoms: C_24  and  O_25
REMARK                            x       y       z     vdW  Elec       q    Type
REMARK                         _______ _______ _______ _____ _____    ______ ____
ROOT
ATOM      1  C   UNL     1       2.507   6.549  19.339  0.00  0.00    +0.000 A 
ATOM      2  C   UNL     1       3.175   6.801  18.120  0.00  0.00    +0.000 A 
ATOM      3  C   UNL     1       3.107   8.052  17.504  0.00  0.00    +0.000 A 
ATOM      4  C   UNL     1       2.351   9.028  18.109  0.00  0.00    +0.000 A 
ATOM      5  C   UNL     1       1.658   8.795  19.287  0.00  0.00    +0.000 A 
ATOM      6  C   UNL     1       1.732   7.564  19.922  0.00  0.00    +0.000 A 
ATOM      7  C   UNL     1       1.017  10.063  19.727  0.00  0.00    +0.000 C 
ATOM      8  C   UNL     1       1.142  10.863  18.412  0.00  0.00    +0.000 C 
ATOM      9  O   UNL     1       2.239  10.310  17.637  0.00  0.00    +0.000 OA
ENDROOT
BRANCH   8  10
ATOM     10  C   UNL     1       1.332  12.363  18.550  0.00  0.00    +0.000 A 
ATOM     11  C   UNL     1       0.273  13.234  18.846  0.00  0.00    +0.000 A 
ATOM     12  C   UNL     1       0.471  14.616  18.886  0.00  0.00    +0.000 A 
ATOM     13  C   UNL     1       1.741  15.133  18.663  0.00  0.00    +0.000 A 
ATOM     14  C   UNL     1       2.817  14.290  18.421  0.00  0.00    +0.000 A 
ATOM     15  C   UNL     1       2.614  12.911  18.368  0.00  0.00    +0.000 A 
BRANCH  13  16
ATOM     16  O   UNL     1       1.969  16.476  18.673  0.00  0.00    +0.000 OA
ATOM     17  H   UNL     1       2.720  16.666  18.089  0.00  0.00    +0.000 HD
ENDBRANCH  13  16
ENDBRANCH   8  10
BRANCH   1  19
ATOM     18  C   UNL     1       1.515   4.605  20.528  0.00  0.00    +0.000 C 
ATOM     19  C   UNL     1       2.575   5.248  20.018  0.00  0.00    +0.000 C 
BRANCH  18  20
ATOM     20  C   UNL     1       1.687   3.256  21.101  0.00  0.00    +0.000 C 
ATOM     21  O   UNL     1       1.339   2.915  22.217  0.00  0.00    +0.000 OA
BRANCH  20  22
ATOM     22  O   UNL     1       2.397   2.525  20.207  0.00  0.00    +0.000 OA
BRANCH  22  24
ATOM     23  C   UNL     1       2.374   2.165  17.847  0.00  0.00    +0.000 C 
ATOM     24  C   UNL     1       1.624   1.946  19.149  0.00  0.00    +0.000 C 
ENDBRANCH  22  24
ENDBRANCH  20  22
ENDBRANCH  18  20
ENDBRANCH   1  19
BRANCH   7  25
ATOM     25  C   UNL     1      -0.437  10.018  20.092  0.00  0.00    +0.000 C 
ATOM     26  O   UNL     1      -1.372   9.902  19.312  0.00  0.00    +0.000 OA
BRANCH  25  27
ATOM     27  O   UNL     1      -0.555  10.279  21.428  0.00  0.00    +0.000 OA
BRANCH  27  28
ATOM     28  C   UNL     1      -0.611   9.135  22.290  0.00  0.00    +0.000 C 
ATOM     29  C   UNL     1       0.304   9.399  23.473  0.00  0.00    +0.000 C 
ENDBRANCH  27  28
ENDBRANCH  25  27
ENDBRANCH   7  25
TORSDOF 9
ENDMDL
MODEL 3
REMARK VINA RESULT:      -7.1      3.568      8.455
REMARK  Name = 
REMARK  11 active torsions:
REMARK  status: ('A' for Active; 'I' for Inactive)
REMARK    1  A    between atoms: C_1  and  C_2
REMARK    2  A    between atoms: C_2  and  O_3
REMARK    3  A    between atoms: O_3  and  C_4
REMARK    4  A    between atoms: C_4  and  C_6
REMARK    5  A    between atoms: C_7  and  C_8
REMARK    6  A    between atoms: C_14  and  C_15
REMARK    7  A    between atoms: C_15  and  O_17
REMARK    8  A    between atoms: O_17  and  C_18
REMARK    9  A    between atoms: C_18  and  C_19
REMARK   10  A    between atoms: C_20  and  C_21
REMARK   11  A    between atoms: C_24  and  O_25
REMARK                            x       y       z     vdW  Elec       q    Type
REMARK                         _______ _______ _______ _____ _____    ______ ____
ROOT
ATOM      1  C   UNL     1       1.827   7.918  19.718  0.00  0.00    +0.000 A 
ATOM      2  C   UNL     1       1.949   8.922  18.733  0.00  0.00    +0.000 A 
ATOM      3  C   UNL     1       2.813   8.768  17.646  0.00  0.00    +0.000 A 
ATOM      4  C   UNL     1       3.559   7.616  17.575  0.00  0.00    +0.000 A 
ATOM      5  C   UNL     1       3.483   6.631  18.548  0.00  0.00    +0.000 A 
ATOM      6  C   UNL     1       2.615   6.759  19.621  0.00  0.00    +0.000 A 
ATOM      7  C   UNL     1       4.337   5.484  18.138  0.00  0.00    +0.000 C 
ATOM      8  C   UNL     1       5.164   6.182  17.037  0.00  0.00    +0.000 C 
ATOM      9  O   UNL     1       4.407   7.317  16.540  0.00  0.00    +0.000 OA
ENDROOT
BRANCH   8  10
ATOM     10  C   UNL     1       5.597   5.317  15.868  0.00  0.00    +0.000 A 
ATOM     11  C   UNL     1       6.802   5.527  15.179  0.00  0.00    +0.000 A 
ATOM     12  C   UNL     1       7.128   4.761  14.058  0.00  0.00    +0.000 A 
ATOM     13  C   UNL     1       6.266   3.756  13.638  0.00  0.00    +0.000 A 
ATOM     14  C   UNL     1       5.094   3.493  14.333  0.00  0.00    +0.000 A 
ATOM     15  C   UNL     1       4.762   4.267  15.445  0.00  0.00    +0.000 A 
BRANCH  13  16
ATOM     16  O   UNL     1       6.541   3.003  12.537  0.00  0.00    +0.000 OA
ATOM     17  H   UNL     1       7.004   3.559  11.890  0.00  0.00    +0.000 HD
ENDBRANCH  13  16
ENDBRANCH   8  10
BRANCH   1  19
ATOM     18  C   UNL     1       0.847   9.121  21.660  0.00  0.00    +0.000 C 
ATOM     19  C   UNL     1       0.914   8.045  20.862  0.00  0.00    +0.000 C 
BRANCH  18  20
ATOM     20  C   UNL     1      -0.178   9.179  22.719  0.00  0.00    +0.000 C 
ATOM     21  O   UNL     1      -0.999   8.310  22.955  0.00  0.00    +0.000 OA
BRANCH  20  22
ATOM     22  O   UNL     1      -0.104  10.408  23.286  0.00  0.00    +0.000 OA
BRANCH  22  24
ATOM     23  C   UNL     1      -0.889  12.364  22.164  0.00  0.00    +0.000 C 
ATOM     24  C   UNL     1      -1.264  11.230  23.102  0.00  0.00    +0.000 C 
ENDBRANCH  22  24
ENDBRANCH  20  22
ENDBRANCH  18  20
ENDBRANCH   1  19
BRANCH   7  25
ATOM     25  C   UNL     1       5.300   4.937  19.149  0.00  0.00    +0.000 C 
ATOM     26  O   UNL     1       6.162   5.573  19.740  0.00  0.00    +0.000 OA
BRANCH  25  27
ATOM     27  O   UNL     1       5.157   3.579  19.192  0.00  0.00    +0.000 OA
BRANCH  27  28
ATOM     28  C   UNL     1       3.879   3.095  19.626  0.00  0.00    +0.000 C 
ATOM     29  C   UNL     1       3.488   1.939  18.722  0.00  0.00    +0.000 C 
ENDBRANCH  27  28
ENDBRANCH  25  27
ENDBRANCH   7  25
TORSDOF 9
ENDMDL
MODEL 4
REMARK VINA RESULT:      -7.1      0.947      1.051
REMARK  Name = 
REMARK  11 active torsions:
REMARK  status: ('A' for Active; 'I' for Inactive)
REMARK    1  A    between atoms: C_1  and  C_2
REMARK    2  A    between atoms: C_2  and  O_3
REMARK    3  A    between atoms: O_3  and  C_4
REMARK    4  A    between atoms: C_4  and  C_6
REMARK    5  A    between atoms: C_7  and  C_8
REMARK    6  A    between atoms: C_14  and  C_15
REMARK    7  A    between atoms: C_15  and  O_17
REMARK    8  A    between atoms: O_17  and  C_18
REMARK    9  A    between atoms: C_18  and  C_19
REMARK   10  A    between atoms: C_20  and  C_21
REMARK   11  A    between atoms: C_24  and  O_25
REMARK                            x       y       z     vdW  Elec       q    Type
REMARK                         _______ _______ _______ _____ _____    ______ ____
ROOT
ATOM      1  C   UNL     1       2.022   6.858  19.678  0.00  0.00    +0.000 A 
ATOM      2  C   UNL     1       2.526   6.919  18.360  0.00  0.00    +0.000 A 
ATOM      3  C   UNL     1       2.530   8.118  17.643  0.00  0.00    +0.000 A 
ATOM      4  C   UNL     1       2.008   9.235  18.251  0.00  0.00    +0.000 A 
ATOM      5  C   UNL     1       1.477   9.193  19.531  0.00  0.00    +0.000 A 
ATOM      6  C   UNL     1       1.484   8.016  20.264  0.00  0.00    +0.000 A 
ATOM      7  C   UNL     1       1.082  10.569  19.933  0.00  0.00    +0.000 C 
ATOM      8  C   UNL     1       1.111  11.242  18.544  0.00  0.00    +0.000 C 
ATOM      9  O   UNL     1       1.996  10.481  17.680  0.00  0.00    +0.000 OA
ENDROOT
BRANCH   8  10
ATOM     10  C   UNL     1       1.514  12.705  18.511  0.00  0.00    +0.000 A 
ATOM     11  C   UNL     1       2.815  13.123  18.194  0.00  0.00    +0.000 A 
ATOM     12  C   UNL     1       3.169  14.473  18.252  0.00  0.00    +0.000 A 
ATOM     13  C   UNL     1       2.211  15.419  18.595  0.00  0.00    +0.000 A 
ATOM     14  C   UNL     1       0.903  15.038  18.861  0.00  0.00    +0.000 A 
ATOM     15  C   UNL     1       0.555  13.687  18.816  0.00  0.00    +0.000 A 
BRANCH  13  16
ATOM     16  O   UNL     1       2.524  16.742  18.682  0.00  0.00    +0.000 OA
ATOM     17  H   UNL     1       3.489  16.834  18.638  0.00  0.00    +0.000 HD
ENDBRANCH  13  16
ENDBRANCH   8  10
BRANCH   1  19
ATOM     18  C   UNL     1       2.777   4.545  20.183  0.00  0.00    +0.000 C 
ATOM     19  C   UNL     1       2.021   5.616  20.462  0.00  0.00    +0.000 C 
BRANCH  18  20
ATOM     20  C   UNL     1       2.767   3.388  21.098  0.00  0.00    +0.000 C 
ATOM     21  O   UNL     1       2.173   3.333  22.160  0.00  0.00    +0.000 OA
BRANCH  20  22
ATOM     22  O   UNL     1       3.624   2.466  20.594  0.00  0.00    +0.000 OA
BRANCH  22  24
ATOM     23  C   UNL     1       3.494   1.510  18.410  0.00  0.00    +0.000 C 
ATOM     24  C   UNL     1       4.009   2.680  19.230  0.00  0.00    +0.000 C 
ENDBRANCH  22  24
ENDBRANCH  20  22
ENDBRANCH  18  20
ENDBRANCH   1  19
BRANCH   7  25
ATOM     25  C   UNL     1      -0.293  10.762  20.500  0.00  0.00    +0.000 C 
ATOM     26  O   UNL     1      -1.348  10.558  19.915  0.00  0.00    +0.000 OA
BRANCH  25  27
ATOM     27  O   UNL     1      -0.176  11.346  21.729  0.00  0.00    +0.000 OA
BRANCH  27  28
ATOM     28  C   UNL     1      -0.883  10.706  22.800  0.00  0.00    +0.000 C 
ATOM     29  C   UNL     1      -0.052   9.523  23.265  0.00  0.00    +0.000 C 
ENDBRANCH  27  28
ENDBRANCH  25  27
ENDBRANCH   7  25
TORSDOF 9
ENDMDL
MODEL 5
REMARK VINA RESULT:      -7.0      0.915      1.710
REMARK  Name = 
REMARK  11 active torsions:
REMARK  status: ('A' for Active; 'I' for Inactive)
REMARK    1  A    between atoms: C_1  and  C_2
REMARK    2  A    between atoms: C_2  and  O_3
REMARK    3  A    between atoms: O_3  and  C_4
REMARK    4  A    between atoms: C_4  and  C_6
REMARK    5  A    between atoms: C_7  and  C_8
REMARK    6  A    between atoms: C_14  and  C_15
REMARK    7  A    between atoms: C_15  and  O_17
REMARK    8  A    between atoms: O_17  and  C_18
REMARK    9  A    between atoms: C_18  and  C_19
REMARK   10  A    between atoms: C_20  and  C_21
REMARK   11  A    between atoms: C_24  and  O_25
REMARK                            x       y       z     vdW  Elec       q    Type
REMARK                         _______ _______ _______ _____ _____    ______ ____
ROOT
ATOM      1  C   UNL     1       2.192   6.778  19.674  0.00  0.00    +0.000 A 
ATOM      2  C   UNL     1       2.807   6.900  18.409  0.00  0.00    +0.000 A 
ATOM      3  C   UNL     1       2.805   8.115  17.719  0.00  0.00    +0.000 A 
ATOM      4  C   UNL     1       2.165   9.185  18.300  0.00  0.00    +0.000 A 
ATOM      5  C   UNL     1       1.525   9.080  19.525  0.00  0.00    +0.000 A 
ATOM      6  C   UNL     1       1.536   7.887  20.232  0.00  0.00    +0.000 A 
ATOM      7  C   UNL     1       1.015  10.421  19.917  0.00  0.00    +0.000 C 
ATOM      8  C   UNL     1       1.129  11.129  18.550  0.00  0.00    +0.000 C 
ATOM      9  O   UNL     1       2.130  10.442  17.755  0.00  0.00    +0.000 OA
ENDROOT
BRANCH   8  10
ATOM     10  C   UNL     1       1.446  12.613  18.583  0.00  0.00    +0.000 A 
ATOM     11  C   UNL     1       0.496  13.581  18.941  0.00  0.00    +0.000 A 
ATOM     12  C   UNL     1       0.803  14.943  18.882  0.00  0.00    +0.000 A 
ATOM     13  C   UNL     1       2.075  15.343  18.496  0.00  0.00    +0.000 A 
ATOM     14  C   UNL     1       3.050  14.404  18.188  0.00  0.00    +0.000 A 
ATOM     15  C   UNL     1       2.738  13.045  18.234  0.00  0.00    +0.000 A 
BRANCH  13  16
ATOM     16  O   UNL     1       2.405  16.662  18.407  0.00  0.00    +0.000 OA
ATOM     17  H   UNL     1       1.819  17.083  17.758  0.00  0.00    +0.000 HD
ENDBRANCH  13  16
ENDBRANCH   8  10
BRANCH   1  19
ATOM     18  C   UNL     1       1.419   4.462  20.142  0.00  0.00    +0.000 C 
ATOM     19  C   UNL     1       2.194   5.518  20.430  0.00  0.00    +0.000 C 
BRANCH  18  20
ATOM     20  C   UNL     1       1.576   3.212  20.909  0.00  0.00    +0.000 C 
ATOM     21  O   UNL     1       1.754   3.140  22.112  0.00  0.00    +0.000 OA
BRANCH  20  22
ATOM     22  O   UNL     1       1.603   2.191  20.018  0.00  0.00    +0.000 OA
BRANCH  22  24
ATOM     23  C   UNL     1       2.442   2.162  17.783  0.00  0.00    +0.000 C 
ATOM     24  C   UNL     1       2.811   2.085  19.254  0.00  0.00    +0.000 C 
ENDBRANCH  22  24
ENDBRANCH  20  22
ENDBRANCH  18  20
ENDBRANCH   1  19
BRANCH   7  25
ATOM     25  C   UNL     1      -0.414  10.520  20.360  0.00  0.00    +0.000 C 
ATOM     26  O   UNL     1      -0.804  10.666  21.510  0.00  0.00    +0.000 OA
BRANCH  25  27
ATOM     27  O   UNL     1      -1.218  10.271  19.283  0.00  0.00    +0.000 OA
BRANCH  27  28
ATOM     28  C   UNL     1      -2.202  11.271  18.987  0.00  0.00    +0.000 C 
ATOM     29  C   UNL     1      -2.508  11.198  17.502  0.00  0.00    +0.000 C 
ENDBRANCH  27  28
ENDBRANCH  25  27
ENDBRANCH   7  25
TORSDOF 9
ENDMDL
MODEL 6
REMARK VINA RESULT:      -6.9      1.692      1.964
REMARK  Name = 
REMARK  11 active torsions:
REMARK  status: ('A' for Active; 'I' for Inactive)
REMARK    1  A    between atoms: C_1  and  C_2
REMARK    2  A    between atoms: C_2  and  O_3
REMARK    3  A    between atoms: O_3  and  C_4
REMARK    4  A    between atoms: C_4  and  C_6
REMARK    5  A    between atoms: C_7  and  C_8
REMARK    6  A    between atoms: C_14  and  C_15
REMARK    7  A    between atoms: C_15  and  O_17
REMARK    8  A    between atoms: O_17  and  C_18
REMARK    9  A    between atoms: C_18  and  C_19
REMARK   10  A    between atoms: C_20  and  C_21
REMARK   11  A    between atoms: C_24  and  O_25
REMARK                            x       y       z     vdW  Elec       q    Type
REMARK                         _______ _______ _______ _____ _____    ______ ____
ROOT
ATOM      1  C   UNL     1       2.510   6.800  19.370  0.00  0.00    +0.000 A 
ATOM      2  C   UNL     1       2.420   7.223  18.025  0.00  0.00    +0.000 A 
ATOM      3  C   UNL     1       1.878   8.467  17.693  0.00  0.00    +0.000 A 
ATOM      4  C   UNL     1       1.412   9.260  18.716  0.00  0.00    +0.000 A 
ATOM      5  C   UNL     1       1.457   8.852  20.040  0.00  0.00    +0.000 A 
ATOM      6  C   UNL     1       2.011   7.630  20.387  0.00  0.00    +0.000 A 
ATOM      7  C   UNL     1       0.966   9.961  20.901  0.00  0.00    +0.000 C 
ATOM      8  C   UNL     1       0.292  10.827  19.815  0.00  0.00    +0.000 C 
ATOM      9  O   UNL     1       0.902  10.519  18.534  0.00  0.00    +0.000 OA
ENDROOT
BRANCH   8  10
ATOM     10  C   UNL     1       0.320  12.329  20.036  0.00  0.00    +0.000 A 
ATOM     11  C   UNL     1       1.383  12.978  20.681  0.00  0.00    +0.000 A 
ATOM     12  C   UNL     1       1.335  14.350  20.937  0.00  0.00    +0.000 A 
ATOM     13  C   UNL     1       0.236  15.089  20.517  0.00  0.00    +0.000 A 
ATOM     14  C   UNL     1      -0.804  14.480  19.829  0.00  0.00    +0.000 A 
ATOM     15  C   UNL     1      -0.762  13.107  19.587  0.00  0.00    +0.000 A 
BRANCH  13  16
ATOM     16  O   UNL     1       0.145  16.425  20.767  0.00  0.00    +0.000 OA
ATOM     17  H   UNL     1       0.019  16.552  21.721  0.00  0.00    +0.000 HD
ENDBRANCH  13  16
ENDBRANCH   8  10
BRANCH   1  19
ATOM     18  C   UNL     1       2.988   4.387  19.017  0.00  0.00    +0.000 C 
ATOM     19  C   UNL     1       3.091   5.505  19.749  0.00  0.00    +0.000 C 
BRANCH  18  20
ATOM     20  C   UNL     1       3.697   3.167  19.448  0.00  0.00    +0.000 C 
ATOM     21  O   UNL     1       4.901   3.071  19.611  0.00  0.00    +0.000 OA
BRANCH  20  22
ATOM     22  O   UNL     1       2.783   2.168  19.510  0.00  0.00    +0.000 OA
BRANCH  22  24
ATOM     23  C   UNL     1       1.711   2.554  21.608  0.00  0.00    +0.000 C 
ATOM     24  C   UNL     1       1.529   2.532  20.101  0.00  0.00    +0.000 C 
ENDBRANCH  22  24
ENDBRANCH  20  22
ENDBRANCH  18  20
ENDBRANCH   1  19
BRANCH   7  25
ATOM     25  C   UNL     1      -0.076   9.634  21.929  0.00  0.00    +0.000 C 
ATOM     26  O   UNL     1      -0.853   8.691  21.893  0.00  0.00    +0.000 OA
BRANCH  25  27
ATOM     27  O   UNL     1      -0.116  10.651  22.842  0.00  0.00    +0.000 OA
BRANCH  27  28
ATOM     28  C   UNL     1      -1.418  11.149  23.173  0.00  0.00    +0.000 C 
ATOM     29  C   UNL     1      -1.342  12.666  23.202  0.00  0.00    +0.000 C 
ENDBRANCH  27  28
ENDBRANCH  25  27
ENDBRANCH   7  25
TORSDOF 9
ENDMDL
MODEL 7
REMARK VINA RESULT:      -6.8      0.994      1.356
REMARK  Name = 
REMARK  11 active torsions:
REMARK  status: ('A' for Active; 'I' for Inactive)
REMARK    1  A    between atoms: C_1  and  C_2
REMARK    2  A    between atoms: C_2  and  O_3
REMARK    3  A    between atoms: O_3  and  C_4
REMARK    4  A    between atoms: C_4  and  C_6
REMARK    5  A    between atoms: C_7  and  C_8
REMARK    6  A    between atoms: C_14  and  C_15
REMARK    7  A    between atoms: C_15  and  O_17
REMARK    8  A    between atoms: O_17  and  C_18
REMARK    9  A    between atoms: C_18  and  C_19
REMARK   10  A    between atoms: C_20  and  C_21
REMARK   11  A    between atoms: C_24  and  O_25
REMARK                            x       y       z     vdW  Elec       q    Type
REMARK                         _______ _______ _______ _____ _____    ______ ____
ROOT
ATOM      1  C   UNL     1       2.091   6.713  19.870  0.00  0.00    +0.000 A 
ATOM      2  C   UNL     1       2.327   6.962  18.500  0.00  0.00    +0.000 A 
ATOM      3  C   UNL     1       2.095   8.222  17.943  0.00  0.00    +0.000 A 
ATOM      4  C   UNL     1       1.608   9.210  18.767  0.00  0.00    +0.000 A 
ATOM      5  C   UNL     1       1.336   8.981  20.107  0.00  0.00    +0.000 A 
ATOM      6  C   UNL     1       1.580   7.742  20.678  0.00  0.00    +0.000 A 
ATOM      7  C   UNL     1       0.913  10.260  20.737  0.00  0.00    +0.000 C 
ATOM      8  C   UNL     1       0.620  11.072  19.456  0.00  0.00    +0.000 C 
ATOM      9  O   UNL     1       1.384  10.500  18.362  0.00  0.00    +0.000 OA
ENDROOT
BRANCH   8  10
ATOM     10  C   UNL     1       0.887  12.564  19.528  0.00  0.00    +0.000 A 
ATOM     11  C   UNL     1       0.093  13.507  18.858  0.00  0.00    +0.000 A 
ATOM     12  C   UNL     1       0.418  14.865  18.882  0.00  0.00    +0.000 A 
ATOM     13  C   UNL     1       1.522  15.293  19.607  0.00  0.00    +0.000 A 
ATOM     14  C   UNL     1       2.294  14.388  20.323  0.00  0.00    +0.000 A 
ATOM     15  C   UNL     1       1.976  13.030  20.286  0.00  0.00    +0.000 A 
BRANCH  13  16
ATOM     16  O   UNL     1       1.882  16.607  19.638  0.00  0.00    +0.000 OA
ATOM     17  H   UNL     1       1.242  17.114  19.114  0.00  0.00    +0.000 HD
ENDBRANCH  13  16
ENDBRANCH   8  10
BRANCH   1  19
ATOM     18  C   UNL     1       1.419   4.439  20.617  0.00  0.00    +0.000 C 
ATOM     19  C   UNL     1       2.342   5.403  20.486  0.00  0.00    +0.000 C 
BRANCH  18  20
ATOM     20  C   UNL     1       1.810   3.126  21.162  0.00  0.00    +0.000 C 
ATOM     21  O   UNL     1       2.446   2.947  22.185  0.00  0.00    +0.000 OA
BRANCH  20  22
ATOM     22  O   UNL     1       1.433   2.186  20.261  0.00  0.00    +0.000 OA
BRANCH  22  24
ATOM     23  C   UNL     1       3.130   1.796  18.628  0.00  0.00    +0.000 C 
ATOM     24  C   UNL     1       1.797   2.468  18.904  0.00  0.00    +0.000 C 
ENDBRANCH  22  24
ENDBRANCH  20  22
ENDBRANCH  18  20
ENDBRANCH   1  19
BRANCH   7  25
ATOM     25  C   UNL     1      -0.340  10.249  21.560  0.00  0.00    +0.000 C 
ATOM     26  O   UNL     1      -0.620   9.442  22.436  0.00  0.00    +0.000 OA
BRANCH  25  27
ATOM     27  O   UNL     1      -1.188  11.201  21.069  0.00  0.00    +0.000 OA
BRANCH  27  28
ATOM     28  C   UNL     1      -1.897  11.977  22.045  0.00  0.00    +0.000 C 
ATOM     29  C   UNL     1      -0.912  12.947  22.673  0.00  0.00    +0.000 C 
ENDBRANCH  27  28
ENDBRANCH  25  27
ENDBRANCH   7  25
TORSDOF 9
ENDMDL
MODEL 8
REMARK VINA RESULT:      -6.8      1.303      1.390
REMARK  Name = 
REMARK  11 active torsions:
REMARK  status: ('A' for Active; 'I' for Inactive)
REMARK    1  A    between atoms: C_1  and  C_2
REMARK    2  A    between atoms: C_2  and  O_3
REMARK    3  A    between atoms: O_3  and  C_4
REMARK    4  A    between atoms: C_4  and  C_6
REMARK    5  A    between atoms: C_7  and  C_8
REMARK    6  A    between atoms: C_14  and  C_15
REMARK    7  A    between atoms: C_15  and  O_17
REMARK    8  A    between atoms: O_17  and  C_18
REMARK    9  A    between atoms: C_18  and  C_19
REMARK   10  A    between atoms: C_20  and  C_21
REMARK   11  A    between atoms: C_24  and  O_25
REMARK                            x       y       z     vdW  Elec       q    Type
REMARK                         _______ _______ _______ _____ _____    ______ ____
ROOT
ATOM      1  C   UNL     1       2.204   6.713  19.630  0.00  0.00    +0.000 A 
ATOM      2  C   UNL     1       2.357   7.084  18.276  0.00  0.00    +0.000 A 
ATOM      3  C   UNL     1       2.031   8.370  17.837  0.00  0.00    +0.000 A 
ATOM      4  C   UNL     1       1.535   9.259  18.761  0.00  0.00    +0.000 A 
ATOM      5  C   UNL     1       1.343   8.907  20.089  0.00  0.00    +0.000 A 
ATOM      6  C   UNL     1       1.680   7.642  20.544  0.00  0.00    +0.000 A 
ATOM      7  C   UNL     1       0.884  10.105  20.842  0.00  0.00    +0.000 C 
ATOM      8  C   UNL     1       0.485  11.000  19.649  0.00  0.00    +0.000 C 
ATOM      9  O   UNL     1       1.222  10.562  18.476  0.00  0.00    +0.000 OA
ENDROOT
BRANCH   8  10
ATOM     10  C   UNL     1       0.676  12.495  19.832  0.00  0.00    +0.000 A 
ATOM     11  C   UNL     1       1.695  13.034  20.631  0.00  0.00    +0.000 A 
ATOM     12  C   UNL     1       1.790  14.411  20.840  0.00  0.00    +0.000 A 
ATOM     13  C   UNL     1       0.884  15.263  20.221  0.00  0.00    +0.000 A 
ATOM     14  C   UNL     1      -0.101  14.759  19.382  0.00  0.00    +0.000 A 
ATOM     15  C   UNL     1      -0.203  13.382  19.185  0.00  0.00    +0.000 A 
BRANCH  13  16
ATOM     16  O   UNL     1       0.932  16.610  20.417  0.00  0.00    +0.000 OA
ATOM     17  H   UNL     1       0.139  17.008  20.022  0.00  0.00    +0.000 HD
ENDBRANCH  13  16
ENDBRANCH   8  10
BRANCH   1  19
ATOM     18  C   UNL     1       1.677   4.510  20.654  0.00  0.00    +0.000 C 
ATOM     19  C   UNL     1       2.554   5.374  20.122  0.00  0.00    +0.000 C 
BRANCH  18  20
ATOM     20  C   UNL     1       2.124   3.154  21.024  0.00  0.00    +0.000 C 
ATOM     21  O   UNL     1       2.557   2.826  22.115  0.00  0.00    +0.000 OA
BRANCH  20  22
ATOM     22  O   UNL     1       2.071   2.391  19.904  0.00  0.00    +0.000 OA
BRANCH  22  24
ATOM     23  C   UNL     1       3.343   2.324  17.885  0.00  0.00    +0.000 C 
ATOM     24  C   UNL     1       3.345   2.010  19.371  0.00  0.00    +0.000 C 
ENDBRANCH  22  24
ENDBRANCH  20  22
ENDBRANCH  18  20
ENDBRANCH   1  19
BRANCH   7  25
ATOM     25  C   UNL     1      -0.324   9.957  21.718  0.00  0.00    +0.000 C 
ATOM     26  O   UNL     1      -0.726   8.916  22.220  0.00  0.00    +0.000 OA
BRANCH  25  27
ATOM     27  O   UNL     1      -0.989  11.150  21.743  0.00  0.00    +0.000 OA
BRANCH  27  28
ATOM     28  C   UNL     1      -1.349  11.644  23.040  0.00  0.00    +0.000 C 
ATOM     29  C   UNL     1      -1.242  13.158  23.007  0.00  0.00    +0.000 C 
ENDBRANCH  27  28
ENDBRANCH  25  27
ENDBRANCH   7  25
TORSDOF 9
ENDMDL
MODEL 9
REMARK VINA RESULT:      -6.8      2.760      4.924
REMARK  Name = 
REMARK  11 active torsions:
REMARK  status: ('A' for Active; 'I' for Inactive)
REMARK    1  A    between atoms: C_1  and  C_2
REMARK    2  A    between atoms: C_2  and  O_3
REMARK    3  A    between atoms: O_3  and  C_4
REMARK    4  A    between atoms: C_4  and  C_6
REMARK    5  A    between atoms: C_7  and  C_8
REMARK    6  A    between atoms: C_14  and  C_15
REMARK    7  A    between atoms: C_15  and  O_17
REMARK    8  A    between atoms: O_17  and  C_18
REMARK    9  A    between atoms: C_18  and  C_19
REMARK   10  A    between atoms: C_20  and  C_21
REMARK   11  A    between atoms: C_24  and  O_25
REMARK                            x       y       z     vdW  Elec       q    Type
REMARK                         _______ _______ _______ _____ _____    ______ ____
ROOT
ATOM      1  C   UNL     1       2.311   8.089  18.615  0.00  0.00    +0.000 A 
ATOM      2  C   UNL     1       2.149   7.392  19.833  0.00  0.00    +0.000 A 
ATOM      3  C   UNL     1       1.391   7.929  20.877  0.00  0.00    +0.000 A 
ATOM      4  C   UNL     1       0.826   9.169  20.691  0.00  0.00    +0.000 A 
ATOM      5  C   UNL     1       1.000   9.887  19.518  0.00  0.00    +0.000 A 
ATOM      6  C   UNL     1       1.731   9.359  18.465  0.00  0.00    +0.000 A 
ATOM      7  C   UNL     1       0.195  11.135  19.595  0.00  0.00    +0.000 C 
ATOM      8  C   UNL     1      -0.085  11.147  21.113  0.00  0.00    +0.000 C 
ATOM      9  O   UNL     1       0.022   9.788  21.613  0.00  0.00    +0.000 OA
ENDROOT
BRANCH   8  10
ATOM     10  C   UNL     1      -1.412  11.739  21.550  0.00  0.00    +0.000 A 
ATOM     11  C   UNL     1      -2.298  12.353  20.652  0.00  0.00    +0.000 A 
ATOM     12  C   UNL     1      -3.473  12.958  21.104  0.00  0.00    +0.000 A 
ATOM     13  C   UNL     1      -3.787  12.920  22.457  0.00  0.00    +0.000 A 
ATOM     14  C   UNL     1      -2.955  12.272  23.359  0.00  0.00    +0.000 A 
ATOM     15  C   UNL     1      -1.775  11.681  22.908  0.00  0.00    +0.000 A 
BRANCH  13  16
ATOM     16  O   UNL     1      -4.914  13.516  22.937  0.00  0.00    +0.000 OA
ATOM     17  H   UNL     1      -5.154  14.245  22.344  0.00  0.00    +0.000 HD
ENDBRANCH  13  16
ENDBRANCH   8  10
BRANCH   1  19
ATOM     18  C   UNL     1       4.230   6.853  17.630  0.00  0.00    +0.000 C 
ATOM     19  C   UNL     1       3.087   7.541  17.494  0.00  0.00    +0.000 C 
BRANCH  18  20
ATOM     20  C   UNL     1       4.872   6.264  16.440  0.00  0.00    +0.000 C 
ATOM     21  O   UNL     1       5.135   6.862  15.411  0.00  0.00    +0.000 OA
BRANCH  20  22
ATOM     22  O   UNL     1       5.000   4.934  16.666  0.00  0.00    +0.000 OA
BRANCH  22  24
ATOM     23  C   UNL     1       7.302   4.641  17.229  0.00  0.00    +0.000 C 
ATOM     24  C   UNL     1       5.875   4.585  17.746  0.00  0.00    +0.000 C 
ENDBRANCH  22  24
ENDBRANCH  20  22
ENDBRANCH  18  20
ENDBRANCH   1  19
BRANCH   7  25
ATOM     25  C   UNL     1       0.878  12.426  19.252  0.00  0.00    +0.000 C 
ATOM     26  O   UNL     1       0.654  13.121  18.271  0.00  0.00    +0.000 OA
BRANCH  25  27
ATOM     27  O   UNL     1       1.899  12.623  20.139  0.00  0.00    +0.000 OA
BRANCH  27  28
ATOM     28  C   UNL     1       2.744  13.753  19.885  0.00  0.00    +0.000 C 
ATOM     29  C   UNL     1       3.443  14.112  21.184  0.00  0.00    +0.000 C 
ENDBRANCH  27  28
ENDBRANCH  25  27
ENDBRANCH   7  25
TORSDOF 9
ENDMDL
