MODEL 1
REMARK VINA RESULT:      -7.8      0.000      0.000
REMARK  Name = 
REMARK  8 active torsions:
REMARK  status: ('A' for Active; 'I' for Inactive)
REMARK    1  A    between atoms: C_1  and  C_2
REMARK    2  A    between atoms: C_2  and  C_3
REMARK    3  A    between atoms: C_3  and  C_4
REMARK    4  A    between atoms: C_4  and  N_5
REMARK    5  A    between atoms: C_12  and  C_13
REMARK    6  A    between atoms: C_12  and  N_14
REMARK    7  A    between atoms: N_14  and  C_15
REMARK    8  A    between atoms: C_15  and  C_16
REMARK                            x       y       z     vdW  Elec       q    Type
REMARK                         _______ _______ _______ _____ _____    ______ ____
ROOT
ATOM      1  N   UNL     1       6.518   5.982  17.593  0.00  0.00    +0.000 N 
ATOM      2  C   UNL     1       7.098   4.764  17.878  0.00  0.00    +0.000 C 
ATOM      3  O   UNL     1       8.218   4.419  17.497  0.00  0.00    +0.000 OA
ATOM      4  N   UNL     1       6.338   3.897  18.603  0.00  0.00    +0.000 N 
ATOM      5  C   UNL     1       5.031   4.047  18.960  0.00  0.00    +0.000 C 
ATOM      6  O   UNL     1       4.414   3.113  19.459  0.00  0.00    +0.000 OA
ATOM      7  C   UNL     1       4.453   5.365  18.629  0.00  0.00    +0.000 C 
ATOM      8  C   UNL     1       3.453   5.919  19.368  0.00  0.00    +0.000 C 
ATOM      9  C   UNL     1       2.884   7.306  19.102  0.00  0.00    +0.000 C 
ATOM     10  C   UNL     1       5.141   6.124  17.544  0.00  0.00    +0.000 C 
ATOM     11  O   UNL     1       4.552   6.800  16.713  0.00  0.00    +0.000 OA
ATOM     12  H   UNL     1       6.756   2.997  18.801  0.00  0.00    +0.000 HD
ENDROOT
BRANCH   8  13
ATOM     13  N   UNL     1       2.919   5.378  20.549  0.00  0.00    +0.000 N 
ATOM     14  H   UNL     1       3.274   4.433  20.721  0.00  0.00    +0.000 HD
BRANCH  13  15
ATOM     15  C   UNL     1       1.460   5.290  20.757  0.00  0.00    +0.000 C 
BRANCH  15  16
ATOM     16  C   UNL     1       0.883   4.025  20.110  0.00  0.00    +0.000 C 
ATOM     17  C   UNL     1       1.413   2.718  20.674  0.00  0.00    +0.000 C 
ATOM     18  C   UNL     1       1.059   1.758  19.565  0.00  0.00    +0.000 C 
ATOM     19  C   UNL     1       1.289   2.593  18.320  0.00  0.00    +0.000 C 
ATOM     20  O   UNL     1       1.150   3.974  18.693  0.00  0.00    +0.000 OA
ENDBRANCH  15  16
ENDBRANCH  13  15
ENDBRANCH   8  13
BRANCH   1  21
ATOM     21  C   UNL     1       7.336   7.038  17.013  0.00  0.00    +0.000 C 
BRANCH  21  22
ATOM     22  C   UNL     1       8.088   7.813  18.108  0.00  0.00    +0.000 C 
BRANCH  22  24
ATOM     23  C   UNL     1       9.037  10.015  18.879  0.00  0.00    +0.000 C 
ATOM     24  C   UNL     1       8.169   9.322  17.839  0.00  0.00    +0.000 C 
ENDBRANCH  22  24
ENDBRANCH  21  22
ENDBRANCH   1  21
TORSDOF 6
ENDMDL
MODEL 2
REMARK VINA RESULT:      -7.3      3.051      6.413
REMARK  Name = 
REMARK  8 active torsions:
REMARK  status: ('A' for Active; 'I' for Inactive)
REMARK    1  A    between atoms: C_1  and  C_2
REMARK    2  A    between atoms: C_2  and  C_3
REMARK    3  A    between atoms: C_3  and  C_4
REMARK    4  A    between atoms: C_4  and  N_5
REMARK    5  A    between atoms: C_12  and  C_13
REMARK    6  A    between atoms: C_12  and  N_14
REMARK    7  A    between atoms: N_14  and  C_15
REMARK    8  A    between atoms: C_15  and  C_16
REMARK                            x       y       z     vdW  Elec       q    Type
REMARK                         _______ _______ _______ _____ _____    ______ ____
ROOT
ATOM      1  N   UNL     1       3.757   4.758  18.608  0.00  0.00    +0.000 N 
ATOM      2  C   UNL     1       4.476   3.861  19.368  0.00  0.00    +0.000 C 
ATOM      3  O   UNL     1       4.012   3.218  20.312  0.00  0.00    +0.000 OA
ATOM      4  N   UNL     1       5.792   3.727  19.047  0.00  0.00    +0.000 N 
ATOM      5  C   UNL     1       6.502   4.473  18.154  0.00  0.00    +0.000 C 
ATOM      6  O   UNL     1       7.721   4.367  18.088  0.00  0.00    +0.000 OA
ATOM      7  C   UNL     1       5.690   5.423  17.366  0.00  0.00    +0.000 C 
ATOM      8  C   UNL     1       6.039   5.797  16.105  0.00  0.00    +0.000 C 
ATOM      9  C   UNL     1       5.189   6.715  15.238  0.00  0.00    +0.000 C 
ATOM     10  C   UNL     1       4.383   5.817  17.970  0.00  0.00    +0.000 C 
ATOM     11  O   UNL     1       3.917   6.945  17.898  0.00  0.00    +0.000 OA
ATOM     12  H   UNL     1       6.325   3.080  19.613  0.00  0.00    +0.000 HD
ENDROOT
BRANCH   8  13
ATOM     13  N   UNL     1       7.123   5.282  15.376  0.00  0.00    +0.000 N 
ATOM     14  H   UNL     1       7.996   5.761  15.615  0.00  0.00    +0.000 HD
BRANCH  13  15
ATOM     15  C   UNL     1       7.096   5.236  13.900  0.00  0.00    +0.000 C 
BRANCH  15  16
ATOM     16  C   UNL     1       6.473   3.928  13.398  0.00  0.00    +0.000 C 
ATOM     17  C   UNL     1       7.011   3.430  12.068  0.00  0.00    +0.000 C 
ATOM     18  C   UNL     1       5.917   2.481  11.648  0.00  0.00    +0.000 C 
ATOM     19  C   UNL     1       4.664   3.185  12.133  0.00  0.00    +0.000 C 
ATOM     20  O   UNL     1       5.045   4.045  13.220  0.00  0.00    +0.000 OA
ENDBRANCH  15  16
ENDBRANCH  13  15
ENDBRANCH   8  13
BRANCH   1  21
ATOM     21  C   UNL     1       2.308   4.801  18.744  0.00  0.00    +0.000 C 
BRANCH  21  22
ATOM     22  C   UNL     1       1.641   3.748  17.844  0.00  0.00    +0.000 C 
BRANCH  22  24
ATOM     23  C   UNL     1       0.675   3.099  20.079  0.00  0.00    +0.000 C 
ATOM     24  C   UNL     1       0.866   2.680  18.629  0.00  0.00    +0.000 C 
ENDBRANCH  22  24
ENDBRANCH  21  22
ENDBRANCH   1  21
TORSDOF 6
ENDMDL
MODEL 3
REMARK VINA RESULT:      -7.3      1.218      1.390
REMARK  Name = 
REMARK  8 active torsions:
REMARK  status: ('A' for Active; 'I' for Inactive)
REMARK    1  A    between atoms: C_1  and  C_2
REMARK    2  A    between atoms: C_2  and  C_3
REMARK    3  A    between atoms: C_3  and  C_4
REMARK    4  A    between atoms: C_4  and  N_5
REMARK    5  A    between atoms: C_12  and  C_13
REMARK    6  A    between atoms: C_12  and  N_14
REMARK    7  A    between atoms: N_14  and  C_15
REMARK    8  A    between atoms: C_15  and  C_16
REMARK                            x       y       z     vdW  Elec       q    Type
REMARK                         _______ _______ _______ _____ _____    ______ ____
ROOT
ATOM      1  N   UNL     1       6.649   6.012  17.095  0.00  0.00    +0.000 N 
ATOM      2  C   UNL     1       6.938   4.705  17.426  0.00  0.00    +0.000 C 
ATOM      3  O   UNL     1       8.070   4.218  17.414  0.00  0.00    +0.000 OA
ATOM      4  N   UNL     1       5.873   3.923  17.752  0.00  0.00    +0.000 N 
ATOM      5  C   UNL     1       4.552   4.247  17.657  0.00  0.00    +0.000 C 
ATOM      6  O   UNL     1       3.690   3.390  17.812  0.00  0.00    +0.000 OA
ATOM      7  C   UNL     1       4.292   5.656  17.295  0.00  0.00    +0.000 C 
ATOM      8  C   UNL     1       3.171   6.310  17.706  0.00  0.00    +0.000 C 
ATOM      9  C   UNL     1       2.905   7.781  17.414  0.00  0.00    +0.000 C 
ATOM     10  C   UNL     1       5.405   6.364  16.597  0.00  0.00    +0.000 C 
ATOM     11  O   UNL     1       5.233   7.170  15.694  0.00  0.00    +0.000 OA
ATOM     12  H   UNL     1       6.082   2.959  17.981  0.00  0.00    +0.000 HD
ENDROOT
BRANCH   8  13
ATOM     13  N   UNL     1       2.195   5.787  18.569  0.00  0.00    +0.000 N 
ATOM     14  H   UNL     1       1.260   6.123  18.324  0.00  0.00    +0.000 HD
BRANCH  13  15
ATOM     15  C   UNL     1       2.300   5.958  20.032  0.00  0.00    +0.000 C 
BRANCH  15  16
ATOM     16  C   UNL     1       1.662   4.778  20.775  0.00  0.00    +0.000 C 
ATOM     17  C   UNL     1       2.645   3.833  21.444  0.00  0.00    +0.000 C 
ATOM     18  C   UNL     1       1.787   2.607  21.633  0.00  0.00    +0.000 C 
ATOM     19  C   UNL     1       0.937   2.601  20.377  0.00  0.00    +0.000 C 
ATOM     20  O   UNL     1       0.867   3.953  19.896  0.00  0.00    +0.000 OA
ENDBRANCH  15  16
ENDBRANCH  13  15
ENDBRANCH   8  13
BRANCH   1  21
ATOM     21  C   UNL     1       7.740   6.964  16.946  0.00  0.00    +0.000 C 
BRANCH  21  22
ATOM     22  C   UNL     1       7.437   8.268  17.702  0.00  0.00    +0.000 C 
BRANCH  22  24
ATOM     23  C   UNL     1       8.881  10.243  18.302  0.00  0.00    +0.000 C 
ATOM     24  C   UNL     1       8.613   8.766  18.553  0.00  0.00    +0.000 C 
ENDBRANCH  22  24
ENDBRANCH  21  22
ENDBRANCH   1  21
TORSDOF 6
ENDMDL
MODEL 4
REMARK VINA RESULT:      -7.1      2.706      6.381
REMARK  Name = 
REMARK  8 active torsions:
REMARK  status: ('A' for Active; 'I' for Inactive)
REMARK    1  A    between atoms: C_1  and  C_2
REMARK    2  A    between atoms: C_2  and  C_3
REMARK    3  A    between atoms: C_3  and  C_4
REMARK    4  A    between atoms: C_4  and  N_5
REMARK    5  A    between atoms: C_12  and  C_13
REMARK    6  A    between atoms: C_12  and  N_14
REMARK    7  A    between atoms: N_14  and  C_15
REMARK    8  A    between atoms: C_15  and  C_16
REMARK                            x       y       z     vdW  Elec       q    Type
REMARK                         _______ _______ _______ _____ _____    ______ ____
ROOT
ATOM      1  N   UNL     1       3.578   3.991  18.372  0.00  0.00    +0.000 N 
ATOM      2  C   UNL     1       4.417   3.178  19.103  0.00  0.00    +0.000 C 
ATOM      3  O   UNL     1       4.040   2.230  19.796  0.00  0.00    +0.000 OA
ATOM      4  N   UNL     1       5.741   3.494  19.060  0.00  0.00    +0.000 N 
ATOM      5  C   UNL     1       6.307   4.594  18.488  0.00  0.00    +0.000 C 
ATOM      6  O   UNL     1       7.491   4.850  18.674  0.00  0.00    +0.000 OA
ATOM      7  C   UNL     1       5.368   5.437  17.719  0.00  0.00    +0.000 C 
ATOM      8  C   UNL     1       5.772   6.175  16.649  0.00  0.00    +0.000 C 
ATOM      9  C   UNL     1       4.820   6.996  15.789  0.00  0.00    +0.000 C 
ATOM     10  C   UNL     1       3.926   5.300  18.080  0.00  0.00    +0.000 C 
ATOM     11  O   UNL     1       3.142   6.238  18.104  0.00  0.00    +0.000 OA
ATOM     12  H   UNL     1       6.357   2.908  19.608  0.00  0.00    +0.000 HD
ENDROOT
BRANCH   8  13
ATOM     13  N   UNL     1       7.063   6.167  16.098  0.00  0.00    +0.000 N 
ATOM     14  H   UNL     1       7.218   6.979  15.494  0.00  0.00    +0.000 HD
BRANCH  13  15
ATOM     15  C   UNL     1       7.555   5.009  15.325  0.00  0.00    +0.000 C 
BRANCH  15  16
ATOM     16  C   UNL     1       6.780   4.850  14.011  0.00  0.00    +0.000 C 
ATOM     17  C   UNL     1       5.977   3.567  13.890  0.00  0.00    +0.000 C 
ATOM     18  C   UNL     1       5.767   3.495  12.398  0.00  0.00    +0.000 C 
ATOM     19  C   UNL     1       7.078   4.027  11.853  0.00  0.00    +0.000 C 
ATOM     20  O   UNL     1       7.656   4.870  12.863  0.00  0.00    +0.000 OA
ENDBRANCH  15  16
ENDBRANCH  13  15
ENDBRANCH   8  13
BRANCH   1  21
ATOM     21  C   UNL     1       2.188   3.596  18.192  0.00  0.00    +0.000 C 
BRANCH  21  22
ATOM     22  C   UNL     1       1.320   4.100  19.356  0.00  0.00    +0.000 C 
BRANCH  22  24
ATOM     23  C   UNL     1       1.461   2.969  21.602  0.00  0.00    +0.000 C 
ATOM     24  C   UNL     1       0.776   2.972  20.243  0.00  0.00    +0.000 C 
ENDBRANCH  22  24
ENDBRANCH  21  22
ENDBRANCH   1  21
TORSDOF 6
ENDMDL
MODEL 5
REMARK VINA RESULT:      -7.0      2.459      5.630
REMARK  Name = 
REMARK  8 active torsions:
REMARK  status: ('A' for Active; 'I' for Inactive)
REMARK    1  A    between atoms: C_1  and  C_2
REMARK    2  A    between atoms: C_2  and  C_3
REMARK    3  A    between atoms: C_3  and  C_4
REMARK    4  A    between atoms: C_4  and  N_5
REMARK    5  A    between atoms: C_12  and  C_13
REMARK    6  A    between atoms: C_12  and  N_14
REMARK    7  A    between atoms: N_14  and  C_15
REMARK    8  A    between atoms: C_15  and  C_16
REMARK                            x       y       z     vdW  Elec       q    Type
REMARK                         _______ _______ _______ _____ _____    ______ ____
ROOT
ATOM      1  N   UNL     1       3.391   3.493  19.887  0.00  0.00    +0.000 N 
ATOM      2  C   UNL     1       4.619   2.868  19.920  0.00  0.00    +0.000 C 
ATOM      3  O   UNL     1       4.806   1.720  20.330  0.00  0.00    +0.000 OA
ATOM      4  N   UNL     1       5.678   3.611  19.495  0.00  0.00    +0.000 N 
ATOM      5  C   UNL     1       5.679   4.935  19.171  0.00  0.00    +0.000 C 
ATOM      6  O   UNL     1       6.735   5.524  18.975  0.00  0.00    +0.000 OA
ATOM      7  C   UNL     1       4.341   5.562  19.154  0.00  0.00    +0.000 C 
ATOM      8  C   UNL     1       4.048   6.611  18.337  0.00  0.00    +0.000 C 
ATOM      9  C   UNL     1       2.662   7.234  18.239  0.00  0.00    +0.000 C 
ATOM     10  C   UNL     1       3.290   4.873  19.958  0.00  0.00    +0.000 C 
ATOM     11  O   UNL     1       2.432   5.464  20.597  0.00  0.00    +0.000 OA
ATOM     12  H   UNL     1       6.583   3.159  19.533  0.00  0.00    +0.000 HD
ENDROOT
BRANCH   8  13
ATOM     13  N   UNL     1       4.912   7.158  17.375  0.00  0.00    +0.000 N 
ATOM     14  H   UNL     1       5.057   8.160  17.529  0.00  0.00    +0.000 HD
BRANCH  13  15
ATOM     15  C   UNL     1       4.630   7.024  15.932  0.00  0.00    +0.000 C 
BRANCH  15  16
ATOM     16  C   UNL     1       5.434   5.873  15.315  0.00  0.00    +0.000 C 
ATOM     17  C   UNL     1       4.922   4.482  15.646  0.00  0.00    +0.000 C 
ATOM     18  C   UNL     1       6.136   3.643  15.333  0.00  0.00    +0.000 C 
ATOM     19  C   UNL     1       7.279   4.532  15.786  0.00  0.00    +0.000 C 
ATOM     20  O   UNL     1       6.814   5.891  15.739  0.00  0.00    +0.000 OA
ENDBRANCH  15  16
ENDBRANCH  13  15
ENDBRANCH   8  13
BRANCH   1  21
ATOM     21  C   UNL     1       2.189   2.706  20.118  0.00  0.00    +0.000 C 
BRANCH  21  22
ATOM     22  C   UNL     1       1.711   2.040  18.817  0.00  0.00    +0.000 C 
BRANCH  22  24
ATOM     23  C   UNL     1       1.264   4.041  17.354  0.00  0.00    +0.000 C 
ATOM     24  C   UNL     1       2.128   2.805  17.553  0.00  0.00    +0.000 C 
ENDBRANCH  22  24
ENDBRANCH  21  22
ENDBRANCH   1  21
TORSDOF 6
ENDMDL
MODEL 6
REMARK VINA RESULT:      -6.9      3.383      4.712
REMARK  Name = 
REMARK  8 active torsions:
REMARK  status: ('A' for Active; 'I' for Inactive)
REMARK    1  A    between atoms: C_1  and  C_2
REMARK    2  A    between atoms: C_2  and  C_3
REMARK    3  A    between atoms: C_3  and  C_4
REMARK    4  A    between atoms: C_4  and  N_5
REMARK    5  A    between atoms: C_12  and  C_13
REMARK    6  A    between atoms: C_12  and  N_14
REMARK    7  A    between atoms: N_14  and  C_15
REMARK    8  A    between atoms: C_15  and  C_16
REMARK                            x       y       z     vdW  Elec       q    Type
REMARK                         _______ _______ _______ _____ _____    ______ ____
ROOT
ATOM      1  N   UNL     1       6.362   4.309  14.531  0.00  0.00    +0.000 N 
ATOM      2  C   UNL     1       7.248   5.353  14.696  0.00  0.00    +0.000 C 
ATOM      3  O   UNL     1       8.127   5.655  13.887  0.00  0.00    +0.000 OA
ATOM      4  N   UNL     1       7.135   6.052  15.858  0.00  0.00    +0.000 N 
ATOM      5  C   UNL     1       6.341   5.755  16.926  0.00  0.00    +0.000 C 
ATOM      6  O   UNL     1       6.465   6.366  17.981  0.00  0.00    +0.000 OA
ATOM      7  C   UNL     1       5.412   4.627  16.703  0.00  0.00    +0.000 C 
ATOM      8  C   UNL     1       4.209   4.549  17.335  0.00  0.00    +0.000 C 
ATOM      9  C   UNL     1       3.197   3.441  17.075  0.00  0.00    +0.000 C 
ATOM     10  C   UNL     1       5.798   3.671  15.624  0.00  0.00    +0.000 C 
ATOM     11  O   UNL     1       5.624   2.463  15.696  0.00  0.00    +0.000 OA
ATOM     12  H   UNL     1       7.794   6.809  15.988  0.00  0.00    +0.000 HD
ENDROOT
BRANCH   8  13
ATOM     13  N   UNL     1       3.669   5.532  18.179  0.00  0.00    +0.000 N 
ATOM     14  H   UNL     1       3.951   6.472  17.887  0.00  0.00    +0.000 HD
BRANCH  13  15
ATOM     15  C   UNL     1       3.896   5.493  19.637  0.00  0.00    +0.000 C 
BRANCH  15  16
ATOM     16  C   UNL     1       2.714   4.841  20.365  0.00  0.00    +0.000 C 
ATOM     17  C   UNL     1       2.925   3.390  20.759  0.00  0.00    +0.000 C 
ATOM     18  C   UNL     1       1.502   2.938  20.977  0.00  0.00    +0.000 C 
ATOM     19  C   UNL     1       0.747   3.686  19.895  0.00  0.00    +0.000 C 
ATOM     20  O   UNL     1       1.513   4.857  19.565  0.00  0.00    +0.000 OA
ENDBRANCH  15  16
ENDBRANCH  13  15
ENDBRANCH   8  13
BRANCH   1  21
ATOM     21  C   UNL     1       6.274   3.653  13.234  0.00  0.00    +0.000 C 
BRANCH  21  22
ATOM     22  C   UNL     1       4.871   3.824  12.628  0.00  0.00    +0.000 C 
BRANCH  22  24
ATOM     23  C   UNL     1       3.419   3.434  10.607  0.00  0.00    +0.000 C 
ATOM     24  C   UNL     1       4.635   2.954  11.385  0.00  0.00    +0.000 C 
ENDBRANCH  22  24
ENDBRANCH  21  22
ENDBRANCH   1  21
TORSDOF 6
ENDMDL
MODEL 7
REMARK VINA RESULT:      -6.9      1.830      6.460
REMARK  Name = 
REMARK  8 active torsions:
REMARK  status: ('A' for Active; 'I' for Inactive)
REMARK    1  A    between atoms: C_1  and  C_2
REMARK    2  A    between atoms: C_2  and  C_3
REMARK    3  A    between atoms: C_3  and  C_4
REMARK    4  A    between atoms: C_4  and  N_5
REMARK    5  A    between atoms: C_12  and  C_13
REMARK    6  A    between atoms: C_12  and  N_14
REMARK    7  A    between atoms: N_14  and  C_15
REMARK    8  A    between atoms: C_15  and  C_16
REMARK                            x       y       z     vdW  Elec       q    Type
REMARK                         _______ _______ _______ _____ _____    ______ ____
ROOT
ATOM      1  N   UNL     1       1.766   4.962  19.637  0.00  0.00    +0.000 N 
ATOM      2  C   UNL     1       2.018   6.272  19.985  0.00  0.00    +0.000 C 
ATOM      3  O   UNL     1       1.499   6.851  20.941  0.00  0.00    +0.000 OA
ATOM      4  N   UNL     1       2.880   6.948  19.176  0.00  0.00    +0.000 N 
ATOM      5  C   UNL     1       3.409   6.520  17.996  0.00  0.00    +0.000 C 
ATOM      6  O   UNL     1       4.030   7.295  17.277  0.00  0.00    +0.000 OA
ATOM      7  C   UNL     1       3.107   5.112  17.663  0.00  0.00    +0.000 C 
ATOM      8  C   UNL     1       3.955   4.349  16.920  0.00  0.00    +0.000 C 
ATOM      9  C   UNL     1       3.712   2.876  16.620  0.00  0.00    +0.000 C 
ATOM     10  C   UNL     1       1.904   4.531  18.328  0.00  0.00    +0.000 C 
ATOM     11  O   UNL     1       1.136   3.755  17.778  0.00  0.00    +0.000 OA
ATOM     12  H   UNL     1       3.055   7.914  19.421  0.00  0.00    +0.000 HD
ENDROOT
BRANCH   8  13
ATOM     13  N   UNL     1       5.221   4.750  16.464  0.00  0.00    +0.000 N 
ATOM     14  H   UNL     1       5.335   4.565  15.464  0.00  0.00    +0.000 HD
BRANCH  13  15
ATOM     15  C   UNL     1       6.455   4.242  17.096  0.00  0.00    +0.000 C 
BRANCH  15  16
ATOM     16  C   UNL     1       7.450   5.379  17.362  0.00  0.00    +0.000 C 
ATOM     17  C   UNL     1       7.533   5.834  18.809  0.00  0.00    +0.000 C 
ATOM     18  C   UNL     1       8.170   7.193  18.650  0.00  0.00    +0.000 C 
ATOM     19  C   UNL     1       7.540   7.706  17.370  0.00  0.00    +0.000 C 
ATOM     20  O   UNL     1       7.133   6.563  16.599  0.00  0.00    +0.000 OA
ENDBRANCH  15  16
ENDBRANCH  13  15
ENDBRANCH   8  13
BRANCH   1  21
ATOM     21  C   UNL     1       1.032   4.111  20.564  0.00  0.00    +0.000 C 
BRANCH  21  22
ATOM     22  C   UNL     1       1.570   2.672  20.529  0.00  0.00    +0.000 C 
BRANCH  22  24
ATOM     23  C   UNL     1       4.055   2.305  20.337  0.00  0.00    +0.000 C 
ATOM     24  C   UNL     1       2.888   2.495  21.295  0.00  0.00    +0.000 C 
ENDBRANCH  22  24
ENDBRANCH  21  22
ENDBRANCH   1  21
TORSDOF 6
ENDMDL
MODEL 8
REMARK VINA RESULT:      -6.8      2.994      4.534
REMARK  Name = 
REMARK  8 active torsions:
REMARK  status: ('A' for Active; 'I' for Inactive)
REMARK    1  A    between atoms: C_1  and  C_2
REMARK    2  A    between atoms: C_2  and  C_3
REMARK    3  A    between atoms: C_3  and  C_4
REMARK    4  A    between atoms: C_4  and  N_5
REMARK    5  A    between atoms: C_12  and  C_13
REMARK    6  A    between atoms: C_12  and  N_14
REMARK    7  A    between atoms: N_14  and  C_15
REMARK    8  A    between atoms: C_15  and  C_16
REMARK                            x       y       z     vdW  Elec       q    Type
REMARK                         _______ _______ _______ _____ _____    ______ ____
ROOT
ATOM      1  N   UNL     1       4.793   4.591  18.680  0.00  0.00    +0.000 N 
ATOM      2  C   UNL     1       4.423   3.655  19.622  0.00  0.00    +0.000 C 
ATOM      3  O   UNL     1       5.046   2.617  19.855  0.00  0.00    +0.000 OA
ATOM      4  N   UNL     1       3.269   3.912  20.296  0.00  0.00    +0.000 N 
ATOM      5  C   UNL     1       2.377   4.913  20.052  0.00  0.00    +0.000 C 
ATOM      6  O   UNL     1       1.289   4.927  20.616  0.00  0.00    +0.000 OA
ATOM      7  C   UNL     1       2.815   5.889  19.032  0.00  0.00    +0.000 C 
ATOM      8  C   UNL     1       2.415   7.189  19.060  0.00  0.00    +0.000 C 
ATOM      9  C   UNL     1       2.904   8.238  18.070  0.00  0.00    +0.000 C 
ATOM     10  C   UNL     1       3.851   5.405  18.073  0.00  0.00    +0.000 C 
ATOM     11  O   UNL     1       3.867   5.704  16.887  0.00  0.00    +0.000 OA
ATOM     12  H   UNL     1       2.987   3.218  20.977  0.00  0.00    +0.000 HD
ENDROOT
BRANCH   8  13
ATOM     13  N   UNL     1       1.636   7.779  20.069  0.00  0.00    +0.000 N 
ATOM     14  H   UNL     1       0.800   7.223  20.269  0.00  0.00    +0.000 HD
BRANCH  13  15
ATOM     15  C   UNL     1       1.160   9.171  19.950  0.00  0.00    +0.000 C 
BRANCH  15  16
ATOM     16  C   UNL     1       0.809   9.757  21.323  0.00  0.00    +0.000 C 
ATOM     17  C   UNL     1      -0.241   8.984  22.101  0.00  0.00    +0.000 C 
ATOM     18  C   UNL     1      -0.689  10.024  23.098  0.00  0.00    +0.000 C 
ATOM     19  C   UNL     1      -0.643  11.303  22.284  0.00  0.00    +0.000 C 
ATOM     20  O   UNL     1       0.303  11.105  21.220  0.00  0.00    +0.000 OA
ENDBRANCH  15  16
ENDBRANCH  13  15
ENDBRANCH   8  13
BRANCH   1  21
ATOM     21  C   UNL     1       6.114   4.502  18.074  0.00  0.00    +0.000 C 
BRANCH  21  22
ATOM     22  C   UNL     1       6.986   5.701  18.481  0.00  0.00    +0.000 C 
BRANCH  22  24
ATOM     23  C   UNL     1       7.936   7.949  17.855  0.00  0.00    +0.000 C 
ATOM     24  C   UNL     1       7.146   6.744  17.366  0.00  0.00    +0.000 C 
ENDBRANCH  22  24
ENDBRANCH  21  22
ENDBRANCH   1  21
TORSDOF 6
ENDMDL
MODEL 9
REMARK VINA RESULT:      -6.8      2.464      3.475
REMARK  Name = 
REMARK  8 active torsions:
REMARK  status: ('A' for Active; 'I' for Inactive)
REMARK    1  A    between atoms: C_1  and  C_2
REMARK    2  A    between atoms: C_2  and  C_3
REMARK    3  A    between atoms: C_3  and  C_4
REMARK    4  A    between atoms: C_4  and  N_5
REMARK    5  A    between atoms: C_12  and  C_13
REMARK    6  A    between atoms: C_12  and  N_14
REMARK    7  A    between atoms: N_14  and  C_15
REMARK    8  A    between atoms: C_15  and  C_16
REMARK                            x       y       z     vdW  Elec       q    Type
REMARK                         _______ _______ _______ _____ _____    ______ ____
ROOT
ATOM      1  N   UNL     1       5.937   4.710  16.250  0.00  0.00    +0.000 N 
ATOM      2  C   UNL     1       7.039   4.444  17.034  0.00  0.00    +0.000 C 
ATOM      3  O   UNL     1       8.166   4.208  16.594  0.00  0.00    +0.000 OA
ATOM      4  N   UNL     1       6.822   4.417  18.378  0.00  0.00    +0.000 N 
ATOM      5  C   UNL     1       5.622   4.488  19.020  0.00  0.00    +0.000 C 
ATOM      6  O   UNL     1       5.551   4.273  20.225  0.00  0.00    +0.000 OA
ATOM      7  C   UNL     1       4.471   4.769  18.139  0.00  0.00    +0.000 C 
ATOM      8  C   UNL     1       3.370   5.437  18.582  0.00  0.00    +0.000 C 
ATOM      9  C   UNL     1       2.198   5.809  17.684  0.00  0.00    +0.000 C 
ATOM     10  C   UNL     1       4.656   4.428  16.698  0.00  0.00    +0.000 C 
ATOM     11  O   UNL     1       3.772   3.961  15.994  0.00  0.00    +0.000 OA
ATOM     12  H   UNL     1       7.627   4.207  18.954  0.00  0.00    +0.000 HD
ENDROOT
BRANCH   8  13
ATOM     13  N   UNL     1       3.223   6.005  19.857  0.00  0.00    +0.000 N 
ATOM     14  H   UNL     1       3.805   5.526  20.550  0.00  0.00    +0.000 HD
BRANCH  13  15
ATOM     15  C   UNL     1       1.894   6.132  20.487  0.00  0.00    +0.000 C 
BRANCH  15  16
ATOM     16  C   UNL     1       1.388   4.774  20.991  0.00  0.00    +0.000 C 
ATOM     17  C   UNL     1       2.451   3.881  21.605  0.00  0.00    +0.000 C 
ATOM     18  C   UNL     1       1.775   2.534  21.536  0.00  0.00    +0.000 C 
ATOM     19  C   UNL     1       1.026   2.607  20.219  0.00  0.00    +0.000 C 
ATOM     20  O   UNL     1       0.789   3.995  19.933  0.00  0.00    +0.000 OA
ENDBRANCH  15  16
ENDBRANCH  13  15
ENDBRANCH   8  13
BRANCH   1  21
ATOM     21  C   UNL     1       6.123   4.969  14.829  0.00  0.00    +0.000 C 
BRANCH  21  22
ATOM     22  C   UNL     1       6.257   3.653  14.045  0.00  0.00    +0.000 C 
BRANCH  22  24
ATOM     23  C   UNL     1       5.001   3.314  11.888  0.00  0.00    +0.000 C 
ATOM     24  C   UNL     1       6.275   3.851  12.523  0.00  0.00    +0.000 C 
ENDBRANCH  22  24
ENDBRANCH  21  22
ENDBRANCH   1  21
TORSDOF 6
ENDMDL
