MODEL 1
REMARK VINA RESULT:      -9.7      0.000      0.000
REMARK  Name = 
REMARK  5 active torsions:
REMARK  status: ('A' for Active; 'I' for Inactive)
REMARK    1  A    between atoms: C_1  and  N_2
REMARK    2  A    between atoms: N_5  and  C_6
REMARK    3  A    between atoms: C_9  and  N_10
REMARK    4  A    between atoms: N_10  and  C_11
REMARK    5  A    between atoms: C_21  and  N_22
REMARK                            x       y       z     vdW  Elec       q    Type
REMARK                         _______ _______ _______ _____ _____    ______ ____
ROOT
ATOM      1  C   UNL     1       3.867   5.010  18.168  0.00  0.00    +0.000 A 
ATOM      2  C   UNL     1       5.052   5.665  17.964  0.00  0.00    +0.000 A 
ATOM      3  C   UNL     1       5.091   6.815  17.201  0.00  0.00    +0.000 A 
ATOM      4  C   UNL     1       6.316   7.400  16.940  0.00  0.00    +0.000 A 
ATOM      5  C   UNL     1       7.496   6.822  17.444  0.00  0.00    +0.000 A 
ATOM      6  C   UNL     1       7.451   5.692  18.304  0.00  0.00    +0.000 A 
ATOM      7  C   UNL     1       6.198   5.114  18.601  0.00  0.00    +0.000 A 
ATOM      8  N   UNL     1       5.928   4.092  19.530  0.00  0.00    +0.000 NA
ATOM      9  C   UNL     1       4.744   3.384  19.325  0.00  0.00    +0.000 A 
ATOM     10  C   UNL     1       3.610   3.148  20.244  0.00  0.00    +0.000 A 
ATOM     11  C   UNL     1       2.262   2.638  19.684  0.00  0.00    +0.000 A 
ATOM     12  C   UNL     1       2.615   1.804  18.721  0.00  0.00    +0.000 A 
ATOM     13  C   UNL     1       3.572   2.285  17.843  0.00  0.00    +0.000 A 
ATOM     14  C   UNL     1       4.246   3.542  18.079  0.00  0.00    +0.000 A 
ENDROOT
BRANCH  11  15
ATOM     15  N   UNL     1       1.280   3.496  19.009  0.00  0.00    +0.000 N 
ATOM     16  O   UNL     1       0.936   3.312  17.856  0.00  0.00    +0.000 OA
ATOM     17  O   UNL     1       0.444   4.179  19.745  0.00  0.00    +0.000 OA
ENDBRANCH  11  15
BRANCH   1  18
ATOM     18  N   UNL     1       3.055   5.632  19.284  0.00  0.00    +0.000 N 
ATOM     19  H   UNL     1       3.046   5.263  20.214  0.00  0.00    +0.000 HD
BRANCH  18  23
ATOM     20  C   UNL     1       1.035   9.438  19.833  0.00  0.00    +0.000 A 
ATOM     21  C   UNL     1       1.537   9.039  18.571  0.00  0.00    +0.000 A 
ATOM     22  C   UNL     1       2.191   7.819  18.403  0.00  0.00    +0.000 A 
ATOM     23  C   UNL     1       2.349   6.903  19.503  0.00  0.00    +0.000 A 
ATOM     24  C   UNL     1       1.770   7.271  20.704  0.00  0.00    +0.000 A 
ATOM     25  C   UNL     1       1.152   8.487  20.868  0.00  0.00    +0.000 A 
BRANCH  20  30
ATOM     26  C   UNL     1      -0.227  14.670  18.824  0.00  0.00    +0.000 C 
ATOM     27  N   UNL     1      -0.173  13.353  19.468  0.00  0.00    +0.000 NA
ATOM     28  C   UNL     1       1.166  13.007  19.993  0.00  0.00    +0.000 C 
ATOM     29  C   UNL     1       1.035  11.752  20.879  0.00  0.00    +0.000 C 
ATOM     30  N   UNL     1       0.412  10.699  20.082  0.00  0.00    +0.000 N 
ATOM     31  C   UNL     1      -0.871  11.042  19.467  0.00  0.00    +0.000 C 
ATOM     32  C   UNL     1      -0.669  12.272  18.596  0.00  0.00    +0.000 C 
ENDBRANCH  20  30
ENDBRANCH  18  23
ENDBRANCH   1  18
TORSDOF 4
ENDMDL
MODEL 2
REMARK VINA RESULT:      -9.7      0.888      1.318
REMARK  Name = 
REMARK  5 active torsions:
REMARK  status: ('A' for Active; 'I' for Inactive)
REMARK    1  A    between atoms: C_1  and  N_2
REMARK    2  A    between atoms: N_5  and  C_6
REMARK    3  A    between atoms: C_9  and  N_10
REMARK    4  A    between atoms: N_10  and  C_11
REMARK    5  A    between atoms: C_21  and  N_22
REMARK                            x       y       z     vdW  Elec       q    Type
REMARK                         _______ _______ _______ _____ _____    ______ ____
ROOT
ATOM      1  C   UNL     1       3.879   5.028  18.160  0.00  0.00    +0.000 A 
ATOM      2  C   UNL     1       5.066   5.683  17.967  0.00  0.00    +0.000 A 
ATOM      3  C   UNL     1       5.112   6.834  17.206  0.00  0.00    +0.000 A 
ATOM      4  C   UNL     1       6.339   7.420  16.956  0.00  0.00    +0.000 A 
ATOM      5  C   UNL     1       7.514   6.841  17.471  0.00  0.00    +0.000 A 
ATOM      6  C   UNL     1       7.462   5.710  18.329  0.00  0.00    +0.000 A 
ATOM      7  C   UNL     1       6.207   5.131  18.614  0.00  0.00    +0.000 A 
ATOM      8  N   UNL     1       5.928   4.109  19.540  0.00  0.00    +0.000 NA
ATOM      9  C   UNL     1       4.746   3.401  19.323  0.00  0.00    +0.000 A 
ATOM     10  C   UNL     1       3.604   3.163  20.232  0.00  0.00    +0.000 A 
ATOM     11  C   UNL     1       2.261   2.654  19.659  0.00  0.00    +0.000 A 
ATOM     12  C   UNL     1       2.623   1.822  18.699  0.00  0.00    +0.000 A 
ATOM     13  C   UNL     1       3.588   2.303  17.830  0.00  0.00    +0.000 A 
ATOM     14  C   UNL     1       4.260   3.560  18.072  0.00  0.00    +0.000 A 
ENDROOT
BRANCH  11  15
ATOM     15  N   UNL     1       1.285   3.513  18.977  0.00  0.00    +0.000 N 
ATOM     16  O   UNL     1       0.940   3.320  17.825  0.00  0.00    +0.000 OA
ATOM     17  O   UNL     1       0.454   4.208  19.706  0.00  0.00    +0.000 OA
ENDBRANCH  11  15
BRANCH   1  18
ATOM     18  N   UNL     1       3.057   5.648  19.269  0.00  0.00    +0.000 N 
ATOM     19  H   UNL     1       3.039   5.278  20.199  0.00  0.00    +0.000 HD
BRANCH  18  23
ATOM     20  C   UNL     1       1.033   9.455  19.804  0.00  0.00    +0.000 A 
ATOM     21  C   UNL     1       1.508   9.037  18.537  0.00  0.00    +0.000 A 
ATOM     22  C   UNL     1       2.162   7.817  18.373  0.00  0.00    +0.000 A 
ATOM     23  C   UNL     1       2.351   6.920  19.484  0.00  0.00    +0.000 A 
ATOM     24  C   UNL     1       1.798   7.305  20.693  0.00  0.00    +0.000 A 
ATOM     25  C   UNL     1       1.179   8.522  20.851  0.00  0.00    +0.000 A 
BRANCH  20  30
ATOM     26  C   UNL     1      -3.064  12.824  21.161  0.00  0.00    +0.000 C 
ATOM     27  N   UNL     1      -1.739  12.339  20.760  0.00  0.00    +0.000 NA
ATOM     28  C   UNL     1      -1.723  11.700  19.427  0.00  0.00    +0.000 C 
ATOM     29  C   UNL     1      -0.256  11.490  19.002  0.00  0.00    +0.000 C 
ATOM     30  N   UNL     1       0.411  10.717  20.046  0.00  0.00    +0.000 N 
ATOM     31  C   UNL     1       0.331  11.274  21.398  0.00  0.00    +0.000 C 
ATOM     32  C   UNL     1      -1.136  11.438  21.760  0.00  0.00    +0.000 C 
ENDBRANCH  20  30
ENDBRANCH  18  23
ENDBRANCH   1  18
TORSDOF 4
ENDMDL
MODEL 3
REMARK VINA RESULT:      -9.6      0.774      1.102
REMARK  Name = 
REMARK  5 active torsions:
REMARK  status: ('A' for Active; 'I' for Inactive)
REMARK    1  A    between atoms: C_1  and  N_2
REMARK    2  A    between atoms: N_5  and  C_6
REMARK    3  A    between atoms: C_9  and  N_10
REMARK    4  A    between atoms: N_10  and  C_11
REMARK    5  A    between atoms: C_21  and  N_22
REMARK                            x       y       z     vdW  Elec       q    Type
REMARK                         _______ _______ _______ _____ _____    ______ ____
ROOT
ATOM      1  C   UNL     1       3.882   4.998  18.145  0.00  0.00    +0.000 A 
ATOM      2  C   UNL     1       5.068   5.651  17.936  0.00  0.00    +0.000 A 
ATOM      3  C   UNL     1       5.113   6.778  17.140  0.00  0.00    +0.000 A 
ATOM      4  C   UNL     1       6.340   7.358  16.877  0.00  0.00    +0.000 A 
ATOM      5  C   UNL     1       7.515   6.798  17.413  0.00  0.00    +0.000 A 
ATOM      6  C   UNL     1       7.462   5.694  18.305  0.00  0.00    +0.000 A 
ATOM      7  C   UNL     1       6.207   5.121  18.603  0.00  0.00    +0.000 A 
ATOM      8  N   UNL     1       5.928   4.126  19.559  0.00  0.00    +0.000 NA
ATOM      9  C   UNL     1       4.748   3.410  19.360  0.00  0.00    +0.000 A 
ATOM     10  C   UNL     1       3.604   3.197  20.272  0.00  0.00    +0.000 A 
ATOM     11  C   UNL     1       2.264   2.667  19.710  0.00  0.00    +0.000 A 
ATOM     12  C   UNL     1       2.630   1.807  18.777  0.00  0.00    +0.000 A 
ATOM     13  C   UNL     1       3.597   2.264  17.897  0.00  0.00    +0.000 A 
ATOM     14  C   UNL     1       4.265   3.530  18.103  0.00  0.00    +0.000 A 
ENDROOT
BRANCH  11  15
ATOM     15  N   UNL     1       1.287   3.503  18.999  0.00  0.00    +0.000 N 
ATOM     16  O   UNL     1       0.951   3.278  17.850  0.00  0.00    +0.000 OA
ATOM     17  O   UNL     1       0.448   4.213  19.704  0.00  0.00    +0.000 OA
ENDBRANCH  11  15
BRANCH   1  18
ATOM     18  N   UNL     1       3.054   5.650  19.232  0.00  0.00    +0.000 N 
ATOM     19  H   UNL     1       3.024   5.300  20.170  0.00  0.00    +0.000 HD
BRANCH  18  23
ATOM     20  C   UNL     1       1.061   9.486  19.664  0.00  0.00    +0.000 A 
ATOM     21  C   UNL     1       1.544   9.037  18.411  0.00  0.00    +0.000 A 
ATOM     22  C   UNL     1       2.188   7.807  18.280  0.00  0.00    +0.000 A 
ATOM     23  C   UNL     1       2.358   6.933  19.412  0.00  0.00    +0.000 A 
ATOM     24  C   UNL     1       1.798   7.350  20.607  0.00  0.00    +0.000 A 
ATOM     25  C   UNL     1       1.189   8.575  20.733  0.00  0.00    +0.000 A 
BRANCH  20  30
ATOM     26  C   UNL     1       0.294  14.317  22.126  0.00  0.00    +0.000 C 
ATOM     27  N   UNL     1       0.148  13.194  21.192  0.00  0.00    +0.000 NA
ATOM     28  C   UNL     1      -0.346  11.955  21.832  0.00  0.00    +0.000 C 
ATOM     29  C   UNL     1      -0.722  10.950  20.725  0.00  0.00    +0.000 C 
ATOM     30  N   UNL     1       0.448  10.758  19.873  0.00  0.00    +0.000 N 
ATOM     31  C   UNL     1       1.022  11.977  19.300  0.00  0.00    +0.000 C 
ATOM     32  C   UNL     1       1.386  12.915  20.440  0.00  0.00    +0.000 C 
ENDBRANCH  20  30
ENDBRANCH  18  23
ENDBRANCH   1  18
TORSDOF 4
ENDMDL
MODEL 4
REMARK VINA RESULT:      -9.3      1.024      1.676
REMARK  Name = 
REMARK  5 active torsions:
REMARK  status: ('A' for Active; 'I' for Inactive)
REMARK    1  A    between atoms: C_1  and  N_2
REMARK    2  A    between atoms: N_5  and  C_6
REMARK    3  A    between atoms: C_9  and  N_10
REMARK    4  A    between atoms: N_10  and  C_11
REMARK    5  A    between atoms: C_21  and  N_22
REMARK                            x       y       z     vdW  Elec       q    Type
REMARK                         _______ _______ _______ _____ _____    ______ ____
ROOT
ATOM      1  C   UNL     1       4.361   5.244  17.948  0.00  0.00    +0.000 A 
ATOM      2  C   UNL     1       5.531   5.954  18.011  0.00  0.00    +0.000 A 
ATOM      3  C   UNL     1       5.700   7.090  17.245  0.00  0.00    +0.000 A 
ATOM      4  C   UNL     1       6.925   7.731  17.265  0.00  0.00    +0.000 A 
ATOM      5  C   UNL     1       7.975   7.221  18.051  0.00  0.00    +0.000 A 
ATOM      6  C   UNL     1       7.776   6.106  18.908  0.00  0.00    +0.000 A 
ATOM      7  C   UNL     1       6.516   5.472  18.917  0.00  0.00    +0.000 A 
ATOM      8  N   UNL     1       6.077   4.455  19.786  0.00  0.00    +0.000 NA
ATOM      9  C   UNL     1       5.008   3.686  19.327  0.00  0.00    +0.000 A 
ATOM     10  C   UNL     1       3.700   3.410  19.958  0.00  0.00    +0.000 A 
ATOM     11  C   UNL     1       2.548   2.823  19.110  0.00  0.00    +0.000 A 
ATOM     12  C   UNL     1       3.156   1.991  18.283  0.00  0.00    +0.000 A 
ATOM     13  C   UNL     1       4.272   2.502  17.643  0.00  0.00    +0.000 A 
ATOM     14  C   UNL     1       4.815   3.796  17.994  0.00  0.00    +0.000 A 
ENDROOT
BRANCH  11  15
ATOM     15  N   UNL     1       1.717   3.620  18.197  0.00  0.00    +0.000 N 
ATOM     16  O   UNL     1       1.675   3.404  16.999  0.00  0.00    +0.000 OA
ATOM     17  O   UNL     1       0.694   4.263  18.692  0.00  0.00    +0.000 OA
ENDBRANCH  11  15
BRANCH   1  18
ATOM     18  N   UNL     1       3.281   5.845  18.821  0.00  0.00    +0.000 N 
ATOM     19  H   UNL     1       3.003   5.438  19.692  0.00  0.00    +0.000 HD
BRANCH  18  23
ATOM     20  C   UNL     1       1.103   9.591  19.140  0.00  0.00    +0.000 A 
ATOM     21  C   UNL     1       1.276   8.735  20.255  0.00  0.00    +0.000 A 
ATOM     22  C   UNL     1       1.971   7.530  20.144  0.00  0.00    +0.000 A 
ATOM     23  C   UNL     1       2.567   7.129  18.896  0.00  0.00    +0.000 A 
ATOM     24  C   UNL     1       2.466   8.022  17.845  0.00  0.00    +0.000 A 
ATOM     25  C   UNL     1       1.756   9.194  17.955  0.00  0.00    +0.000 A 
BRANCH  20  30
ATOM     26  C   UNL     1      -2.881  12.951  20.820  0.00  0.00    +0.000 C 
ATOM     27  N   UNL     1      -1.706  12.434  20.107  0.00  0.00    +0.000 NA
ATOM     28  C   UNL     1      -2.021  11.328  19.177  0.00  0.00    +0.000 C 
ATOM     29  C   UNL     1      -0.784  11.065  18.295  0.00  0.00    +0.000 C 
ATOM     30  N   UNL     1       0.352  10.804  19.176  0.00  0.00    +0.000 N 
ATOM     31  C   UNL     1       0.631  11.838  20.174  0.00  0.00    +0.000 C 
ATOM     32  C   UNL     1      -0.618  12.035  21.018  0.00  0.00    +0.000 C 
ENDBRANCH  20  30
ENDBRANCH  18  23
ENDBRANCH   1  18
TORSDOF 4
ENDMDL
MODEL 5
REMARK VINA RESULT:      -8.9      2.267      3.967
REMARK  Name = 
REMARK  5 active torsions:
REMARK  status: ('A' for Active; 'I' for Inactive)
REMARK    1  A    between atoms: C_1  and  N_2
REMARK    2  A    between atoms: N_5  and  C_6
REMARK    3  A    between atoms: C_9  and  N_10
REMARK    4  A    between atoms: N_10  and  C_11
REMARK    5  A    between atoms: C_21  and  N_22
REMARK                            x       y       z     vdW  Elec       q    Type
REMARK                         _______ _______ _______ _____ _____    ______ ____
ROOT
ATOM      1  C   UNL     1       4.123   5.106  18.829  0.00  0.00    +0.000 A 
ATOM      2  C   UNL     1       3.037   4.392  19.262  0.00  0.00    +0.000 A 
ATOM      3  C   UNL     1       2.513   4.614  20.520  0.00  0.00    +0.000 A 
ATOM      4  C   UNL     1       1.475   3.814  20.959  0.00  0.00    +0.000 A 
ATOM      5  C   UNL     1       0.972   2.792  20.131  0.00  0.00    +0.000 A 
ATOM      6  C   UNL     1       1.447   2.623  18.803  0.00  0.00    +0.000 A 
ATOM      7  C   UNL     1       2.483   3.461  18.340  0.00  0.00    +0.000 A 
ATOM      8  N   UNL     1       2.990   3.548  17.030  0.00  0.00    +0.000 NA
ATOM      9  C   UNL     1       4.274   4.081  16.911  0.00  0.00    +0.000 A 
ATOM     10  C   UNL     1       4.755   5.221  16.102  0.00  0.00    +0.000 A 
ATOM     11  C   UNL     1       6.139   5.843  16.401  0.00  0.00    +0.000 A 
ATOM     12  C   UNL     1       6.888   4.805  16.728  0.00  0.00    +0.000 A 
ATOM     13  C   UNL     1       6.326   3.935  17.648  0.00  0.00    +0.000 A 
ATOM     14  C   UNL     1       4.954   4.079  18.079  0.00  0.00    +0.000 A 
ENDROOT
BRANCH  11  15
ATOM     15  N   UNL     1       6.395   6.774  17.508  0.00  0.00    +0.000 N 
ATOM     16  O   UNL     1       7.324   6.627  18.282  0.00  0.00    +0.000 OA
ATOM     17  O   UNL     1       5.922   7.988  17.419  0.00  0.00    +0.000 OA
ENDBRANCH  11  15
BRANCH   1  18
ATOM     18  N   UNL     1       3.736   6.468  18.295  0.00  0.00    +0.000 N 
ATOM     19  H   UNL     1       4.031   6.800  17.398  0.00  0.00    +0.000 HD
BRANCH  18  23
ATOM     20  C   UNL     1       0.884   9.609  19.232  0.00  0.00    +0.000 A 
ATOM     21  C   UNL     1       1.409   9.447  17.926  0.00  0.00    +0.000 A 
ATOM     22  C   UNL     1       2.329   8.441  17.634  0.00  0.00    +0.000 A 
ATOM     23  C   UNL     1       2.754   7.507  18.644  0.00  0.00    +0.000 A 
ATOM     24  C   UNL     1       2.160   7.625  19.888  0.00  0.00    +0.000 A 
ATOM     25  C   UNL     1       1.276   8.636  20.174  0.00  0.00    +0.000 A 
BRANCH  20  30
ATOM     26  C   UNL     1      -0.803  14.792  19.755  0.00  0.00    +0.000 C 
ATOM     27  N   UNL     1      -0.777  13.326  19.816  0.00  0.00    +0.000 NA
ATOM     28  C   UNL     1       0.255  12.792  20.731  0.00  0.00    +0.000 C 
ATOM     29  C   UNL     1       0.003  11.283  20.925  0.00  0.00    +0.000 C 
ATOM     30  N   UNL     1      -0.012  10.655  19.607  0.00  0.00    +0.000 N 
ATOM     31  C   UNL     1      -0.956  11.224  18.643  0.00  0.00    +0.000 C 
ATOM     32  C   UNL     1      -0.643  12.704  18.485  0.00  0.00    +0.000 C 
ENDBRANCH  20  30
ENDBRANCH  18  23
ENDBRANCH   1  18
TORSDOF 4
ENDMDL
MODEL 6
REMARK VINA RESULT:      -8.7      2.373      4.173
REMARK  Name = 
REMARK  5 active torsions:
REMARK  status: ('A' for Active; 'I' for Inactive)
REMARK    1  A    between atoms: C_1  and  N_2
REMARK    2  A    between atoms: N_5  and  C_6
REMARK    3  A    between atoms: C_9  and  N_10
REMARK    4  A    between atoms: N_10  and  C_11
REMARK    5  A    between atoms: C_21  and  N_22
REMARK                            x       y       z     vdW  Elec       q    Type
REMARK                         _______ _______ _______ _____ _____    ______ ____
ROOT
ATOM      1  C   UNL     1       3.963   5.088  18.785  0.00  0.00    +0.000 A 
ATOM      2  C   UNL     1       2.878   4.370  19.213  0.00  0.00    +0.000 A 
ATOM      3  C   UNL     1       2.294   4.647  20.433  0.00  0.00    +0.000 A 
ATOM      4  C   UNL     1       1.259   3.844  20.873  0.00  0.00    +0.000 A 
ATOM      5  C   UNL     1       0.819   2.764  20.085  0.00  0.00    +0.000 A 
ATOM      6  C   UNL     1       1.356   2.533  18.791  0.00  0.00    +0.000 A 
ATOM      7  C   UNL     1       2.389   3.373  18.323  0.00  0.00    +0.000 A 
ATOM      8  N   UNL     1       2.951   3.400  17.034  0.00  0.00    +0.000 NA
ATOM      9  C   UNL     1       4.224   3.961  16.939  0.00  0.00    +0.000 A 
ATOM     10  C   UNL     1       4.711   5.067  16.086  0.00  0.00    +0.000 A 
ATOM     11  C   UNL     1       6.064   5.744  16.407  0.00  0.00    +0.000 A 
ATOM     12  C   UNL     1       6.824   4.748  16.825  0.00  0.00    +0.000 A 
ATOM     13  C   UNL     1       6.245   3.916  17.768  0.00  0.00    +0.000 A 
ATOM     14  C   UNL     1       4.852   4.045  18.132  0.00  0.00    +0.000 A 
ENDROOT
BRANCH  11  15
ATOM     15  N   UNL     1       6.247   6.743  17.468  0.00  0.00    +0.000 N 
ATOM     16  O   UNL     1       7.103   6.632  18.327  0.00  0.00    +0.000 OA
ATOM     17  O   UNL     1       5.812   7.957  17.259  0.00  0.00    +0.000 OA
ENDBRANCH  11  15
BRANCH   1  18
ATOM     18  N   UNL     1       3.564   6.407  18.158  0.00  0.00    +0.000 N 
ATOM     19  H   UNL     1       3.704   6.607  17.188  0.00  0.00    +0.000 HD
BRANCH  18  23
ATOM     20  C   UNL     1       1.163   9.874  19.201  0.00  0.00    +0.000 A 
ATOM     21  C   UNL     1       1.711   9.713  17.905  0.00  0.00    +0.000 A 
ATOM     22  C   UNL     1       2.487   8.600  17.579  0.00  0.00    +0.000 A 
ATOM     23  C   UNL     1       2.731   7.557  18.541  0.00  0.00    +0.000 A 
ATOM     24  C   UNL     1       2.110   7.689  19.770  0.00  0.00    +0.000 A 
ATOM     25  C   UNL     1       1.370   8.801  20.092  0.00  0.00    +0.000 A 
BRANCH  20  30
ATOM     26  C   UNL     1      -3.090  12.531  21.400  0.00  0.00    +0.000 C 
ATOM     27  N   UNL     1      -1.796  12.267  20.760  0.00  0.00    +0.000 NA
ATOM     28  C   UNL     1      -1.915  11.679  19.409  0.00  0.00    +0.000 C 
ATOM     29  C   UNL     1      -0.528  11.711  18.737  0.00  0.00    +0.000 C 
ATOM     30  N   UNL     1       0.413  11.017  19.612  0.00  0.00    +0.000 N 
ATOM     31  C   UNL     1       0.486  11.514  20.987  0.00  0.00    +0.000 C 
ATOM     32  C   UNL     1      -0.906  11.439  21.595  0.00  0.00    +0.000 C 
ENDBRANCH  20  30
ENDBRANCH  18  23
ENDBRANCH   1  18
TORSDOF 4
ENDMDL
MODEL 7
REMARK VINA RESULT:      -8.6      0.856      1.517
REMARK  Name = 
REMARK  5 active torsions:
REMARK  status: ('A' for Active; 'I' for Inactive)
REMARK    1  A    between atoms: C_1  and  N_2
REMARK    2  A    between atoms: N_5  and  C_6
REMARK    3  A    between atoms: C_9  and  N_10
REMARK    4  A    between atoms: N_10  and  C_11
REMARK    5  A    between atoms: C_21  and  N_22
REMARK                            x       y       z     vdW  Elec       q    Type
REMARK                         _______ _______ _______ _____ _____    ______ ____
ROOT
ATOM      1  C   UNL     1       4.079   5.000  17.987  0.00  0.00    +0.000 A 
ATOM      2  C   UNL     1       5.240   5.726  18.002  0.00  0.00    +0.000 A 
ATOM      3  C   UNL     1       5.368   6.854  17.217  0.00  0.00    +0.000 A 
ATOM      4  C   UNL     1       6.584   7.511  17.187  0.00  0.00    +0.000 A 
ATOM      5  C   UNL     1       7.666   7.026  17.945  0.00  0.00    +0.000 A 
ATOM      6  C   UNL     1       7.511   5.920  18.823  0.00  0.00    +0.000 A 
ATOM      7  C   UNL     1       6.261   5.269  18.882  0.00  0.00    +0.000 A 
ATOM      8  N   UNL     1       5.865   4.258  19.777  0.00  0.00    +0.000 NA
ATOM      9  C   UNL     1       4.792   3.468  19.364  0.00  0.00    +0.000 A 
ATOM     10  C   UNL     1       3.510   3.183  20.042  0.00  0.00    +0.000 A 
ATOM     11  C   UNL     1       2.338   2.570  19.240  0.00  0.00    +0.000 A 
ATOM     12  C   UNL     1       2.930   1.735  18.404  0.00  0.00    +0.000 A 
ATOM     13  C   UNL     1       4.018   2.253  17.721  0.00  0.00    +0.000 A 
ATOM     14  C   UNL     1       4.554   3.558  18.037  0.00  0.00    +0.000 A 
ENDROOT
BRANCH  11  15
ATOM     15  N   UNL     1       1.467   3.343  18.345  0.00  0.00    +0.000 N 
ATOM     16  O   UNL     1       0.767   4.256  18.745  0.00  0.00    +0.000 OA
ATOM     17  O   UNL     1       1.752   3.368  17.070  0.00  0.00    +0.000 OA
ENDBRANCH  11  15
BRANCH   1  18
ATOM     18  N   UNL     1       3.019   5.598  18.888  0.00  0.00    +0.000 N 
ATOM     19  H   UNL     1       2.670   5.124  19.697  0.00  0.00    +0.000 HD
BRANCH  18  23
ATOM     20  C   UNL     1       1.181   9.474  19.572  0.00  0.00    +0.000 A 
ATOM     21  C   UNL     1       1.359   8.540  20.622  0.00  0.00    +0.000 A 
ATOM     22  C   UNL     1       1.944   7.295  20.394  0.00  0.00    +0.000 A 
ATOM     23  C   UNL     1       2.420   6.926  19.086  0.00  0.00    +0.000 A 
ATOM     24  C   UNL     1       2.321   7.887  18.096  0.00  0.00    +0.000 A 
ATOM     25  C   UNL     1       1.718   9.101  18.323  0.00  0.00    +0.000 A 
BRANCH  20  30
ATOM     26  C   UNL     1       0.276  14.370  21.851  0.00  0.00    +0.000 C 
ATOM     27  N   UNL     1       0.165  13.211  20.958  0.00  0.00    +0.000 NA
ATOM     28  C   UNL     1      -0.304  11.984  21.639  0.00  0.00    +0.000 C 
ATOM     29  C   UNL     1      -0.646  10.930  20.567  0.00  0.00    +0.000 C 
ATOM     30  N   UNL     1       0.536  10.737  19.730  0.00  0.00    +0.000 N 
ATOM     31  C   UNL     1       1.084  11.949  19.117  0.00  0.00    +0.000 C 
ATOM     32  C   UNL     1       1.415  12.936  20.226  0.00  0.00    +0.000 C 
ENDBRANCH  20  30
ENDBRANCH  18  23
ENDBRANCH   1  18
TORSDOF 4
ENDMDL
MODEL 8
REMARK VINA RESULT:      -8.5      2.315      4.165
REMARK  Name = 
REMARK  5 active torsions:
REMARK  status: ('A' for Active; 'I' for Inactive)
REMARK    1  A    between atoms: C_1  and  N_2
REMARK    2  A    between atoms: N_5  and  C_6
REMARK    3  A    between atoms: C_9  and  N_10
REMARK    4  A    between atoms: N_10  and  C_11
REMARK    5  A    between atoms: C_21  and  N_22
REMARK                            x       y       z     vdW  Elec       q    Type
REMARK                         _______ _______ _______ _____ _____    ______ ____
ROOT
ATOM      1  C   UNL     1       4.069   4.981  18.850  0.00  0.00    +0.000 A 
ATOM      2  C   UNL     1       3.082   4.222  19.421  0.00  0.00    +0.000 A 
ATOM      3  C   UNL     1       2.533   4.590  20.633  0.00  0.00    +0.000 A 
ATOM      4  C   UNL     1       1.604   3.754  21.224  0.00  0.00    +0.000 A 
ATOM      5  C   UNL     1       1.235   2.551  20.594  0.00  0.00    +0.000 A 
ATOM      6  C   UNL     1       1.729   2.216  19.305  0.00  0.00    +0.000 A 
ATOM      7  C   UNL     1       2.652   3.084  18.684  0.00  0.00    +0.000 A 
ATOM      8  N   UNL     1       3.145   3.007  17.368  0.00  0.00    +0.000 NA
ATOM      9  C   UNL     1       4.351   3.668  17.134  0.00  0.00    +0.000 A 
ATOM     10  C   UNL     1       4.685   4.703  16.132  0.00  0.00    +0.000 A 
ATOM     11  C   UNL     1       5.979   5.535  16.292  0.00  0.00    +0.000 A 
ATOM     12  C   UNL     1       6.853   4.671  16.775  0.00  0.00    +0.000 A 
ATOM     13  C   UNL     1       6.404   3.909  17.842  0.00  0.00    +0.000 A 
ATOM     14  C   UNL     1       5.024   3.952  18.270  0.00  0.00    +0.000 A 
ENDROOT
BRANCH  11  15
ATOM     15  N   UNL     1       6.113   6.668  17.217  0.00  0.00    +0.000 N 
ATOM     16  O   UNL     1       6.894   6.656  18.152  0.00  0.00    +0.000 OA
ATOM     17  O   UNL     1       5.740   7.850  16.808  0.00  0.00    +0.000 OA
ENDBRANCH  11  15
BRANCH   1  18
ATOM     18  N   UNL     1       3.513   6.172  18.099  0.00  0.00    +0.000 N 
ATOM     19  H   UNL     1       3.432   6.191  17.102  0.00  0.00    +0.000 HD
BRANCH  18  23
ATOM     20  C   UNL     1       1.218   9.692  19.202  0.00  0.00    +0.000 A 
ATOM     21  C   UNL     1       1.469   8.649  20.127  0.00  0.00    +0.000 A 
ATOM     22  C   UNL     1       2.201   7.518  19.764  0.00  0.00    +0.000 A 
ATOM     23  C   UNL     1       2.758   7.386  18.443  0.00  0.00    +0.000 A 
ATOM     24  C   UNL     1       2.580   8.457  17.585  0.00  0.00    +0.000 A 
ATOM     25  C   UNL     1       1.834   9.554  17.941  0.00  0.00    +0.000 A 
BRANCH  20  30
ATOM     26  C   UNL     1      -0.766  13.726  22.327  0.00  0.00    +0.000 C 
ATOM     27  N   UNL     1      -0.514  12.862  21.169  0.00  0.00    +0.000 NA
ATOM     28  C   UNL     1      -1.017  11.482  21.342  0.00  0.00    +0.000 C 
ATOM     29  C   UNL     1      -0.949  10.762  19.981  0.00  0.00    +0.000 C 
ATOM     30  N   UNL     1       0.426  10.843  19.494  0.00  0.00    +0.000 N 
ATOM     31  C   UNL     1       0.988  12.191  19.402  0.00  0.00    +0.000 C 
ATOM     32  C   UNL     1       0.908  12.836  20.777  0.00  0.00    +0.000 C 
ENDBRANCH  20  30
ENDBRANCH  18  23
ENDBRANCH   1  18
TORSDOF 4
ENDMDL
MODEL 9
REMARK VINA RESULT:      -8.3      2.895      9.240
REMARK  Name = 
REMARK  5 active torsions:
REMARK  status: ('A' for Active; 'I' for Inactive)
REMARK    1  A    between atoms: C_1  and  N_2
REMARK    2  A    between atoms: N_5  and  C_6
REMARK    3  A    between atoms: C_9  and  N_10
REMARK    4  A    between atoms: N_10  and  C_11
REMARK    5  A    between atoms: C_21  and  N_22
REMARK                            x       y       z     vdW  Elec       q    Type
REMARK                         _______ _______ _______ _____ _____    ______ ____
ROOT
ATOM      1  C   UNL     1      -0.665  11.828  18.755  0.00  0.00    +0.000 A 
ATOM      2  C   UNL     1      -1.760  11.279  18.143  0.00  0.00    +0.000 A 
ATOM      3  C   UNL     1      -1.603  10.365  17.121  0.00  0.00    +0.000 A 
ATOM      4  C   UNL     1      -2.728   9.899  16.466  0.00  0.00    +0.000 A 
ATOM      5  C   UNL     1      -4.004  10.359  16.840  0.00  0.00    +0.000 A 
ATOM      6  C   UNL     1      -4.174  11.228  17.951  0.00  0.00    +0.000 A 
ATOM      7  C   UNL     1      -3.031  11.678  18.644  0.00  0.00    +0.000 A 
ATOM      8  N   UNL     1      -2.992  12.419  19.839  0.00  0.00    +0.000 NA
ATOM      9  C   UNL     1      -1.813  13.125  20.077  0.00  0.00    +0.000 A 
ATOM     10  C   UNL     1      -0.906  13.088  21.245  0.00  0.00    +0.000 A 
ATOM     11  C   UNL     1       0.514  13.689  21.131  0.00  0.00    +0.000 A 
ATOM     12  C   UNL     1       0.348  14.751  20.363  0.00  0.00    +0.000 A 
ATOM     13  C   UNL     1      -0.389  14.537  19.209  0.00  0.00    +0.000 A 
ATOM     14  C   UNL     1      -1.060  13.279  18.966  0.00  0.00    +0.000 A 
ENDROOT
BRANCH  11  15
ATOM     15  N   UNL     1       1.641  13.007  20.483  0.00  0.00    +0.000 N 
ATOM     16  O   UNL     1       2.246  13.495  19.545  0.00  0.00    +0.000 OA
ATOM     17  O   UNL     1       2.289  12.098  21.161  0.00  0.00    +0.000 OA
ENDBRANCH  11  15
BRANCH   1  18
ATOM     18  N   UNL     1      -0.088  10.920  19.819  0.00  0.00    +0.000 N 
ATOM     19  H   UNL     1      -0.345  10.989  20.784  0.00  0.00    +0.000 HD
BRANCH  18  23
ATOM     20  C   UNL     1       2.151   7.198  19.765  0.00  0.00    +0.000 A 
ATOM     21  C   UNL     1       2.160   8.086  18.663  0.00  0.00    +0.000 A 
ATOM     22  C   UNL     1       1.434   9.277  18.684  0.00  0.00    +0.000 A 
ATOM     23  C   UNL     1       0.673   9.662  19.844  0.00  0.00    +0.000 A 
ATOM     24  C   UNL     1       0.752   8.825  20.943  0.00  0.00    +0.000 A 
ATOM     25  C   UNL     1       1.447   7.641  20.904  0.00  0.00    +0.000 A 
BRANCH  20  30
ATOM     26  C   UNL     1       3.168   2.060  18.168  0.00  0.00    +0.000 C 
ATOM     27  N   UNL     1       3.262   3.337  18.884  0.00  0.00    +0.000 NA
ATOM     28  C   UNL     1       2.086   3.624  19.735  0.00  0.00    +0.000 C 
ATOM     29  C   UNL     1       2.418   4.828  20.638  0.00  0.00    +0.000 C 
ATOM     30  N   UNL     1       2.823   5.938  19.780  0.00  0.00    +0.000 N 
ATOM     31  C   UNL     1       3.924   5.657  18.856  0.00  0.00    +0.000 C 
ATOM     32  C   UNL     1       3.526   4.476  17.986  0.00  0.00    +0.000 C 
ENDBRANCH  20  30
ENDBRANCH  18  23
ENDBRANCH   1  18
TORSDOF 4
ENDMDL
