MODEL 1
REMARK VINA RESULT:      -8.4      0.000      0.000
REMARK  Name = 
REMARK  7 active torsions:
REMARK  status: ('A' for Active; 'I' for Inactive)
REMARK    1  A    between atoms: C_1  and  C_2
REMARK    2  A    between atoms: C_2  and  N_3
REMARK    3  A    between atoms: C_4  and  C_6
REMARK    4  A    between atoms: N_24  and  C_25
REMARK    5  A    between atoms: C_27  and  C_28
REMARK    6  A    between atoms: C_28  and  C_29
REMARK    7  A    between atoms: N_32  and  C_33
REMARK                            x       y       z     vdW  Elec       q    Type
REMARK                         _______ _______ _______ _____ _____    ______ ____
ROOT
ATOM      1  C   UNL     1       3.760   5.645  17.458  0.00  0.00    +0.000 A 
ATOM      2  C   UNL     1       3.704   7.036  17.445  0.00  0.00    +0.000 A 
ATOM      3  C   UNL     1       3.022   7.750  18.431  0.00  0.00    +0.000 A 
ATOM      4  C   UNL     1       2.370   7.038  19.448  0.00  0.00    +0.000 A 
ATOM      5  C   UNL     1       2.395   5.637  19.472  0.00  0.00    +0.000 A 
ATOM      6  C   UNL     1       1.646   5.209  20.599  0.00  0.00    +0.000 A 
ATOM      7  C   UNL     1       1.206   6.339  21.245  0.00  0.00    +0.000 A 
ATOM      8  N   UNL     1       1.620   7.466  20.546  0.00  0.00    +0.000 N 
ATOM      9  C   UNL     1       1.202   8.812  20.865  0.00  0.00    +0.000 A 
ATOM     10  N   UNL     1       0.431   8.943  21.970  0.00  0.00    +0.000 NA
ATOM     11  C   UNL     1      -0.361  10.027  22.032  0.00  0.00    +0.000 A 
ATOM     12  C   UNL     1      -0.412  10.956  21.020  0.00  0.00    +0.000 A 
ATOM     13  C   UNL     1       0.572  10.876  20.032  0.00  0.00    +0.000 A 
ATOM     14  N   UNL     1       1.371   9.788  19.936  0.00  0.00    +0.000 NA
ATOM     15  N   UNL     1       0.421  11.820  18.916  0.00  0.00    +0.000 N 
ATOM     16  C   UNL     1       0.533  13.201  19.158  0.00  0.00    +0.000 A 
ATOM     17  C   UNL     1      -0.211  14.208  18.454  0.00  0.00    +0.000 A 
ATOM     18  C   UNL     1       0.071  15.408  19.055  0.00  0.00    +0.000 A 
ATOM     19  N   UNL     1       1.010  15.119  19.991  0.00  0.00    +0.000 N 
ATOM     20  C   UNL     1       1.772  16.098  20.731  0.00  0.00    +0.000 C 
ATOM     21  N   UNL     1       1.258  13.795  20.125  0.00  0.00    +0.000 NA
ATOM     22  C   UNL     1      -0.915  11.421  18.338  0.00  0.00    +0.000 C 
ATOM     23  C   UNL     1      -2.003  11.810  19.398  0.00  0.00    +0.000 C 
ATOM     24  O   UNL     1      -3.095  12.269  19.066  0.00  0.00    +0.000 OA
ATOM     25  N   UNL     1      -1.612  11.656  20.738  0.00  0.00    +0.000 N 
ATOM     26  C   UNL     1      -2.137  12.567  21.731  0.00  0.00    +0.000 C 
ATOM     27  C   UNL     1       3.087   4.928  18.459  0.00  0.00    +0.000 A 
ENDROOT
BRANCH   1  29
ATOM     28  N   UNL     1       5.175   5.655  15.481  0.00  0.00    +0.000 N 
ATOM     29  C   UNL     1       4.513   4.889  16.421  0.00  0.00    +0.000 C 
ATOM     30  O   UNL     1       4.551   3.664  16.448  0.00  0.00    +0.000 OA
ATOM     31  H   UNL     1       5.273   6.649  15.633  0.00  0.00    +0.000 HD
BRANCH  28  33
ATOM     32  C   UNL     1       7.420   4.874  14.909  0.00  0.00    +0.000 C 
ATOM     33  C   UNL     1       5.991   5.070  14.442  0.00  0.00    +0.000 C 
ENDBRANCH  28  33
ENDBRANCH   1  29
BRANCH  22  34
ATOM     34  C   UNL     1      -1.008   9.965  17.835  0.00  0.00    +0.000 C 
ATOM     35  C   UNL     1      -2.136   9.744  16.828  0.00  0.00    +0.000 C 
ENDBRANCH  22  34
TORSDOF 3
ENDMDL
MODEL 2
REMARK VINA RESULT:      -8.0      1.056      1.145
REMARK  Name = 
REMARK  7 active torsions:
REMARK  status: ('A' for Active; 'I' for Inactive)
REMARK    1  A    between atoms: C_1  and  C_2
REMARK    2  A    between atoms: C_2  and  N_3
REMARK    3  A    between atoms: C_4  and  C_6
REMARK    4  A    between atoms: N_24  and  C_25
REMARK    5  A    between atoms: C_27  and  C_28
REMARK    6  A    between atoms: C_28  and  C_29
REMARK    7  A    between atoms: N_32  and  C_33
REMARK                            x       y       z     vdW  Elec       q    Type
REMARK                         _______ _______ _______ _____ _____    ______ ____
ROOT
ATOM      1  C   UNL     1       4.364   6.067  16.904  0.00  0.00    +0.000 A 
ATOM      2  C   UNL     1       4.266   7.426  17.188  0.00  0.00    +0.000 A 
ATOM      3  C   UNL     1       3.490   7.899  18.246  0.00  0.00    +0.000 A 
ATOM      4  C   UNL     1       2.784   6.973  19.029  0.00  0.00    +0.000 A 
ATOM      5  C   UNL     1       2.850   5.601  18.749  0.00  0.00    +0.000 A 
ATOM      6  C   UNL     1       2.030   4.928  19.692  0.00  0.00    +0.000 A 
ATOM      7  C   UNL     1       1.507   5.882  20.529  0.00  0.00    +0.000 A 
ATOM      8  N   UNL     1       1.938   7.140  20.128  0.00  0.00    +0.000 N 
ATOM      9  C   UNL     1       1.457   8.378  20.696  0.00  0.00    +0.000 A 
ATOM     10  N   UNL     1       0.599   8.254  21.736  0.00  0.00    +0.000 NA
ATOM     11  C   UNL     1      -0.228   9.288  21.967  0.00  0.00    +0.000 A 
ATOM     12  C   UNL     1      -0.230  10.415  21.180  0.00  0.00    +0.000 A 
ATOM     13  C   UNL     1       0.829  10.567  20.282  0.00  0.00    +0.000 A 
ATOM     14  N   UNL     1       1.666   9.536  20.018  0.00  0.00    +0.000 NA
ATOM     15  N   UNL     1       0.735  11.730  19.388  0.00  0.00    +0.000 N 
ATOM     16  C   UNL     1       0.785  13.026  19.932  0.00  0.00    +0.000 A 
ATOM     17  C   UNL     1       0.067  14.151  19.405  0.00  0.00    +0.000 A 
ATOM     18  C   UNL     1       0.265  15.195  20.273  0.00  0.00    +0.000 A 
ATOM     19  N   UNL     1       1.138  14.721  21.198  0.00  0.00    +0.000 N 
ATOM     20  C   UNL     1       1.810  15.524  22.192  0.00  0.00    +0.000 C 
ATOM     21  N   UNL     1       1.415  13.403  21.060  0.00  0.00    +0.000 NA
ATOM     22  C   UNL     1      -0.540  11.448  18.630  0.00  0.00    +0.000 C 
ATOM     23  C   UNL     1      -1.718  11.582  19.657  0.00  0.00    +0.000 C 
ATOM     24  O   UNL     1      -2.795  12.087  19.345  0.00  0.00    +0.000 OA
ATOM     25  N   UNL     1      -1.426  11.144  20.960  0.00  0.00    +0.000 N 
ATOM     26  C   UNL     1      -2.053  11.809  22.080  0.00  0.00    +0.000 C 
ATOM     27  C   UNL     1       3.639   5.140  17.667  0.00  0.00    +0.000 A 
ENDROOT
BRANCH   1  29
ATOM     28  N   UNL     1       5.191   4.201  15.582  0.00  0.00    +0.000 N 
ATOM     29  C   UNL     1       5.217   5.566  15.792  0.00  0.00    +0.000 C 
ATOM     30  O   UNL     1       5.864   6.348  15.103  0.00  0.00    +0.000 OA
ATOM     31  H   UNL     1       4.488   3.642  16.046  0.00  0.00    +0.000 HD
BRANCH  28  33
ATOM     32  C   UNL     1       5.202   3.719  13.185  0.00  0.00    +0.000 C 
ATOM     33  C   UNL     1       5.924   3.569  14.510  0.00  0.00    +0.000 C 
ENDBRANCH  28  33
ENDBRANCH   1  29
BRANCH  22  34
ATOM     34  C   UNL     1      -0.549  10.136  17.818  0.00  0.00    +0.000 C 
ATOM     35  C   UNL     1      -1.862   9.895  17.074  0.00  0.00    +0.000 C 
ENDBRANCH  22  34
TORSDOF 3
ENDMDL
MODEL 3
REMARK VINA RESULT:      -7.3      5.268      7.604
REMARK  Name = 
REMARK  7 active torsions:
REMARK  status: ('A' for Active; 'I' for Inactive)
REMARK    1  A    between atoms: C_1  and  C_2
REMARK    2  A    between atoms: C_2  and  N_3
REMARK    3  A    between atoms: C_4  and  C_6
REMARK    4  A    between atoms: N_24  and  C_25
REMARK    5  A    between atoms: C_27  and  C_28
REMARK    6  A    between atoms: C_28  and  C_29
REMARK    7  A    between atoms: N_32  and  C_33
REMARK                            x       y       z     vdW  Elec       q    Type
REMARK                         _______ _______ _______ _____ _____    ______ ____
ROOT
ATOM      1  C   UNL     1      -3.048  10.328  15.044  0.00  0.00    +0.000 A 
ATOM      2  C   UNL     1      -3.762  11.407  15.557  0.00  0.00    +0.000 A 
ATOM      3  C   UNL     1      -3.579  11.851  16.866  0.00  0.00    +0.000 A 
ATOM      4  C   UNL     1      -2.657  11.177  17.682  0.00  0.00    +0.000 A 
ATOM      5  C   UNL     1      -1.941  10.075  17.195  0.00  0.00    +0.000 A 
ATOM      6  C   UNL     1      -1.109   9.602  18.243  0.00  0.00    +0.000 A 
ATOM      7  C   UNL     1      -1.311  10.425  19.324  0.00  0.00    +0.000 A 
ATOM      8  N   UNL     1      -2.269  11.380  19.008  0.00  0.00    +0.000 N 
ATOM      9  C   UNL     1      -2.829  12.308  19.963  0.00  0.00    +0.000 A 
ATOM     10  N   UNL     1      -2.296  12.265  21.208  0.00  0.00    +0.000 NA
ATOM     11  C   UNL     1      -3.066  12.716  22.213  0.00  0.00    +0.000 A 
ATOM     12  C   UNL     1      -4.343  13.181  22.007  0.00  0.00    +0.000 A 
ATOM     13  C   UNL     1      -4.731  13.410  20.685  0.00  0.00    +0.000 A 
ATOM     14  N   UNL     1      -3.983  12.952  19.654  0.00  0.00    +0.000 NA
ATOM     15  N   UNL     1      -6.134  13.807  20.501  0.00  0.00    +0.000 N 
ATOM     16  C   UNL     1      -6.581  15.033  21.026  0.00  0.00    +0.000 A 
ATOM     17  C   UNL     1      -7.902  15.258  21.541  0.00  0.00    +0.000 A 
ATOM     18  C   UNL     1      -7.914  16.521  22.075  0.00  0.00    +0.000 A 
ATOM     19  N   UNL     1      -6.691  17.034  21.788  0.00  0.00    +0.000 N 
ATOM     20  C   UNL     1      -6.310  18.417  21.961  0.00  0.00    +0.000 C 
ATOM     21  N   UNL     1      -5.845  16.143  21.221  0.00  0.00    +0.000 NA
ATOM     22  C   UNL     1      -6.879  12.614  21.051  0.00  0.00    +0.000 C 
ATOM     23  C   UNL     1      -6.623  12.594  22.598  0.00  0.00    +0.000 C 
ATOM     24  O   UNL     1      -7.506  12.282  23.396  0.00  0.00    +0.000 OA
ATOM     25  N   UNL     1      -5.344  13.016  22.997  0.00  0.00    +0.000 N 
ATOM     26  C   UNL     1      -5.195  13.704  24.260  0.00  0.00    +0.000 C 
ATOM     27  C   UNL     1      -2.146   9.635  15.864  0.00  0.00    +0.000 A 
ENDROOT
BRANCH   1  29
ATOM     28  N   UNL     1      -4.523   9.895  13.160  0.00  0.00    +0.000 N 
ATOM     29  C   UNL     1      -3.226   9.878  13.636  0.00  0.00    +0.000 C 
ATOM     30  O   UNL     1      -2.257   9.551  12.960  0.00  0.00    +0.000 OA
ATOM     31  H   UNL     1      -5.240  10.365  13.694  0.00  0.00    +0.000 HD
BRANCH  28  33
ATOM     32  C   UNL     1      -6.324   9.754  11.513  0.00  0.00    +0.000 C 
ATOM     33  C   UNL     1      -4.851   9.537  11.800  0.00  0.00    +0.000 C 
ENDBRANCH  28  33
ENDBRANCH   1  29
BRANCH  22  34
ATOM     34  C   UNL     1      -6.595  11.274  20.341  0.00  0.00    +0.000 C 
ATOM     35  C   UNL     1      -7.600  10.178  20.694  0.00  0.00    +0.000 C 
ENDBRANCH  22  34
TORSDOF 3
ENDMDL
MODEL 4
REMARK VINA RESULT:      -7.2      2.953      5.924
REMARK  Name = 
REMARK  7 active torsions:
REMARK  status: ('A' for Active; 'I' for Inactive)
REMARK    1  A    between atoms: C_1  and  C_2
REMARK    2  A    between atoms: C_2  and  N_3
REMARK    3  A    between atoms: C_4  and  C_6
REMARK    4  A    between atoms: N_24  and  C_25
REMARK    5  A    between atoms: C_27  and  C_28
REMARK    6  A    between atoms: C_28  and  C_29
REMARK    7  A    between atoms: N_32  and  C_33
REMARK                            x       y       z     vdW  Elec       q    Type
REMARK                         _______ _______ _______ _____ _____    ______ ____
ROOT
ATOM      1  C   UNL     1       1.912   9.334  18.147  0.00  0.00    +0.000 A 
ATOM      2  C   UNL     1       0.585   9.440  18.553  0.00  0.00    +0.000 A 
ATOM      3  C   UNL     1      -0.006  10.677  18.809  0.00  0.00    +0.000 A 
ATOM      4  C   UNL     1       0.771  11.836  18.663  0.00  0.00    +0.000 A 
ATOM      5  C   UNL     1       2.114  11.754  18.274  0.00  0.00    +0.000 A 
ATOM      6  C   UNL     1       2.633  13.074  18.226  0.00  0.00    +0.000 A 
ATOM      7  C   UNL     1       1.606  13.925  18.557  0.00  0.00    +0.000 A 
ATOM      8  N   UNL     1       0.466  13.187  18.848  0.00  0.00    +0.000 N 
ATOM      9  C   UNL     1      -0.752  13.757  19.377  0.00  0.00    +0.000 A 
ATOM     10  N   UNL     1      -0.765  15.106  19.500  0.00  0.00    +0.000 NA
ATOM     11  C   UNL     1      -1.617  15.624  20.401  0.00  0.00    +0.000 A 
ATOM     12  C   UNL     1      -2.426  14.834  21.183  0.00  0.00    +0.000 A 
ATOM     13  C   UNL     1      -2.524  13.484  20.839  0.00  0.00    +0.000 A 
ATOM     14  N   UNL     1      -1.668  12.933  19.947  0.00  0.00    +0.000 NA
ATOM     15  N   UNL     1      -3.315  12.655  21.759  0.00  0.00    +0.000 N 
ATOM     16  C   UNL     1      -4.694  12.898  21.897  0.00  0.00    +0.000 A 
ATOM     17  C   UNL     1      -5.426  12.725  23.120  0.00  0.00    +0.000 A 
ATOM     18  C   UNL     1      -6.700  13.181  22.892  0.00  0.00    +0.000 A 
ATOM     19  N   UNL     1      -6.726  13.503  21.573  0.00  0.00    +0.000 N 
ATOM     20  C   UNL     1      -7.916  13.825  20.822  0.00  0.00    +0.000 C 
ATOM     21  N   UNL     1      -5.520  13.409  20.965  0.00  0.00    +0.000 NA
ATOM     22  C   UNL     1      -2.551  12.797  23.054  0.00  0.00    +0.000 C 
ATOM     23  C   UNL     1      -2.731  14.281  23.527  0.00  0.00    +0.000 C 
ATOM     24  O   UNL     1      -2.875  14.569  24.714  0.00  0.00    +0.000 OA
ATOM     25  N   UNL     1      -2.780  15.234  22.496  0.00  0.00    +0.000 N 
ATOM     26  C   UNL     1      -3.600  16.412  22.669  0.00  0.00    +0.000 C 
ATOM     27  C   UNL     1       2.699  10.488  18.025  0.00  0.00    +0.000 A 
ENDROOT
BRANCH   1  29
ATOM     28  N   UNL     1       2.219   6.991  18.724  0.00  0.00    +0.000 N 
ATOM     29  C   UNL     1       2.529   8.012  17.847  0.00  0.00    +0.000 C 
ATOM     30  O   UNL     1       3.234   7.866  16.855  0.00  0.00    +0.000 OA
ATOM     31  H   UNL     1       1.477   7.124  19.397  0.00  0.00    +0.000 HD
BRANCH  28  33
ATOM     32  C   UNL     1       1.656   4.777  17.855  0.00  0.00    +0.000 C 
ATOM     33  C   UNL     1       2.698   5.641  18.539  0.00  0.00    +0.000 C 
ENDBRANCH  28  33
ENDBRANCH   1  29
BRANCH  22  34
ATOM     34  C   UNL     1      -1.086  12.315  23.011  0.00  0.00    +0.000 C 
ATOM     35  C   UNL     1      -0.949  10.793  23.037  0.00  0.00    +0.000 C 
ENDBRANCH  22  34
TORSDOF 3
ENDMDL
MODEL 5
REMARK VINA RESULT:      -7.0      2.991      5.721
REMARK  Name = 
REMARK  7 active torsions:
REMARK  status: ('A' for Active; 'I' for Inactive)
REMARK    1  A    between atoms: C_1  and  C_2
REMARK    2  A    between atoms: C_2  and  N_3
REMARK    3  A    between atoms: C_4  and  C_6
REMARK    4  A    between atoms: N_24  and  C_25
REMARK    5  A    between atoms: C_27  and  C_28
REMARK    6  A    between atoms: C_28  and  C_29
REMARK    7  A    between atoms: N_32  and  C_33
REMARK                            x       y       z     vdW  Elec       q    Type
REMARK                         _______ _______ _______ _____ _____    ______ ____
ROOT
ATOM      1  C   UNL     1       1.802   9.124  18.207  0.00  0.00    +0.000 A 
ATOM      2  C   UNL     1       0.477   9.269  18.607  0.00  0.00    +0.000 A 
ATOM      3  C   UNL     1      -0.083  10.525  18.843  0.00  0.00    +0.000 A 
ATOM      4  C   UNL     1       0.724  11.662  18.681  0.00  0.00    +0.000 A 
ATOM      5  C   UNL     1       2.066  11.540  18.298  0.00  0.00    +0.000 A 
ATOM      6  C   UNL     1       2.618  12.846  18.232  0.00  0.00    +0.000 A 
ATOM      7  C   UNL     1       1.612  13.727  18.547  0.00  0.00    +0.000 A 
ATOM      8  N   UNL     1       0.453  13.023  18.845  0.00  0.00    +0.000 N 
ATOM      9  C   UNL     1      -0.751  13.631  19.362  0.00  0.00    +0.000 A 
ATOM     10  N   UNL     1      -0.731  14.981  19.465  0.00  0.00    +0.000 NA
ATOM     11  C   UNL     1      -1.571  15.534  20.356  0.00  0.00    +0.000 A 
ATOM     12  C   UNL     1      -2.402  14.778  21.147  0.00  0.00    +0.000 A 
ATOM     13  C   UNL     1      -2.534  13.425  20.823  0.00  0.00    +0.000 A 
ATOM     14  N   UNL     1      -1.690  12.839  19.942  0.00  0.00    +0.000 NA
ATOM     15  N   UNL     1      -3.348  12.631  21.753  0.00  0.00    +0.000 N 
ATOM     16  C   UNL     1      -4.721  12.910  21.883  0.00  0.00    +0.000 A 
ATOM     17  C   UNL     1      -5.460  12.774  23.106  0.00  0.00    +0.000 A 
ATOM     18  C   UNL     1      -6.721  13.259  22.868  0.00  0.00    +0.000 A 
ATOM     19  N   UNL     1      -6.735  13.561  21.545  0.00  0.00    +0.000 N 
ATOM     20  C   UNL     1      -7.916  13.902  20.785  0.00  0.00    +0.000 C 
ATOM     21  N   UNL     1      -5.531  13.428  20.941  0.00  0.00    +0.000 NA
ATOM     22  C   UNL     1      -2.584  12.772  23.047  0.00  0.00    +0.000 C 
ATOM     23  C   UNL     1      -2.728  14.267  23.498  0.00  0.00    +0.000 C 
ATOM     24  O   UNL     1      -2.867  14.576  24.681  0.00  0.00    +0.000 OA
ATOM     25  N   UNL     1      -2.749  15.206  22.453  0.00  0.00    +0.000 N 
ATOM     26  C   UNL     1      -3.540  16.407  22.606  0.00  0.00    +0.000 C 
ATOM     27  C   UNL     1       2.619  10.256  18.070  0.00  0.00    +0.000 A 
ENDROOT
BRANCH   1  29
ATOM     28  N   UNL     1       3.664   7.781  17.403  0.00  0.00    +0.000 N 
ATOM     29  C   UNL     1       2.386   7.783  17.928  0.00  0.00    +0.000 C 
ATOM     30  O   UNL     1       1.758   6.764  18.192  0.00  0.00    +0.000 OA
ATOM     31  H   UNL     1       4.200   8.638  17.401  0.00  0.00    +0.000 HD
BRANCH  28  33
ATOM     32  C   UNL     1       5.884   6.778  17.197  0.00  0.00    +0.000 C 
ATOM     33  C   UNL     1       4.385   6.561  17.127  0.00  0.00    +0.000 C 
ENDBRANCH  28  33
ENDBRANCH   1  29
BRANCH  22  34
ATOM     34  C   UNL     1      -1.131  12.253  23.016  0.00  0.00    +0.000 C 
ATOM     35  C   UNL     1      -1.034  10.728  23.015  0.00  0.00    +0.000 C 
ENDBRANCH  22  34
TORSDOF 3
ENDMDL
MODEL 6
REMARK VINA RESULT:      -6.7      5.346      8.400
REMARK  Name = 
REMARK  7 active torsions:
REMARK  status: ('A' for Active; 'I' for Inactive)
REMARK    1  A    between atoms: C_1  and  C_2
REMARK    2  A    between atoms: C_2  and  N_3
REMARK    3  A    between atoms: C_4  and  C_6
REMARK    4  A    between atoms: N_24  and  C_25
REMARK    5  A    between atoms: C_27  and  C_28
REMARK    6  A    between atoms: C_28  and  C_29
REMARK    7  A    between atoms: N_32  and  C_33
REMARK                            x       y       z     vdW  Elec       q    Type
REMARK                         _______ _______ _______ _____ _____    ______ ____
ROOT
ATOM      1  C   UNL     1      -0.694  11.959  18.874  0.00  0.00    +0.000 A 
ATOM      2  C   UNL     1       0.696  11.918  18.819  0.00  0.00    +0.000 A 
ATOM      3  C   UNL     1       1.486  12.653  19.702  0.00  0.00    +0.000 A 
ATOM      4  C   UNL     1       0.852  13.461  20.659  0.00  0.00    +0.000 A 
ATOM      5  C   UNL     1      -0.545  13.535  20.721  0.00  0.00    +0.000 A 
ATOM      6  C   UNL     1      -0.886  14.432  21.767  0.00  0.00    +0.000 A 
ATOM      7  C   UNL     1       0.291  14.863  22.330  0.00  0.00    +0.000 A 
ATOM      8  N   UNL     1       1.364  14.298  21.653  0.00  0.00    +0.000 N 
ATOM      9  C   UNL     1       2.745  14.654  21.888  0.00  0.00    +0.000 A 
ATOM     10  N   UNL     1       2.963  15.533  22.896  0.00  0.00    +0.000 NA
ATOM     11  C   UNL     1       4.097  16.250  22.840  0.00  0.00    +0.000 A 
ATOM     12  C   UNL     1       4.993  16.125  21.805  0.00  0.00    +0.000 A 
ATOM     13  C   UNL     1       4.817  15.045  20.936  0.00  0.00    +0.000 A 
ATOM     14  N   UNL     1       3.677  14.317  20.960  0.00  0.00    +0.000 NA
ATOM     15  N   UNL     1       5.731  15.007  19.787  0.00  0.00    +0.000 N 
ATOM     16  C   UNL     1       7.109  14.828  20.004  0.00  0.00    +0.000 A 
ATOM     17  C   UNL     1       8.138  15.419  19.195  0.00  0.00    +0.000 A 
ATOM     18  C   UNL     1       9.337  15.124  19.793  0.00  0.00    +0.000 A 
ATOM     19  N   UNL     1       9.018  14.316  20.836  0.00  0.00    +0.000 N 
ATOM     20  C   UNL     1       9.969  13.575  21.632  0.00  0.00    +0.000 C 
ATOM     21  N   UNL     1       7.686  14.176  21.031  0.00  0.00    +0.000 NA
ATOM     22  C   UNL     1       5.401  16.295  19.072  0.00  0.00    +0.000 C 
ATOM     23  C   UNL     1       5.895  17.464  19.993  0.00  0.00    +0.000 C 
ATOM     24  O   UNL     1       6.413  18.479  19.528  0.00  0.00    +0.000 OA
ATOM     25  N   UNL     1       5.761  17.236  21.372  0.00  0.00    +0.000 N 
ATOM     26  C   UNL     1       6.737  17.803  22.275  0.00  0.00    +0.000 C 
ATOM     27  C   UNL     1      -1.332  12.786  19.810  0.00  0.00    +0.000 A 
ENDROOT
BRANCH   1  29
ATOM     28  N   UNL     1      -2.118  11.842  16.907  0.00  0.00    +0.000 N 
ATOM     29  C   UNL     1      -1.532  11.149  17.947  0.00  0.00    +0.000 C 
ATOM     30  O   UNL     1      -1.645   9.939  18.108  0.00  0.00    +0.000 OA
ATOM     31  H   UNL     1      -1.823  12.789  16.714  0.00  0.00    +0.000 HD
BRANCH  28  33
ATOM     32  C   UNL     1      -4.389  11.208  16.260  0.00  0.00    +0.000 C 
ATOM     33  C   UNL     1      -2.917  11.190  15.896  0.00  0.00    +0.000 C 
ENDBRANCH  28  33
ENDBRANCH   1  29
BRANCH  22  34
ATOM     34  C   UNL     1       3.938  16.431  18.600  0.00  0.00    +0.000 C 
ATOM     35  C   UNL     1       3.571  15.456  17.481  0.00  0.00    +0.000 C 
ENDBRANCH  22  34
TORSDOF 3
ENDMDL
MODEL 7
REMARK VINA RESULT:      -6.5      3.484      6.706
REMARK  Name = 
REMARK  7 active torsions:
REMARK  status: ('A' for Active; 'I' for Inactive)
REMARK    1  A    between atoms: C_1  and  C_2
REMARK    2  A    between atoms: C_2  and  N_3
REMARK    3  A    between atoms: C_4  and  C_6
REMARK    4  A    between atoms: N_24  and  C_25
REMARK    5  A    between atoms: C_27  and  C_28
REMARK    6  A    between atoms: C_28  and  C_29
REMARK    7  A    between atoms: N_32  and  C_33
REMARK                            x       y       z     vdW  Elec       q    Type
REMARK                         _______ _______ _______ _____ _____    ______ ____
ROOT
ATOM      1  C   UNL     1       1.416  10.226  18.609  0.00  0.00    +0.000 A 
ATOM      2  C   UNL     1       0.118  10.467  19.049  0.00  0.00    +0.000 A 
ATOM      3  C   UNL     1      -0.361  11.762  19.247  0.00  0.00    +0.000 A 
ATOM      4  C   UNL     1       0.502  12.842  19.004  0.00  0.00    +0.000 A 
ATOM      5  C   UNL     1       1.819  12.625  18.580  0.00  0.00    +0.000 A 
ATOM      6  C   UNL     1       2.441  13.892  18.433  0.00  0.00    +0.000 A 
ATOM      7  C   UNL     1       1.500  14.844  18.743  0.00  0.00    +0.000 A 
ATOM      8  N   UNL     1       0.314  14.222  19.114  0.00  0.00    +0.000 N 
ATOM      9  C   UNL     1      -0.833  14.921  19.645  0.00  0.00    +0.000 A 
ATOM     10  N   UNL     1      -0.732  16.271  19.685  0.00  0.00    +0.000 NA
ATOM     11  C   UNL     1      -1.505  16.911  20.579  0.00  0.00    +0.000 A 
ATOM     12  C   UNL     1      -2.347  16.239  21.433  0.00  0.00    +0.000 A 
ATOM     13  C   UNL     1      -2.567  14.884  21.176  0.00  0.00    +0.000 A 
ATOM     14  N   UNL     1      -1.792  14.212  20.294  0.00  0.00    +0.000 NA
ATOM     15  N   UNL     1      -3.389  14.180  22.171  0.00  0.00    +0.000 N 
ATOM     16  C   UNL     1      -4.737  14.544  22.337  0.00  0.00    +0.000 A 
ATOM     17  C   UNL     1      -5.436  14.505  23.591  0.00  0.00    +0.000 A 
ATOM     18  C   UNL     1      -6.675  15.051  23.375  0.00  0.00    +0.000 A 
ATOM     19  N   UNL     1      -6.723  15.296  22.041  0.00  0.00    +0.000 N 
ATOM     20  C   UNL     1      -7.911  15.671  21.309  0.00  0.00    +0.000 C 
ATOM     21  N   UNL     1      -5.552  15.066  21.402  0.00  0.00    +0.000 NA
ATOM     22  C   UNL     1      -2.569  14.333  23.429  0.00  0.00    +0.000 C 
ATOM     23  C   UNL     1      -2.610  15.853  23.815  0.00  0.00    +0.000 C 
ATOM     24  O   UNL     1      -2.687  16.221  24.987  0.00  0.00    +0.000 OA
ATOM     25  N   UNL     1      -2.619  16.744  22.730  0.00  0.00    +0.000 N 
ATOM     26  C   UNL     1      -3.334  17.995  22.855  0.00  0.00    +0.000 C 
ATOM     27  C   UNL     1       2.290  11.302  18.391  0.00  0.00    +0.000 A 
ENDROOT
BRANCH   1  29
ATOM     28  N   UNL     1       2.056   8.055  19.497  0.00  0.00    +0.000 N 
ATOM     29  C   UNL     1       1.912   8.843  18.372  0.00  0.00    +0.000 C 
ATOM     30  O   UNL     1       2.136   8.450  17.232  0.00  0.00    +0.000 OA
ATOM     31  H   UNL     1       1.663   8.368  20.374  0.00  0.00    +0.000 HD
BRANCH  28  33
ATOM     32  C   UNL     1       1.750   5.824  20.448  0.00  0.00    +0.000 C 
ATOM     33  C   UNL     1       2.477   6.675  19.426  0.00  0.00    +0.000 C 
ENDBRANCH  28  33
ENDBRANCH   1  29
BRANCH  22  34
ATOM     34  C   UNL     1      -1.150  13.730  23.370  0.00  0.00    +0.000 C 
ATOM     35  C   UNL     1      -1.144  12.227  23.092  0.00  0.00    +0.000 C 
ENDBRANCH  22  34
TORSDOF 3
ENDMDL
MODEL 8
REMARK VINA RESULT:      -6.4      3.153      5.679
REMARK  Name = 
REMARK  7 active torsions:
REMARK  status: ('A' for Active; 'I' for Inactive)
REMARK    1  A    between atoms: C_1  and  C_2
REMARK    2  A    between atoms: C_2  and  N_3
REMARK    3  A    between atoms: C_4  and  C_6
REMARK    4  A    between atoms: N_24  and  C_25
REMARK    5  A    between atoms: C_27  and  C_28
REMARK    6  A    between atoms: C_28  and  C_29
REMARK    7  A    between atoms: N_32  and  C_33
REMARK                            x       y       z     vdW  Elec       q    Type
REMARK                         _______ _______ _______ _____ _____    ______ ____
ROOT
ATOM      1  C   UNL     1       1.105   9.393  18.525  0.00  0.00    +0.000 A 
ATOM      2  C   UNL     1       1.334  10.210  19.629  0.00  0.00    +0.000 A 
ATOM      3  C   UNL     1       0.366  11.099  20.094  0.00  0.00    +0.000 A 
ATOM      4  C   UNL     1      -0.861  11.173  19.417  0.00  0.00    +0.000 A 
ATOM      5  C   UNL     1      -1.107  10.375  18.292  0.00  0.00    +0.000 A 
ATOM      6  C   UNL     1      -2.412  10.679  17.823  0.00  0.00    +0.000 A 
ATOM      7  C   UNL     1      -2.938  11.622  18.671  0.00  0.00    +0.000 A 
ATOM      8  N   UNL     1      -1.999  11.953  19.639  0.00  0.00    +0.000 N 
ATOM      9  C   UNL     1      -2.168  13.021  20.597  0.00  0.00    +0.000 A 
ATOM     10  N   UNL     1      -3.365  13.654  20.568  0.00  0.00    +0.000 NA
ATOM     11  C   UNL     1      -3.401  14.906  21.054  0.00  0.00    +0.000 A 
ATOM     12  C   UNL     1      -2.281  15.536  21.541  0.00  0.00    +0.000 A 
ATOM     13  C   UNL     1      -1.147  14.747  21.752  0.00  0.00    +0.000 A 
ATOM     14  N   UNL     1      -1.078  13.489  21.259  0.00  0.00    +0.000 NA
ATOM     15  N   UNL     1       0.057  15.475  22.174  0.00  0.00    +0.000 N 
ATOM     16  C   UNL     1       0.070  16.129  23.420  0.00  0.00    +0.000 A 
ATOM     17  C   UNL     1       0.771  17.354  23.682  0.00  0.00    +0.000 A 
ATOM     18  C   UNL     1       0.440  17.740  24.955  0.00  0.00    +0.000 A 
ATOM     19  N   UNL     1      -0.332  16.734  25.437  0.00  0.00    +0.000 N 
ATOM     20  C   UNL     1      -0.742  16.590  26.815  0.00  0.00    +0.000 C 
ATOM     21  N   UNL     1      -0.629  15.786  24.518  0.00  0.00    +0.000 NA
ATOM     22  C   UNL     1       0.294  16.404  21.008  0.00  0.00    +0.000 C 
ATOM     23  C   UNL     1      -0.879  17.446  21.013  0.00  0.00    +0.000 C 
ATOM     24  O   UNL     1      -0.694  18.630  20.736  0.00  0.00    +0.000 OA
ATOM     25  N   UNL     1      -2.125  16.939  21.417  0.00  0.00    +0.000 N 
ATOM     26  C   UNL     1      -3.038  17.807  22.126  0.00  0.00    +0.000 C 
ATOM     27  C   UNL     1      -0.109   9.482  17.829  0.00  0.00    +0.000 A 
ENDROOT
BRANCH   1  29
ATOM     28  N   UNL     1       2.290   7.290  18.823  0.00  0.00    +0.000 N 
ATOM     29  C   UNL     1       2.132   8.424  18.051  0.00  0.00    +0.000 C 
ATOM     30  O   UNL     1       2.755   8.635  17.016  0.00  0.00    +0.000 OA
ATOM     31  H   UNL     1       1.610   7.081  19.541  0.00  0.00    +0.000 HD
BRANCH  28  33
ATOM     32  C   UNL     1       2.471   5.019  17.936  0.00  0.00    +0.000 C 
ATOM     33  C   UNL     1       3.208   6.234  18.467  0.00  0.00    +0.000 C 
ENDBRANCH  28  33
ENDBRANCH   1  29
BRANCH  22  34
ATOM     34  C   UNL     1       0.525  15.712  19.649  0.00  0.00    +0.000 C 
ATOM     35  C   UNL     1       1.874  14.999  19.555  0.00  0.00    +0.000 C 
ENDBRANCH  22  34
TORSDOF 3
ENDMDL
MODEL 9
REMARK VINA RESULT:      -6.4      5.306      7.853
REMARK  Name = 
REMARK  7 active torsions:
REMARK  status: ('A' for Active; 'I' for Inactive)
REMARK    1  A    between atoms: C_1  and  C_2
REMARK    2  A    between atoms: C_2  and  N_3
REMARK    3  A    between atoms: C_4  and  C_6
REMARK    4  A    between atoms: N_24  and  C_25
REMARK    5  A    between atoms: C_27  and  C_28
REMARK    6  A    between atoms: C_28  and  C_29
REMARK    7  A    between atoms: N_32  and  C_33
REMARK                            x       y       z     vdW  Elec       q    Type
REMARK                         _______ _______ _______ _____ _____    ______ ____
ROOT
ATOM      1  C   UNL     1      -1.677  11.451  18.702  0.00  0.00    +0.000 A 
ATOM      2  C   UNL     1      -0.303  11.448  18.928  0.00  0.00    +0.000 A 
ATOM      3  C   UNL     1       0.290  12.317  19.844  0.00  0.00    +0.000 A 
ATOM      4  C   UNL     1      -0.527  13.220  20.541  0.00  0.00    +0.000 A 
ATOM      5  C   UNL     1      -1.910  13.256  20.316  0.00  0.00    +0.000 A 
ATOM      6  C   UNL     1      -2.458  14.269  21.146  0.00  0.00    +0.000 A 
ATOM      7  C   UNL     1      -1.420  14.807  21.867  0.00  0.00    +0.000 A 
ATOM      8  N   UNL     1      -0.229  14.194  21.496  0.00  0.00    +0.000 N 
ATOM      9  C   UNL     1       1.074  14.623  21.949  0.00  0.00    +0.000 A 
ATOM     10  N   UNL     1       1.081  15.631  22.854  0.00  0.00    +0.000 NA
ATOM     11  C   UNL     1       2.199  16.372  22.928  0.00  0.00    +0.000 A 
ATOM     12  C   UNL     1       3.285  16.144  22.115  0.00  0.00    +0.000 A 
ATOM     13  C   UNL     1       3.292  14.956  21.380  0.00  0.00    +0.000 A 
ATOM     14  N   UNL     1       2.175  14.200  21.275  0.00  0.00    +0.000 NA
ATOM     15  N   UNL     1       4.418  14.799  20.448  0.00  0.00    +0.000 N 
ATOM     16  C   UNL     1       5.726  14.695  20.955  0.00  0.00    +0.000 A 
ATOM     17  C   UNL     1       6.891  15.210  20.293  0.00  0.00    +0.000 A 
ATOM     18  C   UNL     1       7.948  15.033  21.149  0.00  0.00    +0.000 A 
ATOM     19  N   UNL     1       7.433  14.357  22.207  0.00  0.00    +0.000 N 
ATOM     20  C   UNL     1       8.212  13.757  23.265  0.00  0.00    +0.000 C 
ATOM     21  N   UNL     1       6.090  14.200  22.152  0.00  0.00    +0.000 NA
ATOM     22  C   UNL     1       4.228  15.973  19.518  0.00  0.00    +0.000 C 
ATOM     23  C   UNL     1       4.522  17.267  20.354  0.00  0.00    +0.000 C 
ATOM     24  O   UNL     1       5.115  18.230  19.870  0.00  0.00    +0.000 OA
ATOM     25  N   UNL     1       4.116  17.214  21.698  0.00  0.00    +0.000 N 
ATOM     26  C   UNL     1       4.889  17.924  22.692  0.00  0.00    +0.000 C 
ATOM     27  C   UNL     1      -2.494  12.370  19.377  0.00  0.00    +0.000 A 
ENDROOT
BRANCH   1  29
ATOM     28  N   UNL     1      -1.980  10.681  16.416  0.00  0.00    +0.000 N 
ATOM     29  C   UNL     1      -2.308  10.501  17.745  0.00  0.00    +0.000 C 
ATOM     30  O   UNL     1      -3.042   9.606  18.150  0.00  0.00    +0.000 OA
ATOM     31  H   UNL     1      -1.218  11.299  16.173  0.00  0.00    +0.000 HD
BRANCH  28  33
ATOM     32  C   UNL     1      -3.717  10.375  14.723  0.00  0.00    +0.000 C 
ATOM     33  C   UNL     1      -2.470   9.809  15.374  0.00  0.00    +0.000 C 
ENDBRANCH  28  33
ENDBRANCH   1  29
BRANCH  22  34
ATOM     34  C   UNL     1       2.888  15.999  18.753  0.00  0.00    +0.000 C 
ATOM     35  C   UNL     1       3.014  16.545  17.331  0.00  0.00    +0.000 C 
ENDBRANCH  22  34
TORSDOF 3
ENDMDL
