MODEL 1
REMARK VINA RESULT:      -6.8      0.000      0.000
REMARK  Name = 
REMARK  12 active torsions:
REMARK  status: ('A' for Active; 'I' for Inactive)
REMARK    1  A    between atoms: C_1  and  O_2
REMARK    2  A    between atoms: O_2  and  C_3
REMARK    3  A    between atoms: C_6  and  C_7
REMARK    4  A    between atoms: N_9  and  C_10
REMARK    5  A    between atoms: C_10  and  C_11
REMARK    6  A    between atoms: C_10  and  C_17
REMARK    7  A    between atoms: N_13  and  C_14
REMARK    8  A    between atoms: C_14  and  C_15
REMARK    9  A    between atoms: C_14  and  C_16
REMARK   10  A    between atoms: C_21  and  C_23
REMARK   11  A    between atoms: C_27  and  O_28
REMARK   12  A    between atoms: O_28  and  C_29
REMARK                            x       y       z     vdW  Elec       q    Type
REMARK                         _______ _______ _______ _____ _____    ______ ____
ROOT
ATOM      1  C   UNL     1       0.933  11.397  19.966  0.00  0.00    +0.000 C 
ENDROOT
BRANCH   1   2
ATOM      2  C   UNL     1       0.177  10.183  19.364  0.00  0.00    +0.000 C 
ATOM      3  C   UNL     1      -0.239   9.137  20.420  0.00  0.00    +0.000 C 
ATOM      4  C   UNL     1       0.945   8.364  21.011  0.00  0.00    +0.000 C 
ATOM      5  N   UNL     1       1.779   7.765  19.967  0.00  0.00    +0.000 N 
ATOM      6  C   UNL     1       2.198   6.429  20.135  0.00  0.00    +0.000 C 
ATOM      7  O   UNL     1       1.815   5.741  21.095  0.00  0.00    +0.000 OA
ATOM      8  C   UNL     1       2.181   8.681  18.893  0.00  0.00    +0.000 C 
ATOM      9  C   UNL     1       0.999   9.436  18.301  0.00  0.00    +0.000 C 
BRANCH   6  10
ATOM     10  C   UNL     1       3.077   5.757  19.141  0.00  0.00    +0.000 A 
ATOM     11  C   UNL     1       2.485   5.000  18.121  0.00  0.00    +0.000 A 
ATOM     12  C   UNL     1       3.278   4.412  17.132  0.00  0.00    +0.000 A 
ATOM     13  C   UNL     1       4.659   4.616  17.139  0.00  0.00    +0.000 A 
ATOM     14  C   UNL     1       5.263   5.342  18.167  0.00  0.00    +0.000 A 
ATOM     15  C   UNL     1       4.471   5.830  19.208  0.00  0.00    +0.000 A 
BRANCH  14  16
ATOM     16  O   UNL     1       6.617   5.513  18.064  0.00  0.00    +0.000 OA
ATOM     17  C   UNL     1       7.317   4.583  17.242  0.00  0.00    +0.000 C 
ENDBRANCH  14  16
ENDBRANCH   6  10
ENDBRANCH   1   2
BRANCH   1  20
ATOM     18  C   UNL     1      -0.983  12.468  21.245  0.00  0.00    +0.000 C 
ATOM     19  O   UNL     1      -1.775  12.345  20.318  0.00  0.00    +0.000 OA
ATOM     20  N   UNL     1       0.315  12.003  21.160  0.00  0.00    +0.000 N 
ATOM     21  H   UNL     1       0.977  12.317  21.851  0.00  0.00    +0.000 HD
BRANCH  18  25
ATOM     22  C   UNL     1      -2.344  14.920  24.523  0.00  0.00    +0.000 A 
ATOM     23  C   UNL     1      -3.078  13.819  24.088  0.00  0.00    +0.000 A 
ATOM     24  C   UNL     1      -2.590  12.998  23.065  0.00  0.00    +0.000 A 
ATOM     25  C   UNL     1      -1.358  13.273  22.454  0.00  0.00    +0.000 A 
ATOM     26  C   UNL     1      -0.594  14.340  22.945  0.00  0.00    +0.000 A 
ATOM     27  C   UNL     1      -1.096  15.175  23.956  0.00  0.00    +0.000 A 
BRANCH  22  29
ATOM     28  C   UNL     1      -4.056  16.479  25.043  0.00  0.00    +0.000 C 
ATOM     29  O   UNL     1      -2.959  15.683  25.476  0.00  0.00    +0.000 OA
ENDBRANCH  22  29
ENDBRANCH  18  25
ENDBRANCH   1  20
BRANCH   1  30
ATOM     30  C   UNL     1       1.287  12.474  18.901  0.00  0.00    +0.000 C 
ATOM     31  O   UNL     1       0.491  12.757  18.003  0.00  0.00    +0.000 OA
ATOM     32  N   UNL     1       2.456  13.172  19.101  0.00  0.00    +0.000 N 
ATOM     33  H   UNL     1       3.052  12.890  19.880  0.00  0.00    +0.000 HD
BRANCH  32  34
ATOM     34  C   UNL     1       2.916  14.232  18.216  0.00  0.00    +0.000 C 
ATOM     35  C   UNL     1       2.341  15.576  18.653  0.00  0.00    +0.000 C 
ATOM     36  C   UNL     1       4.443  14.296  18.178  0.00  0.00    +0.000 C 
ENDBRANCH  32  34
ENDBRANCH   1  30
TORSDOF 8
ENDMDL
MODEL 2
REMARK VINA RESULT:      -6.8      3.190      6.181
REMARK  Name = 
REMARK  12 active torsions:
REMARK  status: ('A' for Active; 'I' for Inactive)
REMARK    1  A    between atoms: C_1  and  O_2
REMARK    2  A    between atoms: O_2  and  C_3
REMARK    3  A    between atoms: C_6  and  C_7
REMARK    4  A    between atoms: N_9  and  C_10
REMARK    5  A    between atoms: C_10  and  C_11
REMARK    6  A    between atoms: C_10  and  C_17
REMARK    7  A    between atoms: N_13  and  C_14
REMARK    8  A    between atoms: C_14  and  C_15
REMARK    9  A    between atoms: C_14  and  C_16
REMARK   10  A    between atoms: C_21  and  C_23
REMARK   11  A    between atoms: C_27  and  O_28
REMARK   12  A    between atoms: O_28  and  C_29
REMARK                            x       y       z     vdW  Elec       q    Type
REMARK                         _______ _______ _______ _____ _____    ______ ____
ROOT
ATOM      1  C   UNL     1      -0.880  11.389  20.715  0.00  0.00    +0.000 C 
ENDROOT
BRANCH   1   2
ATOM      2  C   UNL     1       0.634  11.134  20.942  0.00  0.00    +0.000 C 
ATOM      3  C   UNL     1       1.501  11.457  19.708  0.00  0.00    +0.000 C 
ATOM      4  C   UNL     1       1.304  10.473  18.550  0.00  0.00    +0.000 C 
ATOM      5  N   UNL     1       1.484   9.084  18.979  0.00  0.00    +0.000 N 
ATOM      6  C   UNL     1       2.258   8.232  18.166  0.00  0.00    +0.000 C 
ATOM      7  O   UNL     1       2.842   8.649  17.153  0.00  0.00    +0.000 OA
ATOM      8  C   UNL     1       0.730   8.704  20.180  0.00  0.00    +0.000 C 
ATOM      9  C   UNL     1       0.941   9.678  21.331  0.00  0.00    +0.000 C 
BRANCH   6  10
ATOM     10  C   UNL     1       2.460   6.799  18.509  0.00  0.00    +0.000 A 
ATOM     11  C   UNL     1       3.389   6.468  19.505  0.00  0.00    +0.000 A 
ATOM     12  C   UNL     1       3.552   5.138  19.900  0.00  0.00    +0.000 A 
ATOM     13  C   UNL     1       2.758   4.142  19.327  0.00  0.00    +0.000 A 
ATOM     14  C   UNL     1       1.853   4.455  18.311  0.00  0.00    +0.000 A 
ATOM     15  C   UNL     1       1.777   5.771  17.851  0.00  0.00    +0.000 A 
BRANCH  14  16
ATOM     16  O   UNL     1       1.099   3.414  17.841  0.00  0.00    +0.000 OA
ATOM     17  C   UNL     1       0.861   2.338  18.743  0.00  0.00    +0.000 C 
ENDBRANCH  14  16
ENDBRANCH   6  10
ENDBRANCH   1   2
BRANCH   1  20
ATOM     18  C   UNL     1      -2.638  11.452  18.884  0.00  0.00    +0.000 C 
ATOM     19  O   UNL     1      -3.508  11.896  19.624  0.00  0.00    +0.000 OA
ATOM     20  N   UNL     1      -1.351  11.223  19.327  0.00  0.00    +0.000 N 
ATOM     21  H   UNL     1      -0.744  10.663  18.751  0.00  0.00    +0.000 HD
BRANCH  18  25
ATOM     22  C   UNL     1      -3.332  10.280  14.790  0.00  0.00    +0.000 A 
ATOM     23  C   UNL     1      -2.343   9.672  15.561  0.00  0.00    +0.000 A 
ATOM     24  C   UNL     1      -2.174  10.021  16.905  0.00  0.00    +0.000 A 
ATOM     25  C   UNL     1      -2.991  10.994  17.499  0.00  0.00    +0.000 A 
ATOM     26  C   UNL     1      -4.029  11.549  16.738  0.00  0.00    +0.000 A 
ATOM     27  C   UNL     1      -4.181  11.213  15.383  0.00  0.00    +0.000 A 
BRANCH  22  29
ATOM     28  C   UNL     1      -4.626   9.774  12.866  0.00  0.00    +0.000 C 
ATOM     29  O   UNL     1      -3.348   9.907  13.475  0.00  0.00    +0.000 OA
ENDBRANCH  22  29
ENDBRANCH  18  25
ENDBRANCH   1  20
BRANCH   1  30
ATOM     30  C   UNL     1      -1.361  12.739  21.321  0.00  0.00    +0.000 C 
ATOM     31  O   UNL     1      -1.023  13.811  20.817  0.00  0.00    +0.000 OA
ATOM     32  N   UNL     1      -2.278  12.657  22.345  0.00  0.00    +0.000 N 
ATOM     33  H   UNL     1      -2.521  11.731  22.693  0.00  0.00    +0.000 HD
BRANCH  32  34
ATOM     34  C   UNL     1      -2.851  13.824  22.999  0.00  0.00    +0.000 C 
ATOM     35  C   UNL     1      -4.170  13.461  23.673  0.00  0.00    +0.000 C 
ATOM     36  C   UNL     1      -1.880  14.417  24.019  0.00  0.00    +0.000 C 
ENDBRANCH  32  34
ENDBRANCH   1  30
TORSDOF 8
ENDMDL
MODEL 3
REMARK VINA RESULT:      -6.8      3.220      6.187
REMARK  Name = 
REMARK  12 active torsions:
REMARK  status: ('A' for Active; 'I' for Inactive)
REMARK    1  A    between atoms: C_1  and  O_2
REMARK    2  A    between atoms: O_2  and  C_3
REMARK    3  A    between atoms: C_6  and  C_7
REMARK    4  A    between atoms: N_9  and  C_10
REMARK    5  A    between atoms: C_10  and  C_11
REMARK    6  A    between atoms: C_10  and  C_17
REMARK    7  A    between atoms: N_13  and  C_14
REMARK    8  A    between atoms: C_14  and  C_15
REMARK    9  A    between atoms: C_14  and  C_16
REMARK   10  A    between atoms: C_21  and  C_23
REMARK   11  A    between atoms: C_27  and  O_28
REMARK   12  A    between atoms: O_28  and  C_29
REMARK                            x       y       z     vdW  Elec       q    Type
REMARK                         _______ _______ _______ _____ _____    ______ ____
ROOT
ATOM      1  C   UNL     1      -1.355  12.045  20.747  0.00  0.00    +0.000 C 
ENDROOT
BRANCH   1   2
ATOM      2  C   UNL     1       0.130  11.779  21.112  0.00  0.00    +0.000 C 
ATOM      3  C   UNL     1       1.106  12.066  19.952  0.00  0.00    +0.000 C 
ATOM      4  C   UNL     1       0.998  11.058  18.802  0.00  0.00    +0.000 C 
ATOM      5  N   UNL     1       1.122   9.678  19.274  0.00  0.00    +0.000 N 
ATOM      6  C   UNL     1       1.954   8.799  18.550  0.00  0.00    +0.000 C 
ATOM      7  O   UNL     1       2.630   9.188  17.585  0.00  0.00    +0.000 OA
ATOM      8  C   UNL     1       0.261   9.332  20.412  0.00  0.00    +0.000 C 
ATOM      9  C   UNL     1       0.383  10.329  21.556  0.00  0.00    +0.000 C 
BRANCH   6  10
ATOM     10  C   UNL     1       2.107   7.372  18.940  0.00  0.00    +0.000 A 
ATOM     11  C   UNL     1       1.847   7.003  20.267  0.00  0.00    +0.000 A 
ATOM     12  C   UNL     1       1.914   5.661  20.649  0.00  0.00    +0.000 A 
ATOM     13  C   UNL     1       2.201   4.682  19.695  0.00  0.00    +0.000 A 
ATOM     14  C   UNL     1       2.493   5.041  18.378  0.00  0.00    +0.000 A 
ATOM     15  C   UNL     1       2.530   6.393  18.035  0.00  0.00    +0.000 A 
BRANCH  14  16
ATOM     16  O   UNL     1       2.728   4.005  17.514  0.00  0.00    +0.000 OA
ATOM     17  C   UNL     1       4.038   3.918  16.961  0.00  0.00    +0.000 C 
ENDBRANCH  14  16
ENDBRANCH   6  10
ENDBRANCH   1   2
BRANCH   1  20
ATOM     18  C   UNL     1      -3.023  11.639  18.875  0.00  0.00    +0.000 C 
ATOM     19  O   UNL     1      -3.995  11.870  19.583  0.00  0.00    +0.000 OA
ATOM     20  N   UNL     1      -1.731  11.742  19.353  0.00  0.00    +0.000 N 
ATOM     21  H   UNL     1      -0.989  11.338  18.806  0.00  0.00    +0.000 HD
BRANCH  18  25
ATOM     22  C   UNL     1      -3.245  10.196  14.815  0.00  0.00    +0.000 A 
ATOM     23  C   UNL     1      -2.310   9.689  15.715  0.00  0.00    +0.000 A 
ATOM     24  C   UNL     1      -2.293  10.123  17.044  0.00  0.00    +0.000 A 
ATOM     25  C   UNL     1      -3.213  11.083  17.494  0.00  0.00    +0.000 A 
ATOM     26  C   UNL     1      -4.195  11.535  16.602  0.00  0.00    +0.000 A 
ATOM     27  C   UNL     1      -4.194  11.113  15.263  0.00  0.00    +0.000 A 
BRANCH  22  29
ATOM     28  C   UNL     1      -4.234   9.920  12.675  0.00  0.00    +0.000 C 
ATOM     29  O   UNL     1      -3.112   9.747  13.531  0.00  0.00    +0.000 OA
ENDBRANCH  22  29
ENDBRANCH  18  25
ENDBRANCH   1  20
BRANCH   1  30
ATOM     30  C   UNL     1      -1.835  13.463  21.170  0.00  0.00    +0.000 C 
ATOM     31  O   UNL     1      -1.326  14.472  20.678  0.00  0.00    +0.000 OA
ATOM     32  N   UNL     1      -2.930  13.516  22.002  0.00  0.00    +0.000 N 
ATOM     33  H   UNL     1      -3.306  12.634  22.351  0.00  0.00    +0.000 HD
BRANCH  32  34
ATOM     34  C   UNL     1      -3.522  14.762  22.465  0.00  0.00    +0.000 C 
ATOM     35  C   UNL     1      -5.043  14.642  22.513  0.00  0.00    +0.000 C 
ATOM     36  C   UNL     1      -2.978  15.155  23.838  0.00  0.00    +0.000 C 
ENDBRANCH  32  34
ENDBRANCH   1  30
TORSDOF 8
ENDMDL
MODEL 4
REMARK VINA RESULT:      -6.7      2.658      9.895
REMARK  Name = 
REMARK  12 active torsions:
REMARK  status: ('A' for Active; 'I' for Inactive)
REMARK    1  A    between atoms: C_1  and  O_2
REMARK    2  A    between atoms: O_2  and  C_3
REMARK    3  A    between atoms: C_6  and  C_7
REMARK    4  A    between atoms: N_9  and  C_10
REMARK    5  A    between atoms: C_10  and  C_11
REMARK    6  A    between atoms: C_10  and  C_17
REMARK    7  A    between atoms: N_13  and  C_14
REMARK    8  A    between atoms: C_14  and  C_15
REMARK    9  A    between atoms: C_14  and  C_16
REMARK   10  A    between atoms: C_21  and  C_23
REMARK   11  A    between atoms: C_27  and  O_28
REMARK   12  A    between atoms: O_28  and  C_29
REMARK                            x       y       z     vdW  Elec       q    Type
REMARK                         _______ _______ _______ _____ _____    ______ ____
ROOT
ATOM      1  C   UNL     1      -0.392  10.886  18.479  0.00  0.00    +0.000 C 
ENDROOT
BRANCH   1   2
ATOM      2  C   UNL     1       0.242  12.272  18.184  0.00  0.00    +0.000 C 
ATOM      3  C   UNL     1       1.630  12.460  18.832  0.00  0.00    +0.000 C 
ATOM      4  C   UNL     1       1.577  12.584  20.359  0.00  0.00    +0.000 C 
ATOM      5  N   UNL     1       0.642  13.627  20.789  0.00  0.00    +0.000 N 
ATOM      6  C   UNL     1       1.059  14.520  21.796  0.00  0.00    +0.000 C 
ATOM      7  O   UNL     1       2.210  14.487  22.262  0.00  0.00    +0.000 OA
ATOM      8  C   UNL     1      -0.692  13.552  20.181  0.00  0.00    +0.000 C 
ATOM      9  C   UNL     1      -0.633  13.442  18.663  0.00  0.00    +0.000 C 
BRANCH   6  10
ATOM     10  C   UNL     1       0.160  15.584  22.316  0.00  0.00    +0.000 A 
ATOM     11  C   UNL     1       0.221  16.860  21.740  0.00  0.00    +0.000 A 
ATOM     12  C   UNL     1      -0.658  17.862  22.158  0.00  0.00    +0.000 A 
ATOM     13  C   UNL     1      -1.627  17.577  23.123  0.00  0.00    +0.000 A 
ATOM     14  C   UNL     1      -1.676  16.319  23.726  0.00  0.00    +0.000 A 
ATOM     15  C   UNL     1      -0.723  15.361  23.378  0.00  0.00    +0.000 A 
BRANCH  14  16
ATOM     16  O   UNL     1      -2.683  16.131  24.634  0.00  0.00    +0.000 OA
ATOM     17  C   UNL     1      -2.930  14.790  25.047  0.00  0.00    +0.000 C 
ENDBRANCH  14  16
ENDBRANCH   6  10
ENDBRANCH   1   2
BRANCH   1  20
ATOM     18  C   UNL     1       1.025   8.983  19.386  0.00  0.00    +0.000 C 
ATOM     19  O   UNL     1       0.697   9.187  20.548  0.00  0.00    +0.000 OA
ATOM     20  N   UNL     1       0.514   9.730  18.343  0.00  0.00    +0.000 N 
ATOM     21  H   UNL     1       0.971   9.670  17.448  0.00  0.00    +0.000 HD
BRANCH  18  25
ATOM     22  C   UNL     1       3.979   6.077  18.188  0.00  0.00    +0.000 A 
ATOM     23  C   UNL     1       3.775   7.246  17.459  0.00  0.00    +0.000 A 
ATOM     24  C   UNL     1       2.857   8.207  17.896  0.00  0.00    +0.000 A 
ATOM     25  C   UNL     1       2.121   8.007  19.073  0.00  0.00    +0.000 A 
ATOM     26  C   UNL     1       2.383   6.862  19.838  0.00  0.00    +0.000 A 
ATOM     27  C   UNL     1       3.288   5.890  19.384  0.00  0.00    +0.000 A 
BRANCH  22  29
ATOM     28  C   UNL     1       5.837   4.626  18.473  0.00  0.00    +0.000 C 
ATOM     29  O   UNL     1       4.847   5.186  17.619  0.00  0.00    +0.000 OA
ENDBRANCH  22  29
ENDBRANCH  18  25
ENDBRANCH   1  20
BRANCH   1  30
ATOM     30  C   UNL     1      -1.725  10.658  17.711  0.00  0.00    +0.000 C 
ATOM     31  O   UNL     1      -2.602   9.928  18.176  0.00  0.00    +0.000 OA
ATOM     32  N   UNL     1      -1.915  11.414  16.576  0.00  0.00    +0.000 N 
ATOM     33  H   UNL     1      -1.147  12.010  16.267  0.00  0.00    +0.000 HD
BRANCH  32  34
ATOM     34  C   UNL     1      -3.118  11.344  15.761  0.00  0.00    +0.000 C 
ATOM     35  C   UNL     1      -3.132  10.056  14.943  0.00  0.00    +0.000 C 
ATOM     36  C   UNL     1      -4.376  11.436  16.625  0.00  0.00    +0.000 C 
ENDBRANCH  32  34
ENDBRANCH   1  30
TORSDOF 8
ENDMDL
MODEL 5
REMARK VINA RESULT:      -6.7      2.877     10.477
REMARK  Name = 
REMARK  12 active torsions:
REMARK  status: ('A' for Active; 'I' for Inactive)
REMARK    1  A    between atoms: C_1  and  O_2
REMARK    2  A    between atoms: O_2  and  C_3
REMARK    3  A    between atoms: C_6  and  C_7
REMARK    4  A    between atoms: N_9  and  C_10
REMARK    5  A    between atoms: C_10  and  C_11
REMARK    6  A    between atoms: C_10  and  C_17
REMARK    7  A    between atoms: N_13  and  C_14
REMARK    8  A    between atoms: C_14  and  C_15
REMARK    9  A    between atoms: C_14  and  C_16
REMARK   10  A    between atoms: C_21  and  C_23
REMARK   11  A    between atoms: C_27  and  O_28
REMARK   12  A    between atoms: O_28  and  C_29
REMARK                            x       y       z     vdW  Elec       q    Type
REMARK                         _______ _______ _______ _____ _____    ______ ____
ROOT
ATOM      1  C   UNL     1      -1.139  11.003  20.095  0.00  0.00    +0.000 C 
ENDROOT
BRANCH   1   2
ATOM      2  C   UNL     1      -0.739  12.166  21.041  0.00  0.00    +0.000 C 
ATOM      3  C   UNL     1      -0.777  11.781  22.534  0.00  0.00    +0.000 C 
ATOM      4  C   UNL     1      -2.197  11.567  23.071  0.00  0.00    +0.000 C 
ATOM      5  N   UNL     1      -3.064  12.714  22.793  0.00  0.00    +0.000 N 
ATOM      6  C   UNL     1      -3.890  13.190  23.831  0.00  0.00    +0.000 C 
ATOM      7  O   UNL     1      -3.840  12.712  24.976  0.00  0.00    +0.000 OA
ATOM      8  C   UNL     1      -3.050  13.179  21.401  0.00  0.00    +0.000 C 
ATOM      9  C   UNL     1      -1.637  13.403  20.878  0.00  0.00    +0.000 C 
BRANCH   6  10
ATOM     10  C   UNL     1      -4.827  14.326  23.624  0.00  0.00    +0.000 A 
ATOM     11  C   UNL     1      -4.496  15.579  24.157  0.00  0.00    +0.000 A 
ATOM     12  C   UNL     1      -5.319  16.683  23.921  0.00  0.00    +0.000 A 
ATOM     13  C   UNL     1      -6.452  16.543  23.117  0.00  0.00    +0.000 A 
ATOM     14  C   UNL     1      -6.809  15.294  22.606  0.00  0.00    +0.000 A 
ATOM     15  C   UNL     1      -6.038  14.179  22.940  0.00  0.00    +0.000 A 
BRANCH  14  16
ATOM     16  O   UNL     1      -7.917  15.271  21.803  0.00  0.00    +0.000 OA
ATOM     17  C   UNL     1      -7.689  15.130  20.404  0.00  0.00    +0.000 C 
ENDBRANCH  14  16
ENDBRANCH   6  10
ENDBRANCH   1   2
BRANCH   1  20
ATOM     18  C   UNL     1       1.074   9.970  19.399  0.00  0.00    +0.000 C 
ATOM     19  O   UNL     1       1.511  11.019  18.942  0.00  0.00    +0.000 OA
ATOM     20  N   UNL     1      -0.167   9.897  20.000  0.00  0.00    +0.000 N 
ATOM     21  H   UNL     1      -0.565   8.987  20.160  0.00  0.00    +0.000 HD
BRANCH  18  25
ATOM     22  C   UNL     1       2.966   6.197  18.506  0.00  0.00    +0.000 A 
ATOM     23  C   UNL     1       3.001   7.257  17.603  0.00  0.00    +0.000 A 
ATOM     24  C   UNL     1       2.437   8.493  17.935  0.00  0.00    +0.000 A 
ATOM     25  C   UNL     1       1.819   8.685  19.180  0.00  0.00    +0.000 A 
ATOM     26  C   UNL     1       1.850   7.637  20.109  0.00  0.00    +0.000 A 
ATOM     27  C   UNL     1       2.397   6.391  19.764  0.00  0.00    +0.000 A 
BRANCH  22  29
ATOM     28  C   UNL     1       4.765   5.093  17.420  0.00  0.00    +0.000 C 
ATOM     29  O   UNL     1       3.485   5.022  18.037  0.00  0.00    +0.000 OA
ENDBRANCH  22  29
ENDBRANCH  18  25
ENDBRANCH   1  20
BRANCH   1  30
ATOM     30  C   UNL     1      -1.580  11.496  18.687  0.00  0.00    +0.000 C 
ATOM     31  O   UNL     1      -0.993  12.427  18.134  0.00  0.00    +0.000 OA
ATOM     32  N   UNL     1      -2.552  10.753  18.055  0.00  0.00    +0.000 N 
ATOM     33  H   UNL     1      -2.976   9.984  18.574  0.00  0.00    +0.000 HD
BRANCH  32  34
ATOM     34  C   UNL     1      -3.053  11.060  16.724  0.00  0.00    +0.000 C 
ATOM     35  C   UNL     1      -2.713   9.932  15.755  0.00  0.00    +0.000 C 
ATOM     36  C   UNL     1      -4.562  11.303  16.745  0.00  0.00    +0.000 C 
ENDBRANCH  32  34
ENDBRANCH   1  30
TORSDOF 8
ENDMDL
MODEL 6
REMARK VINA RESULT:      -6.7      2.208     10.065
REMARK  Name = 
REMARK  12 active torsions:
REMARK  status: ('A' for Active; 'I' for Inactive)
REMARK    1  A    between atoms: C_1  and  O_2
REMARK    2  A    between atoms: O_2  and  C_3
REMARK    3  A    between atoms: C_6  and  C_7
REMARK    4  A    between atoms: N_9  and  C_10
REMARK    5  A    between atoms: C_10  and  C_11
REMARK    6  A    between atoms: C_10  and  C_17
REMARK    7  A    between atoms: N_13  and  C_14
REMARK    8  A    between atoms: C_14  and  C_15
REMARK    9  A    between atoms: C_14  and  C_16
REMARK   10  A    between atoms: C_21  and  C_23
REMARK   11  A    between atoms: C_27  and  O_28
REMARK   12  A    between atoms: O_28  and  C_29
REMARK                            x       y       z     vdW  Elec       q    Type
REMARK                         _______ _______ _______ _____ _____    ______ ____
ROOT
ATOM      1  C   UNL     1       0.027  12.777  20.135  0.00  0.00    +0.000 C 
ENDROOT
BRANCH   1   2
ATOM      2  C   UNL     1       0.080  13.090  21.655  0.00  0.00    +0.000 C 
ATOM      3  C   UNL     1      -0.563  11.992  22.528  0.00  0.00    +0.000 C 
ATOM      4  C   UNL     1      -2.088  11.921  22.391  0.00  0.00    +0.000 C 
ATOM      5  N   UNL     1      -2.717  13.223  22.622  0.00  0.00    +0.000 N 
ATOM      6  C   UNL     1      -3.861  13.272  23.445  0.00  0.00    +0.000 C 
ATOM      7  O   UNL     1      -4.289  12.263  24.028  0.00  0.00    +0.000 OA
ATOM      8  C   UNL     1      -2.133  14.337  21.865  0.00  0.00    +0.000 C 
ATOM      9  C   UNL     1      -0.620  14.411  22.016  0.00  0.00    +0.000 C 
BRANCH   6  10
ATOM     10  C   UNL     1      -4.582  14.547  23.702  0.00  0.00    +0.000 A 
ATOM     11  C   UNL     1      -4.038  15.457  24.619  0.00  0.00    +0.000 A 
ATOM     12  C   UNL     1      -4.654  16.693  24.831  0.00  0.00    +0.000 A 
ATOM     13  C   UNL     1      -5.791  17.037  24.096  0.00  0.00    +0.000 A 
ATOM     14  C   UNL     1      -6.359  16.127  23.203  0.00  0.00    +0.000 A 
ATOM     15  C   UNL     1      -5.797  14.855  23.082  0.00  0.00    +0.000 A 
BRANCH  14  16
ATOM     16  O   UNL     1      -7.450  16.573  22.508  0.00  0.00    +0.000 OA
ATOM     17  C   UNL     1      -7.662  16.006  21.218  0.00  0.00    +0.000 C 
ENDBRANCH  14  16
ENDBRANCH   6  10
ENDBRANCH   1   2
BRANCH   1  20
ATOM     18  C   UNL     1       0.269  10.332  19.493  0.00  0.00    +0.000 C 
ATOM     19  O   UNL     1      -0.931  10.106  19.585  0.00  0.00    +0.000 OA
ATOM     20  N   UNL     1       0.792  11.593  19.703  0.00  0.00    +0.000 N 
ATOM     21  H   UNL     1       1.787  11.679  19.828  0.00  0.00    +0.000 HD
BRANCH  18  25
ATOM     22  C   UNL     1       2.811   6.943  18.677  0.00  0.00    +0.000 A 
ATOM     23  C   UNL     1       2.633   7.958  17.739  0.00  0.00    +0.000 A 
ATOM     24  C   UNL     1       1.855   9.080  18.045  0.00  0.00    +0.000 A 
ATOM     25  C   UNL     1       1.235   9.200  19.297  0.00  0.00    +0.000 A 
ATOM     26  C   UNL     1       1.477   8.210  20.259  0.00  0.00    +0.000 A 
ATOM     27  C   UNL     1       2.239   7.075  19.942  0.00  0.00    +0.000 A 
BRANCH  22  29
ATOM     28  C   UNL     1       4.385   5.239  19.180  0.00  0.00    +0.000 C 
ATOM     29  O   UNL     1       3.530   5.868  18.234  0.00  0.00    +0.000 OA
ENDBRANCH  22  29
ENDBRANCH  18  25
ENDBRANCH   1  20
BRANCH   1  30
ATOM     30  C   UNL     1       0.350  14.017  19.253  0.00  0.00    +0.000 C 
ATOM     31  O   UNL     1      -0.551  14.645  18.695  0.00  0.00    +0.000 OA
ATOM     32  N   UNL     1       1.660  14.440  19.249  0.00  0.00    +0.000 N 
ATOM     33  H   UNL     1       2.344  13.875  19.752  0.00  0.00    +0.000 HD
BRANCH  32  34
ATOM     34  C   UNL     1       2.123  15.600  18.502  0.00  0.00    +0.000 C 
ATOM     35  C   UNL     1       2.371  16.774  19.444  0.00  0.00    +0.000 C 
ATOM     36  C   UNL     1       3.391  15.278  17.712  0.00  0.00    +0.000 C 
ENDBRANCH  32  34
ENDBRANCH   1  30
TORSDOF 8
ENDMDL
MODEL 7
REMARK VINA RESULT:      -6.7      2.604     10.105
REMARK  Name = 
REMARK  12 active torsions:
REMARK  status: ('A' for Active; 'I' for Inactive)
REMARK    1  A    between atoms: C_1  and  O_2
REMARK    2  A    between atoms: O_2  and  C_3
REMARK    3  A    between atoms: C_6  and  C_7
REMARK    4  A    between atoms: N_9  and  C_10
REMARK    5  A    between atoms: C_10  and  C_11
REMARK    6  A    between atoms: C_10  and  C_17
REMARK    7  A    between atoms: N_13  and  C_14
REMARK    8  A    between atoms: C_14  and  C_15
REMARK    9  A    between atoms: C_14  and  C_16
REMARK   10  A    between atoms: C_21  and  C_23
REMARK   11  A    between atoms: C_27  and  O_28
REMARK   12  A    between atoms: O_28  and  C_29
REMARK                            x       y       z     vdW  Elec       q    Type
REMARK                         _______ _______ _______ _____ _____    ______ ____
ROOT
ATOM      1  C   UNL     1      -0.184  10.717  18.671  0.00  0.00    +0.000 C 
ENDROOT
BRANCH   1   2
ATOM      2  C   UNL     1       0.425  12.093  18.291  0.00  0.00    +0.000 C 
ATOM      3  C   UNL     1       1.782  12.370  18.971  0.00  0.00    +0.000 C 
ATOM      4  C   UNL     1       1.668  12.611  20.480  0.00  0.00    +0.000 C 
ATOM      5  N   UNL     1       0.692  13.656  20.794  0.00  0.00    +0.000 N 
ATOM      6  C   UNL     1       1.047  14.636  21.743  0.00  0.00    +0.000 C 
ATOM      7  O   UNL     1       2.180  14.673  22.250  0.00  0.00    +0.000 OA
ATOM      8  C   UNL     1      -0.616  13.496  20.147  0.00  0.00    +0.000 C 
ATOM      9  C   UNL     1      -0.498  13.271  18.646  0.00  0.00    +0.000 C 
BRANCH   6  10
ATOM     10  C   UNL     1       0.102  15.711  22.146  0.00  0.00    +0.000 A 
ATOM     11  C   UNL     1      -0.054  16.823  21.306  0.00  0.00    +0.000 A 
ATOM     12  C   UNL     1      -0.985  17.816  21.621  0.00  0.00    +0.000 A 
ATOM     13  C   UNL     1      -1.790  17.678  22.753  0.00  0.00    +0.000 A 
ATOM     14  C   UNL     1      -1.622  16.591  23.613  0.00  0.00    +0.000 A 
ATOM     15  C   UNL     1      -0.614  15.663  23.346  0.00  0.00    +0.000 A 
BRANCH  14  16
ATOM     16  O   UNL     1      -2.483  16.531  24.675  0.00  0.00    +0.000 OA
ATOM     17  C   UNL     1      -2.940  17.775  25.200  0.00  0.00    +0.000 C 
ENDBRANCH  14  16
ENDBRANCH   6  10
ENDBRANCH   1   2
BRANCH   1  20
ATOM     18  C   UNL     1       1.317   8.759  19.275  0.00  0.00    +0.000 C 
ATOM     19  O   UNL     1       1.206   8.943  20.481  0.00  0.00    +0.000 OA
ATOM     20  N   UNL     1       0.651   9.543  18.354  0.00  0.00    +0.000 N 
ATOM     21  H   UNL     1       0.940   9.493  17.391  0.00  0.00    +0.000 HD
BRANCH  18  25
ATOM     22  C   UNL     1       4.380   5.966  18.080  0.00  0.00    +0.000 A 
ATOM     23  C   UNL     1       3.547   5.707  19.166  0.00  0.00    +0.000 A 
ATOM     24  C   UNL     1       2.518   6.594  19.501  0.00  0.00    +0.000 A 
ATOM     25  C   UNL     1       2.312   7.764  18.754  0.00  0.00    +0.000 A 
ATOM     26  C   UNL     1       3.109   7.981  17.622  0.00  0.00    +0.000 A 
ATOM     27  C   UNL     1       4.154   7.100  17.303  0.00  0.00    +0.000 A 
BRANCH  22  29
ATOM     28  C   UNL     1       5.349   4.288  16.709  0.00  0.00    +0.000 C 
ATOM     29  O   UNL     1       5.391   5.062  17.901  0.00  0.00    +0.000 OA
ENDBRANCH  22  29
ENDBRANCH  18  25
ENDBRANCH   1  20
BRANCH   1  30
ATOM     30  C   UNL     1      -1.639  10.537  18.151  0.00  0.00    +0.000 C 
ATOM     31  O   UNL     1      -2.594  10.569  18.930  0.00  0.00    +0.000 OA
ATOM     32  N   UNL     1      -1.799  10.482  16.785  0.00  0.00    +0.000 N 
ATOM     33  H   UNL     1      -0.958  10.480  16.208  0.00  0.00    +0.000 HD
BRANCH  32  34
ATOM     34  C   UNL     1      -3.094  10.347  16.137  0.00  0.00    +0.000 C 
ATOM     35  C   UNL     1      -3.974  11.553  16.453  0.00  0.00    +0.000 C 
ATOM     36  C   UNL     1      -2.941  10.184  14.625  0.00  0.00    +0.000 C 
ENDBRANCH  32  34
ENDBRANCH   1  30
TORSDOF 8
ENDMDL
MODEL 8
REMARK VINA RESULT:      -6.6      2.006      9.998
REMARK  Name = 
REMARK  12 active torsions:
REMARK  status: ('A' for Active; 'I' for Inactive)
REMARK    1  A    between atoms: C_1  and  O_2
REMARK    2  A    between atoms: O_2  and  C_3
REMARK    3  A    between atoms: C_6  and  C_7
REMARK    4  A    between atoms: N_9  and  C_10
REMARK    5  A    between atoms: C_10  and  C_11
REMARK    6  A    between atoms: C_10  and  C_17
REMARK    7  A    between atoms: N_13  and  C_14
REMARK    8  A    between atoms: C_14  and  C_15
REMARK    9  A    between atoms: C_14  and  C_16
REMARK   10  A    between atoms: C_21  and  C_23
REMARK   11  A    between atoms: C_27  and  O_28
REMARK   12  A    between atoms: O_28  and  C_29
REMARK                            x       y       z     vdW  Elec       q    Type
REMARK                         _______ _______ _______ _____ _____    ______ ____
ROOT
ATOM      1  C   UNL     1       0.008  12.677  20.204  0.00  0.00    +0.000 C 
ENDROOT
BRANCH   1   2
ATOM      2  C   UNL     1      -0.056  13.215  21.659  0.00  0.00    +0.000 C 
ATOM      3  C   UNL     1      -0.565  12.171  22.675  0.00  0.00    +0.000 C 
ATOM      4  C   UNL     1      -2.054  11.844  22.517  0.00  0.00    +0.000 C 
ATOM      5  N   UNL     1      -2.882  13.052  22.532  0.00  0.00    +0.000 N 
ATOM      6  C   UNL     1      -4.057  13.044  23.312  0.00  0.00    +0.000 C 
ATOM      7  O   UNL     1      -4.355  12.078  24.033  0.00  0.00    +0.000 OA
ATOM      8  C   UNL     1      -2.438  14.120  21.627  0.00  0.00    +0.000 C 
ATOM      9  C   UNL     1      -0.961  14.449  21.799  0.00  0.00    +0.000 C 
BRANCH   6  10
ATOM     10  C   UNL     1      -4.972  14.215  23.355  0.00  0.00    +0.000 A 
ATOM     11  C   UNL     1      -6.192  14.143  22.668  0.00  0.00    +0.000 A 
ATOM     12  C   UNL     1      -7.105  15.199  22.745  0.00  0.00    +0.000 A 
ATOM     13  C   UNL     1      -6.816  16.308  23.543  0.00  0.00    +0.000 A 
ATOM     14  C   UNL     1      -5.592  16.404  24.206  0.00  0.00    +0.000 A 
ATOM     15  C   UNL     1      -4.645  15.394  24.033  0.00  0.00    +0.000 A 
BRANCH  14  16
ATOM     16  O   UNL     1      -5.421  17.514  24.988  0.00  0.00    +0.000 OA
ATOM     17  C   UNL     1      -4.086  17.825  25.376  0.00  0.00    +0.000 C 
ENDBRANCH  14  16
ENDBRANCH   6  10
ENDBRANCH   1   2
BRANCH   1  20
ATOM     18  C   UNL     1       0.567  10.462  19.096  0.00  0.00    +0.000 C 
ATOM     19  O   UNL     1      -0.356  10.538  18.295  0.00  0.00    +0.000 OA
ATOM     20  N   UNL     1       0.824  11.464  20.010  0.00  0.00    +0.000 N 
ATOM     21  H   UNL     1       1.445  11.260  20.775  0.00  0.00    +0.000 HD
BRANCH  18  25
ATOM     22  C   UNL     1       2.612   6.664  19.183  0.00  0.00    +0.000 A 
ATOM     23  C   UNL     1       2.644   7.478  18.053  0.00  0.00    +0.000 A 
ATOM     24  C   UNL     1       2.028   8.735  18.065  0.00  0.00    +0.000 A 
ATOM     25  C   UNL     1       1.361   9.193  19.210  0.00  0.00    +0.000 A 
ATOM     26  C   UNL     1       1.394   8.399  20.364  0.00  0.00    +0.000 A 
ATOM     27  C   UNL     1       1.994   7.129  20.342  0.00  0.00    +0.000 A 
BRANCH  22  29
ATOM     28  C   UNL     1       3.813   5.181  17.771  0.00  0.00    +0.000 C 
ATOM     29  O   UNL     1       3.185   5.433  19.022  0.00  0.00    +0.000 OA
ENDBRANCH  22  29
ENDBRANCH  18  25
ENDBRANCH   1  20
BRANCH   1  30
ATOM     30  C   UNL     1       0.372  13.780  19.170  0.00  0.00    +0.000 C 
ATOM     31  O   UNL     1      -0.446  14.143  18.322  0.00  0.00    +0.000 OA
ATOM     32  N   UNL     1       1.585  14.407  19.345  0.00  0.00    +0.000 N 
ATOM     33  H   UNL     1       2.198  14.060  20.083  0.00  0.00    +0.000 HD
BRANCH  32  34
ATOM     34  C   UNL     1       2.062  15.479  18.485  0.00  0.00    +0.000 C 
ATOM     35  C   UNL     1       1.811  16.836  19.137  0.00  0.00    +0.000 C 
ATOM     36  C   UNL     1       3.547  15.311  18.165  0.00  0.00    +0.000 C 
ENDBRANCH  32  34
ENDBRANCH   1  30
TORSDOF 8
ENDMDL
MODEL 9
REMARK VINA RESULT:      -6.6      2.973      5.963
REMARK  Name = 
REMARK  12 active torsions:
REMARK  status: ('A' for Active; 'I' for Inactive)
REMARK    1  A    between atoms: C_1  and  O_2
REMARK    2  A    between atoms: O_2  and  C_3
REMARK    3  A    between atoms: C_6  and  C_7
REMARK    4  A    between atoms: N_9  and  C_10
REMARK    5  A    between atoms: C_10  and  C_11
REMARK    6  A    between atoms: C_10  and  C_17
REMARK    7  A    between atoms: N_13  and  C_14
REMARK    8  A    between atoms: C_14  and  C_15
REMARK    9  A    between atoms: C_14  and  C_16
REMARK   10  A    between atoms: C_21  and  C_23
REMARK   11  A    between atoms: C_27  and  O_28
REMARK   12  A    between atoms: O_28  and  C_29
REMARK                            x       y       z     vdW  Elec       q    Type
REMARK                         _______ _______ _______ _____ _____    ______ ____
ROOT
ATOM      1  C   UNL     1      -0.750  10.671  21.599  0.00  0.00    +0.000 C 
ENDROOT
BRANCH   1   2
ATOM      2  C   UNL     1       0.794  10.532  21.675  0.00  0.00    +0.000 C 
ATOM      3  C   UNL     1       1.507  10.904  20.358  0.00  0.00    +0.000 C 
ATOM      4  C   UNL     1       1.269   9.892  19.231  0.00  0.00    +0.000 C 
ATOM      5  N   UNL     1       1.595   8.527  19.647  0.00  0.00    +0.000 N 
ATOM      6  C   UNL     1       2.346   7.724  18.764  0.00  0.00    +0.000 C 
ATOM      7  O   UNL     1       2.793   8.171  17.696  0.00  0.00    +0.000 OA
ATOM      8  C   UNL     1       0.996   8.107  20.920  0.00  0.00    +0.000 C 
ATOM      9  C   UNL     1       1.247   9.109  22.038  0.00  0.00    +0.000 C 
BRANCH   6  10
ATOM     10  C   UNL     1       2.689   6.315  19.093  0.00  0.00    +0.000 A 
ATOM     11  C   UNL     1       3.565   5.619  18.248  0.00  0.00    +0.000 A 
ATOM     12  C   UNL     1       3.962   4.317  18.565  0.00  0.00    +0.000 A 
ATOM     13  C   UNL     1       3.517   3.726  19.749  0.00  0.00    +0.000 A 
ATOM     14  C   UNL     1       2.620   4.397  20.582  0.00  0.00    +0.000 A 
ATOM     15  C   UNL     1       2.146   5.653  20.198  0.00  0.00    +0.000 A 
BRANCH  14  16
ATOM     16  O   UNL     1       2.271   3.745  21.734  0.00  0.00    +0.000 OA
ATOM     17  C   UNL     1       1.513   2.548  21.586  0.00  0.00    +0.000 C 
ENDBRANCH  14  16
ENDBRANCH   6  10
ENDBRANCH   1   2
BRANCH   1  20
ATOM     18  C   UNL     1      -1.768  11.513  19.431  0.00  0.00    +0.000 C 
ATOM     19  O   UNL     1      -1.623  12.693  19.727  0.00  0.00    +0.000 OA
ATOM     20  N   UNL     1      -1.339  10.495  20.259  0.00  0.00    +0.000 N 
ATOM     21  H   UNL     1      -1.672   9.563  20.075  0.00  0.00    +0.000 HD
BRANCH  18  25
ATOM     22  C   UNL     1      -3.791  10.587  15.734  0.00  0.00    +0.000 A 
ATOM     23  C   UNL     1      -2.604   9.951  16.090  0.00  0.00    +0.000 A 
ATOM     24  C   UNL     1      -1.995  10.218  17.321  0.00  0.00    +0.000 A 
ATOM     25  C   UNL     1      -2.565  11.136  18.216  0.00  0.00    +0.000 A 
ATOM     26  C   UNL     1      -3.795  11.718  17.881  0.00  0.00    +0.000 A 
ATOM     27  C   UNL     1      -4.391  11.464  16.636  0.00  0.00    +0.000 A 
BRANCH  22  29
ATOM     28  C   UNL     1      -3.278   9.850  13.537  0.00  0.00    +0.000 C 
ATOM     29  O   UNL     1      -4.246  10.296  14.478  0.00  0.00    +0.000 OA
ENDBRANCH  22  29
ENDBRANCH  18  25
ENDBRANCH   1  20
BRANCH   1  30
ATOM     30  C   UNL     1      -1.273  11.966  22.285  0.00  0.00    +0.000 C 
ATOM     31  O   UNL     1      -0.533  12.940  22.437  0.00  0.00    +0.000 OA
ATOM     32  N   UNL     1      -2.618  12.004  22.577  0.00  0.00    +0.000 N 
ATOM     33  H   UNL     1      -3.166  11.162  22.403  0.00  0.00    +0.000 HD
BRANCH  32  34
ATOM     34  C   UNL     1      -3.270  13.151  23.190  0.00  0.00    +0.000 C 
ATOM     35  C   UNL     1      -4.150  13.869  22.170  0.00  0.00    +0.000 C 
ATOM     36  C   UNL     1      -4.100  12.731  24.403  0.00  0.00    +0.000 C 
ENDBRANCH  32  34
ENDBRANCH   1  30
TORSDOF 8
ENDMDL
