MODEL 1
REMARK VINA RESULT:      -8.9      0.000      0.000
REMARK  Name = 
REMARK  7 active torsions:
REMARK  status: ('A' for Active; 'I' for Inactive)
REMARK    1  A    between atoms: C_1  and  C_2
REMARK    2  A    between atoms: C_4  and  N_5
REMARK    3  A    between atoms: N_6  and  C_7
REMARK    4  A    between atoms: C_10  and  S_11
REMARK    5  A    between atoms: S_11  and  N_14
REMARK    6  A    between atoms: C_23  and  N_24
REMARK    7  A    between atoms: C_27  and  O_28
REMARK                            x       y       z     vdW  Elec       q    Type
REMARK                         _______ _______ _______ _____ _____    ______ ____
ROOT
ATOM      1  C   UNL     1       7.831   8.035  18.109  0.00  0.00    +0.000 A 
ATOM      2  C   UNL     1       8.207   6.778  18.613  0.00  0.00    +0.000 A 
ATOM      3  C   UNL     1       7.406   5.643  18.414  0.00  0.00    +0.000 A 
ATOM      4  C   UNL     1       6.203   5.763  17.712  0.00  0.00    +0.000 A 
ATOM      5  C   UNL     1       5.824   6.993  17.175  0.00  0.00    +0.000 A 
ATOM      6  C   UNL     1       6.627   8.123  17.387  0.00  0.00    +0.000 A 
ENDROOT
BRANCH   4   7
ATOM      7  S   UNL     1       5.205   4.309  17.447  0.00  0.00    +0.000 S 
ATOM      8  O   UNL     1       5.666   3.662  16.238  0.00  0.00    +0.000 OA
ATOM      9  O   UNL     1       5.170   3.585  18.706  0.00  0.00    +0.000 OA
BRANCH   7  10
ATOM     10  N   UNL     1       3.641   4.904  17.207  0.00  0.00    +0.000 N 
ATOM     11  C   UNL     1       2.679   4.417  18.110  0.00  0.00    +0.000 A 
ATOM     12  C   UNL     1       2.466   5.027  19.334  0.00  0.00    +0.000 A 
ATOM     13  C   UNL     1       1.541   4.449  20.195  0.00  0.00    +0.000 A 
ATOM     14  C   UNL     1       0.897   3.276  19.815  0.00  0.00    +0.000 A 
ATOM     15  C   UNL     1       1.198   2.737  18.572  0.00  0.00    +0.000 A 
ATOM     16  N   UNL     1       2.070   3.291  17.701  0.00  0.00    +0.000 NA
ATOM     17  H   UNL     1       3.353   4.764  16.244  0.00  0.00    +0.000 HD
ENDBRANCH   7  10
ENDBRANCH   4   7
BRANCH   1  19
ATOM     18  N   UNL     1       8.326  10.170  17.756  0.00  0.00    +0.000 NA
ATOM     19  N   UNL     1       8.641   9.153  18.415  0.00  0.00    +0.000 NA
BRANCH  18  23
ATOM     20  C   UNL     1      12.333  11.881  20.076  0.00  0.00    +0.000 C 
ATOM     21  C   UNL     1      11.121  12.143  19.226  0.00  0.00    +0.000 A 
ATOM     22  C   UNL     1      10.296  11.090  18.798  0.00  0.00    +0.000 A 
ATOM     23  C   UNL     1       9.127  11.310  18.039  0.00  0.00    +0.000 A 
ATOM     24  C   UNL     1       8.793  12.640  17.672  0.00  0.00    +0.000 A 
ATOM     25  C   UNL     1       9.616  13.695  18.123  0.00  0.00    +0.000 A 
ATOM     26 CL   UNL     1       9.217  15.343  17.736  0.00  0.00    +0.000 Cl
ATOM     27  C   UNL     1      10.767  13.446  18.879  0.00  0.00    +0.000 A 
BRANCH  24  28
ATOM     28  N   UNL     1       7.539  12.934  17.074  0.00  0.00    +0.000 N 
ATOM     29  H   UNL     1       6.906  12.138  17.137  0.00  0.00    +0.000 HD
ATOM     30  H   UNL     1       7.631  13.309  16.132  0.00  0.00    +0.000 HD
ENDBRANCH  24  28
BRANCH  27  31
ATOM     31  O   UNL     1      11.568  14.472  19.312  0.00  0.00    +0.000 OA
ATOM     32  H   UNL     1      11.160  14.835  20.122  0.00  0.00    +0.000 HD
ENDBRANCH  27  31
ENDBRANCH  18  23
ENDBRANCH   1  19
TORSDOF 6
ENDMDL
MODEL 2
REMARK VINA RESULT:      -8.6      1.681      2.267
REMARK  Name = 
REMARK  7 active torsions:
REMARK  status: ('A' for Active; 'I' for Inactive)
REMARK    1  A    between atoms: C_1  and  C_2
REMARK    2  A    between atoms: C_4  and  N_5
REMARK    3  A    between atoms: N_6  and  C_7
REMARK    4  A    between atoms: C_10  and  S_11
REMARK    5  A    between atoms: S_11  and  N_14
REMARK    6  A    between atoms: C_23  and  N_24
REMARK    7  A    between atoms: C_27  and  O_28
REMARK                            x       y       z     vdW  Elec       q    Type
REMARK                         _______ _______ _______ _____ _____    ______ ____
ROOT
ATOM      1  C   UNL     1       8.209   8.090  18.477  0.00  0.00    +0.000 A 
ATOM      2  C   UNL     1       7.268   8.233  17.443  0.00  0.00    +0.000 A 
ATOM      3  C   UNL     1       6.496   7.147  17.005  0.00  0.00    +0.000 A 
ATOM      4  C   UNL     1       6.673   5.893  17.595  0.00  0.00    +0.000 A 
ATOM      5  C   UNL     1       7.579   5.732  18.644  0.00  0.00    +0.000 A 
ATOM      6  C   UNL     1       8.352   6.822  19.069  0.00  0.00    +0.000 A 
ENDROOT
BRANCH   4   7
ATOM      7  S   UNL     1       5.670   4.524  17.043  0.00  0.00    +0.000 S 
ATOM      8  O   UNL     1       4.365   5.039  16.690  0.00  0.00    +0.000 OA
ATOM      9  O   UNL     1       6.460   3.785  16.075  0.00  0.00    +0.000 OA
BRANCH   7  10
ATOM     10  N   UNL     1       5.534   3.523  18.398  0.00  0.00    +0.000 N 
ATOM     11  C   UNL     1       4.214   3.265  18.811  0.00  0.00    +0.000 A 
ATOM     12  C   UNL     1       3.479   2.227  18.267  0.00  0.00    +0.000 A 
ATOM     13  C   UNL     1       2.162   2.076  18.683  0.00  0.00    +0.000 A 
ATOM     14  C   UNL     1       1.628   2.981  19.594  0.00  0.00    +0.000 A 
ATOM     15  C   UNL     1       2.447   3.999  20.063  0.00  0.00    +0.000 A 
ATOM     16  N   UNL     1       3.739   4.154  19.700  0.00  0.00    +0.000 NA
ATOM     17  H   UNL     1       6.100   3.881  19.161  0.00  0.00    +0.000 HD
ENDBRANCH   7  10
ENDBRANCH   4   7
BRANCH   1  19
ATOM     18  N   UNL     1       8.689  10.239  18.190  0.00  0.00    +0.000 NA
ATOM     19  N   UNL     1       9.013   9.204  18.815  0.00  0.00    +0.000 NA
BRANCH  18  23
ATOM     20  C   UNL     1      12.333  13.224  16.714  0.00  0.00    +0.000 C 
ATOM     21  C   UNL     1      11.322  12.837  17.757  0.00  0.00    +0.000 A 
ATOM     22  C   UNL     1      10.413  11.790  17.529  0.00  0.00    +0.000 A 
ATOM     23  C   UNL     1       9.483  11.375  18.507  0.00  0.00    +0.000 A 
ATOM     24  C   UNL     1       9.448  12.061  19.749  0.00  0.00    +0.000 A 
ATOM     25  C   UNL     1      10.378  13.098  19.978  0.00  0.00    +0.000 A 
ATOM     26 CL   UNL     1      10.401  13.933  21.503  0.00  0.00    +0.000 Cl
ATOM     27  C   UNL     1      11.291  13.485  18.990  0.00  0.00    +0.000 A 
BRANCH  24  28
ATOM     28  N   UNL     1       8.668  11.567  20.828  0.00  0.00    +0.000 N 
ATOM     29  H   UNL     1       9.097  10.743  21.246  0.00  0.00    +0.000 HD
ATOM     30  H   UNL     1       7.690  11.436  20.577  0.00  0.00    +0.000 HD
ENDBRANCH  24  28
BRANCH  27  31
ATOM     31  O   UNL     1      12.191  14.497  19.213  0.00  0.00    +0.000 OA
ATOM     32  H   UNL     1      13.083  14.127  19.068  0.00  0.00    +0.000 HD
ENDBRANCH  27  31
ENDBRANCH  18  23
ENDBRANCH   1  19
TORSDOF 6
ENDMDL
MODEL 3
REMARK VINA RESULT:      -8.5      5.922      7.786
REMARK  Name = 
REMARK  7 active torsions:
REMARK  status: ('A' for Active; 'I' for Inactive)
REMARK    1  A    between atoms: C_1  and  C_2
REMARK    2  A    between atoms: C_4  and  N_5
REMARK    3  A    between atoms: N_6  and  C_7
REMARK    4  A    between atoms: C_10  and  S_11
REMARK    5  A    between atoms: S_11  and  N_14
REMARK    6  A    between atoms: C_23  and  N_24
REMARK    7  A    between atoms: C_27  and  O_28
REMARK                            x       y       z     vdW  Elec       q    Type
REMARK                         _______ _______ _______ _____ _____    ______ ____
ROOT
ATOM      1  C   UNL     1       2.377   7.704  18.867  0.00  0.00    +0.000 A 
ATOM      2  C   UNL     1       2.745   6.686  19.763  0.00  0.00    +0.000 A 
ATOM      3  C   UNL     1       3.770   5.779  19.455  0.00  0.00    +0.000 A 
ATOM      4  C   UNL     1       4.431   5.877  18.228  0.00  0.00    +0.000 A 
ATOM      5  C   UNL     1       4.105   6.898  17.335  0.00  0.00    +0.000 A 
ATOM      6  C   UNL     1       3.073   7.795  17.649  0.00  0.00    +0.000 A 
ENDROOT
BRANCH   4   7
ATOM      7  S   UNL     1       5.747   4.731  17.857  0.00  0.00    +0.000 S 
ATOM      8  O   UNL     1       6.599   5.334  16.856  0.00  0.00    +0.000 OA
ATOM      9  O   UNL     1       6.295   4.291  19.128  0.00  0.00    +0.000 OA
BRANCH   7  10
ATOM     10  N   UNL     1       4.965   3.386  17.195  0.00  0.00    +0.000 N 
ATOM     11  C   UNL     1       3.696   3.113  17.739  0.00  0.00    +0.000 A 
ATOM     12  C   UNL     1       2.556   3.721  17.246  0.00  0.00    +0.000 A 
ATOM     13  C   UNL     1       1.349   3.446  17.877  0.00  0.00    +0.000 A 
ATOM     14  C   UNL     1       1.337   2.608  18.987  0.00  0.00    +0.000 A 
ATOM     15  C   UNL     1       2.542   2.066  19.412  0.00  0.00    +0.000 A 
ATOM     16  N   UNL     1       3.726   2.291  18.801  0.00  0.00    +0.000 NA
ATOM     17  H   UNL     1       5.569   2.572  17.232  0.00  0.00    +0.000 HD
ENDBRANCH   7  10
ENDBRANCH   4   7
BRANCH   1  19
ATOM     18  N   UNL     1       0.987   9.335  18.287  0.00  0.00    +0.000 NA
ATOM     19  N   UNL     1       1.282   8.534  19.203  0.00  0.00    +0.000 NA
BRANCH  18  23
ATOM     20  C   UNL     1      -3.510  10.872  16.950  0.00  0.00    +0.000 C 
ATOM     21  C   UNL     1      -2.344  10.954  17.896  0.00  0.00    +0.000 A 
ATOM     22  C   UNL     1      -1.237  10.101  17.755  0.00  0.00    +0.000 A 
ATOM     23  C   UNL     1      -0.109  10.186  18.599  0.00  0.00    +0.000 A 
ATOM     24  C   UNL     1      -0.110  11.147  19.643  0.00  0.00    +0.000 A 
ATOM     25  C   UNL     1      -1.217  12.015  19.766  0.00  0.00    +0.000 A 
ATOM     26 CL   UNL     1      -1.239  13.237  21.002  0.00  0.00    +0.000 Cl
ATOM     27  C   UNL     1      -2.320  11.909  18.911  0.00  0.00    +0.000 A 
BRANCH  24  28
ATOM     28  N   UNL     1       1.067  11.400  20.397  0.00  0.00    +0.000 N 
ATOM     29  H   UNL     1       1.640  10.562  20.478  0.00  0.00    +0.000 HD
ATOM     30  H   UNL     1       0.872  11.850  21.290  0.00  0.00    +0.000 HD
ENDBRANCH  24  28
BRANCH  27  31
ATOM     31  O   UNL     1      -3.398  12.750  19.035  0.00  0.00    +0.000 OA
ATOM     32  H   UNL     1      -4.117  12.239  19.453  0.00  0.00    +0.000 HD
ENDBRANCH  27  31
ENDBRANCH  18  23
ENDBRANCH   1  19
TORSDOF 6
ENDMDL
MODEL 4
REMARK VINA RESULT:      -8.4      1.102      1.685
REMARK  Name = 
REMARK  7 active torsions:
REMARK  status: ('A' for Active; 'I' for Inactive)
REMARK    1  A    between atoms: C_1  and  C_2
REMARK    2  A    between atoms: C_4  and  N_5
REMARK    3  A    between atoms: N_6  and  C_7
REMARK    4  A    between atoms: C_10  and  S_11
REMARK    5  A    between atoms: S_11  and  N_14
REMARK    6  A    between atoms: C_23  and  N_24
REMARK    7  A    between atoms: C_27  and  O_28
REMARK                            x       y       z     vdW  Elec       q    Type
REMARK                         _______ _______ _______ _____ _____    ______ ____
ROOT
ATOM      1  C   UNL     1       7.773   7.872  17.979  0.00  0.00    +0.000 A 
ATOM      2  C   UNL     1       6.516   8.118  17.401  0.00  0.00    +0.000 A 
ATOM      3  C   UNL     1       5.589   7.085  17.204  0.00  0.00    +0.000 A 
ATOM      4  C   UNL     1       5.922   5.779  17.576  0.00  0.00    +0.000 A 
ATOM      5  C   UNL     1       7.151   5.514  18.180  0.00  0.00    +0.000 A 
ATOM      6  C   UNL     1       8.075   6.553  18.364  0.00  0.00    +0.000 A 
ENDROOT
BRANCH   4   7
ATOM      7  S   UNL     1       4.725   4.478  17.340  0.00  0.00    +0.000 S 
ATOM      8  O   UNL     1       3.416   5.085  17.241  0.00  0.00    +0.000 OA
ATOM      9  O   UNL     1       5.229   3.628  16.275  0.00  0.00    +0.000 OA
BRANCH   7  10
ATOM     10  N   UNL     1       4.814   3.557  18.754  0.00  0.00    +0.000 N 
ATOM     11  C   UNL     1       3.578   3.321  19.384  0.00  0.00    +0.000 A 
ATOM     12  C   UNL     1       2.778   2.252  19.022  0.00  0.00    +0.000 A 
ATOM     13  C   UNL     1       1.544   2.123  19.649  0.00  0.00    +0.000 A 
ATOM     14  C   UNL     1       1.150   3.079  20.579  0.00  0.00    +0.000 A 
ATOM     15  C   UNL     1       2.021   4.123  20.854  0.00  0.00    +0.000 A 
ATOM     16  N   UNL     1       3.239   4.259  20.284  0.00  0.00    +0.000 NA
ATOM     17  H   UNL     1       5.489   3.960  19.396  0.00  0.00    +0.000 HD
ENDBRANCH   7  10
ENDBRANCH   4   7
BRANCH   1  19
ATOM     18  N   UNL     1       8.129  10.058  18.125  0.00  0.00    +0.000 NA
ATOM     19  N   UNL     1       8.693   8.942  18.074  0.00  0.00    +0.000 NA
BRANCH  18  23
ATOM     20  C   UNL     1      12.333  11.747  20.085  0.00  0.00    +0.000 C 
ATOM     21  C   UNL     1      11.121  11.982  19.227  0.00  0.00    +0.000 A 
ATOM     22  C   UNL     1      10.199  10.951  18.979  0.00  0.00    +0.000 A 
ATOM     23  C   UNL     1       9.030  11.155  18.216  0.00  0.00    +0.000 A 
ATOM     24  C   UNL     1       8.796  12.438  17.657  0.00  0.00    +0.000 A 
ATOM     25  C   UNL     1       9.716  13.474  17.927  0.00  0.00    +0.000 A 
ATOM     26 CL   UNL     1       9.443  15.072  17.300  0.00  0.00    +0.000 Cl
ATOM     27  C   UNL     1      10.866  13.243  18.691  0.00  0.00    +0.000 A 
BRANCH  24  28
ATOM     28  N   UNL     1       7.552  12.746  17.043  0.00  0.00    +0.000 N 
ATOM     29  H   UNL     1       7.142  11.921  16.608  0.00  0.00    +0.000 HD
ATOM     30  H   UNL     1       7.609  13.550  16.422  0.00  0.00    +0.000 HD
ENDBRANCH  24  28
BRANCH  27  31
ATOM     31  O   UNL     1      11.761  14.250  18.948  0.00  0.00    +0.000 OA
ATOM     32  H   UNL     1      12.643  13.928  18.681  0.00  0.00    +0.000 HD
ENDBRANCH  27  31
ENDBRANCH  18  23
ENDBRANCH   1  19
TORSDOF 6
ENDMDL
MODEL 5
REMARK VINA RESULT:      -8.4      1.388      1.858
REMARK  Name = 
REMARK  7 active torsions:
REMARK  status: ('A' for Active; 'I' for Inactive)
REMARK    1  A    between atoms: C_1  and  C_2
REMARK    2  A    between atoms: C_4  and  N_5
REMARK    3  A    between atoms: N_6  and  C_7
REMARK    4  A    between atoms: C_10  and  S_11
REMARK    5  A    between atoms: S_11  and  N_14
REMARK    6  A    between atoms: C_23  and  N_24
REMARK    7  A    between atoms: C_27  and  O_28
REMARK                            x       y       z     vdW  Elec       q    Type
REMARK                         _______ _______ _______ _____ _____    ______ ____
ROOT
ATOM      1  C   UNL     1       7.870   8.246  17.995  0.00  0.00    +0.000 A 
ATOM      2  C   UNL     1       6.686   8.191  17.240  0.00  0.00    +0.000 A 
ATOM      3  C   UNL     1       5.930   7.013  17.154  0.00  0.00    +0.000 A 
ATOM      4  C   UNL     1       6.366   5.864  17.820  0.00  0.00    +0.000 A 
ATOM      5  C   UNL     1       7.521   5.901  18.601  0.00  0.00    +0.000 A 
ATOM      6  C   UNL     1       8.275   7.082  18.673  0.00  0.00    +0.000 A 
ENDROOT
BRANCH   4   7
ATOM      7  S   UNL     1       5.384   4.377  17.719  0.00  0.00    +0.000 S 
ATOM      8  O   UNL     1       5.815   3.634  16.555  0.00  0.00    +0.000 OA
ATOM      9  O   UNL     1       5.405   3.767  19.037  0.00  0.00    +0.000 OA
BRANCH   7  10
ATOM     10  N   UNL     1       3.803   4.928  17.484  0.00  0.00    +0.000 N 
ATOM     11  C   UNL     1       2.900   4.585  18.507  0.00  0.00    +0.000 A 
ATOM     12  C   UNL     1       2.754   5.377  19.632  0.00  0.00    +0.000 A 
ATOM     13  C   UNL     1       1.887   4.938  20.626  0.00  0.00    +0.000 A 
ATOM     14  C   UNL     1       1.233   3.721  20.470  0.00  0.00    +0.000 A 
ATOM     15  C   UNL     1       1.467   2.996  19.310  0.00  0.00    +0.000 A 
ATOM     16  N   UNL     1       2.280   3.409  18.313  0.00  0.00    +0.000 NA
ATOM     17  H   UNL     1       3.461   4.640  16.572  0.00  0.00    +0.000 HD
ENDBRANCH   7  10
ENDBRANCH   4   7
BRANCH   1  19
ATOM     18  N   UNL     1       8.675   9.999  19.093  0.00  0.00    +0.000 NA
ATOM     19  N   UNL     1       8.628   9.440  17.974  0.00  0.00    +0.000 NA
BRANCH  18  23
ATOM     20  C   UNL     1      11.948  12.798  16.680  0.00  0.00    +0.000 C 
ATOM     21  C   UNL     1      11.081  12.574  17.887  0.00  0.00    +0.000 A 
ATOM     22  C   UNL     1      10.219  11.467  17.963  0.00  0.00    +0.000 A 
ATOM     23  C   UNL     1       9.428  11.206  19.102  0.00  0.00    +0.000 A 
ATOM     24  C   UNL     1       9.485  12.111  20.194  0.00  0.00    +0.000 A 
ATOM     25  C   UNL     1      10.369  13.210  20.119  0.00  0.00    +0.000 A 
ATOM     26 CL   UNL     1      10.504  14.317  21.452  0.00  0.00    +0.000 Cl
ATOM     27  C   UNL     1      11.144  13.441  18.977  0.00  0.00    +0.000 A 
BRANCH  24  28
ATOM     28  N   UNL     1       8.857  11.798  21.429  0.00  0.00    +0.000 N 
ATOM     29  H   UNL     1       8.299  10.949  21.353  0.00  0.00    +0.000 HD
ATOM     30  H   UNL     1       8.349  12.588  21.822  0.00  0.00    +0.000 HD
ENDBRANCH  24  28
BRANCH  27  31
ATOM     31  O   UNL     1      11.999  14.512  18.904  0.00  0.00    +0.000 OA
ATOM     32  H   UNL     1      12.830  14.191  18.504  0.00  0.00    +0.000 HD
ENDBRANCH  27  31
ENDBRANCH  18  23
ENDBRANCH   1  19
TORSDOF 6
ENDMDL
MODEL 6
REMARK VINA RESULT:      -8.3      0.474      1.056
REMARK  Name = 
REMARK  7 active torsions:
REMARK  status: ('A' for Active; 'I' for Inactive)
REMARK    1  A    between atoms: C_1  and  C_2
REMARK    2  A    between atoms: C_4  and  N_5
REMARK    3  A    between atoms: N_6  and  C_7
REMARK    4  A    between atoms: C_10  and  S_11
REMARK    5  A    between atoms: S_11  and  N_14
REMARK    6  A    between atoms: C_23  and  N_24
REMARK    7  A    between atoms: C_27  and  O_28
REMARK                            x       y       z     vdW  Elec       q    Type
REMARK                         _______ _______ _______ _____ _____    ______ ____
ROOT
ATOM      1  C   UNL     1       7.796   7.732  18.159  0.00  0.00    +0.000 A 
ATOM      2  C   UNL     1       6.869   7.786  17.104  0.00  0.00    +0.000 A 
ATOM      3  C   UNL     1       6.082   6.675  16.767  0.00  0.00    +0.000 A 
ATOM      4  C   UNL     1       6.229   5.483  17.483  0.00  0.00    +0.000 A 
ATOM      5  C   UNL     1       7.120   5.414  18.555  0.00  0.00    +0.000 A 
ATOM      6  C   UNL     1       7.908   6.528  18.878  0.00  0.00    +0.000 A 
ENDROOT
BRANCH   4   7
ATOM      7  S   UNL     1       5.207   4.084  17.058  0.00  0.00    +0.000 S 
ATOM      8  O   UNL     1       5.683   3.546  15.802  0.00  0.00    +0.000 OA
ATOM      9  O   UNL     1       5.129   3.243  18.240  0.00  0.00    +0.000 OA
BRANCH   7  10
ATOM     10  N   UNL     1       3.662   4.736  16.844  0.00  0.00    +0.000 N 
ATOM     11  C   UNL     1       2.848   4.713  17.991  0.00  0.00    +0.000 A 
ATOM     12  C   UNL     1       2.889   5.734  18.923  0.00  0.00    +0.000 A 
ATOM     13  C   UNL     1       2.099   5.609  20.059  0.00  0.00    +0.000 A 
ATOM     14  C   UNL     1       1.332   4.461  20.231  0.00  0.00    +0.000 A 
ATOM     15  C   UNL     1       1.378   3.488  19.243  0.00  0.00    +0.000 A 
ATOM     16  N   UNL     1       2.113   3.595  18.114  0.00  0.00    +0.000 NA
ATOM     17  H   UNL     1       3.202   4.300  16.051  0.00  0.00    +0.000 HD
ENDBRANCH   7  10
ENDBRANCH   4   7
BRANCH   1  19
ATOM     18  N   UNL     1       8.229   9.874  17.771  0.00  0.00    +0.000 NA
ATOM     19  N   UNL     1       8.616   8.860  18.394  0.00  0.00    +0.000 NA
BRANCH  18  23
ATOM     20  C   UNL     1      12.328  11.662  19.861  0.00  0.00    +0.000 C 
ATOM     21  C   UNL     1      11.079  11.897  19.058  0.00  0.00    +0.000 A 
ATOM     22  C   UNL     1      10.240  10.829  18.698  0.00  0.00    +0.000 A 
ATOM     23  C   UNL     1       9.038  11.024  17.985  0.00  0.00    +0.000 A 
ATOM     24  C   UNL     1       8.683  12.342  17.593  0.00  0.00    +0.000 A 
ATOM     25  C   UNL     1       9.521  13.412  17.977  0.00  0.00    +0.000 A 
ATOM     26 CL   UNL     1       9.100  15.046  17.559  0.00  0.00    +0.000 Cl
ATOM     27  C   UNL     1      10.706  13.188  18.687  0.00  0.00    +0.000 A 
BRANCH  24  28
ATOM     28  N   UNL     1       7.403  12.615  17.043  0.00  0.00    +0.000 N 
ATOM     29  H   UNL     1       7.146  11.920  16.344  0.00  0.00    +0.000 HD
ATOM     30  H   UNL     1       7.313  13.575  16.716  0.00  0.00    +0.000 HD
ENDBRANCH  24  28
BRANCH  27  31
ATOM     31  O   UNL     1      11.521  14.229  19.055  0.00  0.00    +0.000 OA
ATOM     32  H   UNL     1      12.051  13.926  19.817  0.00  0.00    +0.000 HD
ENDBRANCH  27  31
ENDBRANCH  18  23
ENDBRANCH   1  19
TORSDOF 6
ENDMDL
MODEL 7
REMARK VINA RESULT:      -8.3      6.132      7.732
REMARK  Name = 
REMARK  7 active torsions:
REMARK  status: ('A' for Active; 'I' for Inactive)
REMARK    1  A    between atoms: C_1  and  C_2
REMARK    2  A    between atoms: C_4  and  N_5
REMARK    3  A    between atoms: N_6  and  C_7
REMARK    4  A    between atoms: C_10  and  S_11
REMARK    5  A    between atoms: S_11  and  N_14
REMARK    6  A    between atoms: C_23  and  N_24
REMARK    7  A    between atoms: C_27  and  O_28
REMARK                            x       y       z     vdW  Elec       q    Type
REMARK                         _______ _______ _______ _____ _____    ______ ____
ROOT
ATOM      1  C   UNL     1       2.262   7.855  18.969  0.00  0.00    +0.000 A 
ATOM      2  C   UNL     1       2.549   6.816  19.871  0.00  0.00    +0.000 A 
ATOM      3  C   UNL     1       3.524   5.850  19.584  0.00  0.00    +0.000 A 
ATOM      4  C   UNL     1       4.217   5.909  18.371  0.00  0.00    +0.000 A 
ATOM      5  C   UNL     1       3.972   6.948  17.473  0.00  0.00    +0.000 A 
ATOM      6  C   UNL     1       2.989   7.904  17.766  0.00  0.00    +0.000 A 
ENDROOT
BRANCH   4   7
ATOM      7  S   UNL     1       5.469   4.686  18.027  0.00  0.00    +0.000 S 
ATOM      8  O   UNL     1       6.432   5.273  17.121  0.00  0.00    +0.000 OA
ATOM      9  O   UNL     1       5.892   4.142  19.306  0.00  0.00    +0.000 OA
BRANCH   7  10
ATOM     10  N   UNL     1       4.641   3.440  17.240  0.00  0.00    +0.000 N 
ATOM     11  C   UNL     1       3.378   3.137  17.780  0.00  0.00    +0.000 A 
ATOM     12  C   UNL     1       2.243   3.821  17.381  0.00  0.00    +0.000 A 
ATOM     13  C   UNL     1       1.042   3.505  18.005  0.00  0.00    +0.000 A 
ATOM     14  C   UNL     1       1.031   2.552  19.017  0.00  0.00    +0.000 A 
ATOM     15  C   UNL     1       2.231   1.939  19.353  0.00  0.00    +0.000 A 
ATOM     16  N   UNL     1       3.408   2.203  18.744  0.00  0.00    +0.000 NA
ATOM     17  H   UNL     1       5.226   2.613  17.175  0.00  0.00    +0.000 HD
ENDBRANCH   7  10
ENDBRANCH   4   7
BRANCH   1  19
ATOM     18  N   UNL     1       0.961   9.543  18.348  0.00  0.00    +0.000 NA
ATOM     19  N   UNL     1       1.211   8.749  19.283  0.00  0.00    +0.000 NA
BRANCH  18  23
ATOM     20  C   UNL     1      -0.818  12.852  21.550  0.00  0.00    +0.000 C 
ATOM     21  C   UNL     1      -0.967  12.089  20.263  0.00  0.00    +0.000 A 
ATOM     22  C   UNL     1       0.043  11.222  19.816  0.00  0.00    +0.000 A 
ATOM     23  C   UNL     1      -0.089  10.458  18.637  0.00  0.00    +0.000 A 
ATOM     24  C   UNL     1      -1.271  10.597  17.863  0.00  0.00    +0.000 A 
ATOM     25  C   UNL     1      -2.291  11.455  18.330  0.00  0.00    +0.000 A 
ATOM     26 CL   UNL     1      -3.773  11.619  17.438  0.00  0.00    +0.000 Cl
ATOM     27  C   UNL     1      -2.132  12.197  19.506  0.00  0.00    +0.000 A 
BRANCH  24  28
ATOM     28  N   UNL     1      -1.534   9.720  16.777  0.00  0.00    +0.000 N 
ATOM     29  H   UNL     1      -1.465   8.745  17.066  0.00  0.00    +0.000 HD
ATOM     30  H   UNL     1      -0.982   9.942  15.951  0.00  0.00    +0.000 HD
ENDBRANCH  24  28
BRANCH  27  31
ATOM     31  O   UNL     1      -3.123  13.034  19.955  0.00  0.00    +0.000 OA
ATOM     32  H   UNL     1      -3.963  12.541  19.904  0.00  0.00    +0.000 HD
ENDBRANCH  27  31
ENDBRANCH  18  23
ENDBRANCH   1  19
TORSDOF 6
ENDMDL
MODEL 8
REMARK VINA RESULT:      -8.2      1.739      2.349
REMARK  Name = 
REMARK  7 active torsions:
REMARK  status: ('A' for Active; 'I' for Inactive)
REMARK    1  A    between atoms: C_1  and  C_2
REMARK    2  A    between atoms: C_4  and  N_5
REMARK    3  A    between atoms: N_6  and  C_7
REMARK    4  A    between atoms: C_10  and  S_11
REMARK    5  A    between atoms: S_11  and  N_14
REMARK    6  A    between atoms: C_23  and  N_24
REMARK    7  A    between atoms: C_27  and  O_28
REMARK                            x       y       z     vdW  Elec       q    Type
REMARK                         _______ _______ _______ _____ _____    ______ ____
ROOT
ATOM      1  C   UNL     1       7.865   8.505  18.038  0.00  0.00    +0.000 A 
ATOM      2  C   UNL     1       6.737   8.465  17.201  0.00  0.00    +0.000 A 
ATOM      3  C   UNL     1       6.084   7.257  16.914  0.00  0.00    +0.000 A 
ATOM      4  C   UNL     1       6.570   6.065  17.459  0.00  0.00    +0.000 A 
ATOM      5  C   UNL     1       7.668   6.082  18.319  0.00  0.00    +0.000 A 
ATOM      6  C   UNL     1       8.320   7.294  18.592  0.00  0.00    +0.000 A 
ENDROOT
BRANCH   4   7
ATOM      7  S   UNL     1       5.717   4.538  17.104  0.00  0.00    +0.000 S 
ATOM      8  O   UNL     1       4.369   4.863  16.692  0.00  0.00    +0.000 OA
ATOM      9  O   UNL     1       6.587   3.759  16.242  0.00  0.00    +0.000 OA
BRANCH   7  10
ATOM     10  N   UNL     1       5.672   3.722  18.584  0.00  0.00    +0.000 N 
ATOM     11  C   UNL     1       4.380   3.440  19.064  0.00  0.00    +0.000 A 
ATOM     12  C   UNL     1       3.706   2.294  18.684  0.00  0.00    +0.000 A 
ATOM     13  C   UNL     1       2.409   2.118  19.152  0.00  0.00    +0.000 A 
ATOM     14  C   UNL     1       1.834   3.103  19.949  0.00  0.00    +0.000 A 
ATOM     15  C   UNL     1       2.593   4.223  20.256  0.00  0.00    +0.000 A 
ATOM     16  N   UNL     1       3.865   4.409  19.839  0.00  0.00    +0.000 NA
ATOM     17  H   UNL     1       6.228   4.215  19.276  0.00  0.00    +0.000 HD
ENDBRANCH   7  10
ENDBRANCH   4   7
BRANCH   1  19
ATOM     18  N   UNL     1       9.138   9.804  19.310  0.00  0.00    +0.000 NA
ATOM     19  N   UNL     1       8.526   9.742  18.221  0.00  0.00    +0.000 NA
BRANCH  18  23
ATOM     20  C   UNL     1       9.557  13.787  22.197  0.00  0.00    +0.000 C 
ATOM     21  C   UNL     1       9.982  13.030  20.969  0.00  0.00    +0.000 A 
ATOM     22  C   UNL     1       9.464  11.754  20.691  0.00  0.00    +0.000 A 
ATOM     23  C   UNL     1       9.809  11.040  19.524  0.00  0.00    +0.000 A 
ATOM     24  C   UNL     1      10.734  11.621  18.618  0.00  0.00    +0.000 A 
ATOM     25  C   UNL     1      11.234  12.912  18.893  0.00  0.00    +0.000 A 
ATOM     26 CL   UNL     1      12.333  13.680  17.786  0.00  0.00    +0.000 Cl
ATOM     27  C   UNL     1      10.871  13.597  20.058  0.00  0.00    +0.000 A 
BRANCH  24  28
ATOM     28  N   UNL     1      10.970  11.033  17.346  0.00  0.00    +0.000 N 
ATOM     29  H   UNL     1      10.129  11.049  16.771  0.00  0.00    +0.000 HD
ATOM     30  H   UNL     1      11.402  10.114  17.412  0.00  0.00    +0.000 HD
ENDBRANCH  24  28
BRANCH  27  31
ATOM     31  O   UNL     1      11.362  14.850  20.327  0.00  0.00    +0.000 OA
ATOM     32  H   UNL     1      10.643  15.487  20.149  0.00  0.00    +0.000 HD
ENDBRANCH  27  31
ENDBRANCH  18  23
ENDBRANCH   1  19
TORSDOF 6
ENDMDL
MODEL 9
REMARK VINA RESULT:      -8.2      6.089      7.537
REMARK  Name = 
REMARK  7 active torsions:
REMARK  status: ('A' for Active; 'I' for Inactive)
REMARK    1  A    between atoms: C_1  and  C_2
REMARK    2  A    between atoms: C_4  and  N_5
REMARK    3  A    between atoms: N_6  and  C_7
REMARK    4  A    between atoms: C_10  and  S_11
REMARK    5  A    between atoms: S_11  and  N_14
REMARK    6  A    between atoms: C_23  and  N_24
REMARK    7  A    between atoms: C_27  and  O_28
REMARK                            x       y       z     vdW  Elec       q    Type
REMARK                         _______ _______ _______ _____ _____    ______ ____
ROOT
ATOM      1  C   UNL     1       2.335   7.789  18.803  0.00  0.00    +0.000 A 
ATOM      2  C   UNL     1       3.127   7.775  17.642  0.00  0.00    +0.000 A 
ATOM      3  C   UNL     1       4.102   6.789  17.436  0.00  0.00    +0.000 A 
ATOM      4  C   UNL     1       4.304   5.805  18.409  0.00  0.00    +0.000 A 
ATOM      5  C   UNL     1       3.509   5.779  19.555  0.00  0.00    +0.000 A 
ATOM      6  C   UNL     1       2.543   6.775  19.756  0.00  0.00    +0.000 A 
ENDROOT
BRANCH   4   7
ATOM      7  S   UNL     1       5.533   4.543  18.125  0.00  0.00    +0.000 S 
ATOM      8  O   UNL     1       6.548   5.094  17.254  0.00  0.00    +0.000 OA
ATOM      9  O   UNL     1       5.888   3.999  19.424  0.00  0.00    +0.000 OA
BRANCH   7  10
ATOM     10  N   UNL     1       4.701   3.314  17.315  0.00  0.00    +0.000 N 
ATOM     11  C   UNL     1       3.409   3.052  17.807  0.00  0.00    +0.000 A 
ATOM     12  C   UNL     1       2.311   3.764  17.359  0.00  0.00    +0.000 A 
ATOM     13  C   UNL     1       1.078   3.488  17.938  0.00  0.00    +0.000 A 
ATOM     14  C   UNL     1       1.000   2.544  18.956  0.00  0.00    +0.000 A 
ATOM     15  C   UNL     1       2.168   1.901  19.343  0.00  0.00    +0.000 A 
ATOM     16  N   UNL     1       3.375   2.126  18.779  0.00  0.00    +0.000 NA
ATOM     17  H   UNL     1       5.264   2.471  17.279  0.00  0.00    +0.000 HD
ENDBRANCH   7  10
ENDBRANCH   4   7
BRANCH   1  19
ATOM     18  N   UNL     1       1.274   9.156  20.194  0.00  0.00    +0.000 NA
ATOM     19  N   UNL     1       1.427   8.858  18.988  0.00  0.00    +0.000 NA
BRANCH  18  23
ATOM     20  C   UNL     1      -0.504  13.429  18.477  0.00  0.00    +0.000 C 
ATOM     21  C   UNL     1      -0.493  12.369  19.543  0.00  0.00    +0.000 A 
ATOM     22  C   UNL     1       0.296  11.215  19.406  0.00  0.00    +0.000 A 
ATOM     23  C   UNL     1       0.362  10.225  20.411  0.00  0.00    +0.000 A 
ATOM     24  C   UNL     1      -0.419  10.392  21.584  0.00  0.00    +0.000 A 
ATOM     25  C   UNL     1      -1.192  11.565  21.724  0.00  0.00    +0.000 A 
ATOM     26 CL   UNL     1      -2.127  11.831  23.165  0.00  0.00    +0.000 Cl
ATOM     27  C   UNL     1      -1.235  12.531  20.711  0.00  0.00    +0.000 A 
BRANCH  24  28
ATOM     28  N   UNL     1      -0.247   9.528  22.698  0.00  0.00    +0.000 N 
ATOM     29  H   UNL     1       0.712   9.189  22.757  0.00  0.00    +0.000 HD
ATOM     30  H   UNL     1      -0.945   8.787  22.732  0.00  0.00    +0.000 HD
ENDBRANCH  24  28
BRANCH  27  31
ATOM     31  O   UNL     1      -1.991  13.668  20.847  0.00  0.00    +0.000 OA
ATOM     32  H   UNL     1      -2.468  13.800  20.005  0.00  0.00    +0.000 HD
ENDBRANCH  27  31
ENDBRANCH  18  23
ENDBRANCH   1  19
TORSDOF 6
ENDMDL
