MODEL 1
REMARK VINA RESULT:      -8.3      0.000      0.000
REMARK  Name = 
REMARK  4 active torsions:
REMARK  status: ('A' for Active; 'I' for Inactive)
REMARK    1  A    between atoms: C_2  and  C_4
REMARK    2  A    between atoms: N_9  and  C_10
REMARK    3  A    between atoms: C_10  and  C_11
REMARK    4  A    between atoms: C_15  and  C_16
REMARK                            x       y       z     vdW  Elec       q    Type
REMARK                         _______ _______ _______ _____ _____    ______ ____
ROOT
ATOM      1  C   UNL     1       3.270   6.240  18.599  0.00  0.00    +0.000 A 
ATOM      2  C   UNL     1       2.656   6.332  19.958  0.00  0.00    +0.000 A 
ATOM      3  N   UNL     1       1.933   7.310  20.413  0.00  0.00    +0.000 NA
ATOM      4  C   UNL     1       1.730   8.371  19.562  0.00  0.00    +0.000 A 
ATOM      5  C   UNL     1       1.025   9.560  19.682  0.00  0.00    +0.000 A 
ATOM      6  C   UNL     1       1.279  10.234  18.466  0.00  0.00    +0.000 A 
ATOM      7  N   UNL     1       2.030   9.534  17.617  0.00  0.00    +0.000 NA
ATOM      8  N   UNL     1       2.291   8.384  18.280  0.00  0.00    +0.000 N 
ATOM      9  C   UNL     1       3.023   7.301  17.813  0.00  0.00    +0.000 A 
ENDROOT
BRANCH   5  10
ATOM     10  C   UNL     1       0.255   9.989  20.843  0.00  0.00    +0.000 A 
ATOM     11  C   UNL     1      -0.546  11.138  20.769  0.00  0.00    +0.000 A 
ATOM     12  C   UNL     1      -1.266  11.581  21.884  0.00  0.00    +0.000 A 
ATOM     13  C   UNL     1      -1.202  10.875  23.082  0.00  0.00    +0.000 A 
ATOM     14  C   UNL     1      -0.434   9.717  23.163  0.00  0.00    +0.000 A 
ATOM     15  C   UNL     1       0.282   9.274  22.048  0.00  0.00    +0.000 A 
ENDBRANCH   5  10
BRANCH   1  16
ATOM     16  C   UNL     1       4.015   5.003  18.195  0.00  0.00    +0.000 C 
BRANCH  16  22
ATOM     17  C   UNL     1       6.321   4.725  17.436  0.00  0.00    +0.000 C 
ATOM     18  C   UNL     1       7.304   4.841  16.257  0.00  0.00    +0.000 C 
ATOM     19  C   UNL     1       6.830   4.018  15.069  0.00  0.00    +0.000 C 
ATOM     20  C   UNL     1       5.418   4.433  14.691  0.00  0.00    +0.000 C 
ATOM     21  C   UNL     1       4.479   4.375  15.895  0.00  0.00    +0.000 C 
ATOM     22  N   UNL     1       4.945   5.184  17.049  0.00  0.00    +0.000 NA
BRANCH  17  24
ATOM     23  N   UNL     1       7.477   6.713  18.346  0.00  0.00    +0.000 N 
ATOM     24  C   UNL     1       6.866   5.528  18.634  0.00  0.00    +0.000 C 
ATOM     25  O   UNL     1       6.744   5.154  19.796  0.00  0.00    +0.000 OA
ATOM     26  H   UNL     1       7.762   7.290  19.127  0.00  0.00    +0.000 HD
ATOM     27  H   UNL     1       7.352   7.147  17.441  0.00  0.00    +0.000 HD
ENDBRANCH  17  24
ENDBRANCH  16  22
ENDBRANCH   1  16
TORSDOF 4
ENDMDL
MODEL 2
REMARK VINA RESULT:      -8.2      1.530      2.272
REMARK  Name = 
REMARK  4 active torsions:
REMARK  status: ('A' for Active; 'I' for Inactive)
REMARK    1  A    between atoms: C_2  and  C_4
REMARK    2  A    between atoms: N_9  and  C_10
REMARK    3  A    between atoms: C_10  and  C_11
REMARK    4  A    between atoms: C_15  and  C_16
REMARK                            x       y       z     vdW  Elec       q    Type
REMARK                         _______ _______ _______ _____ _____    ______ ____
ROOT
ATOM      1  C   UNL     1       3.185   6.281  18.319  0.00  0.00    +0.000 A 
ATOM      2  C   UNL     1       2.595   6.292  19.691  0.00  0.00    +0.000 A 
ATOM      3  N   UNL     1       1.908   7.255  20.228  0.00  0.00    +0.000 NA
ATOM      4  C   UNL     1       1.723   8.379  19.457  0.00  0.00    +0.000 A 
ATOM      5  C   UNL     1       1.056   9.577  19.674  0.00  0.00    +0.000 A 
ATOM      6  C   UNL     1       1.311  10.329  18.505  0.00  0.00    +0.000 A 
ATOM      7  N   UNL     1       2.029   9.670  17.595  0.00  0.00    +0.000 NA
ATOM      8  N   UNL     1       2.265   8.469  18.170  0.00  0.00    +0.000 N 
ATOM      9  C   UNL     1       2.958   7.401  17.615  0.00  0.00    +0.000 A 
ENDROOT
BRANCH   5  10
ATOM     10  C   UNL     1       0.316   9.943  20.875  0.00  0.00    +0.000 A 
ATOM     11  C   UNL     1      -0.493  11.090  20.880  0.00  0.00    +0.000 A 
ATOM     12  C   UNL     1      -1.183  11.472  22.035  0.00  0.00    +0.000 A 
ATOM     13  C   UNL     1      -1.082  10.709  23.195  0.00  0.00    +0.000 A 
ATOM     14  C   UNL     1      -0.306   9.553  23.197  0.00  0.00    +0.000 A 
ATOM     15  C   UNL     1       0.380   9.170  22.042  0.00  0.00    +0.000 A 
ENDBRANCH   5  10
BRANCH   1  16
ATOM     16  C   UNL     1       3.887   5.055  17.816  0.00  0.00    +0.000 C 
BRANCH  16  22
ATOM     17  C   UNL     1       5.890   6.213  17.030  0.00  0.00    +0.000 C 
ATOM     18  C   UNL     1       7.420   6.342  17.137  0.00  0.00    +0.000 C 
ATOM     19  C   UNL     1       7.846   6.612  18.572  0.00  0.00    +0.000 C 
ATOM     20  C   UNL     1       7.289   5.531  19.482  0.00  0.00    +0.000 C 
ATOM     21  C   UNL     1       5.779   5.377  19.306  0.00  0.00    +0.000 C 
ATOM     22  N   UNL     1       5.371   5.109  17.905  0.00  0.00    +0.000 NA
BRANCH  17  24
ATOM     23  N   UNL     1       5.679   4.738  15.057  0.00  0.00    +0.000 N 
ATOM     24  C   UNL     1       5.500   5.995  15.555  0.00  0.00    +0.000 C 
ATOM     25  O   UNL     1       5.024   6.883  14.855  0.00  0.00    +0.000 OA
ATOM     26  H   UNL     1       5.346   4.559  14.118  0.00  0.00    +0.000 HD
ATOM     27  H   UNL     1       5.815   3.954  15.681  0.00  0.00    +0.000 HD
ENDBRANCH  17  24
ENDBRANCH  16  22
ENDBRANCH   1  16
TORSDOF 4
ENDMDL
MODEL 3
REMARK VINA RESULT:      -8.1      4.260      8.797
REMARK  Name = 
REMARK  4 active torsions:
REMARK  status: ('A' for Active; 'I' for Inactive)
REMARK    1  A    between atoms: C_2  and  C_4
REMARK    2  A    between atoms: N_9  and  C_10
REMARK    3  A    between atoms: C_10  and  C_11
REMARK    4  A    between atoms: C_15  and  C_16
REMARK                            x       y       z     vdW  Elec       q    Type
REMARK                         _______ _______ _______ _____ _____    ______ ____
ROOT
ATOM      1  C   UNL     1       5.148   4.523  17.958  0.00  0.00    +0.000 A 
ATOM      2  C   UNL     1       4.360   3.707  16.986  0.00  0.00    +0.000 A 
ATOM      3  N   UNL     1       4.634   3.526  15.730  0.00  0.00    +0.000 NA
ATOM      4  C   UNL     1       5.752   4.166  15.248  0.00  0.00    +0.000 A 
ATOM      5  C   UNL     1       6.356   4.205  13.999  0.00  0.00    +0.000 A 
ATOM      6  C   UNL     1       7.434   5.104  14.167  0.00  0.00    +0.000 A 
ATOM      7  N   UNL     1       7.553   5.564  15.412  0.00  0.00    +0.000 NA
ATOM      8  N   UNL     1       6.535   4.975  16.079  0.00  0.00    +0.000 N 
ATOM      9  C   UNL     1       6.233   5.110  17.428  0.00  0.00    +0.000 A 
ENDROOT
BRANCH   5  10
ATOM     10  C   UNL     1       5.909   3.499  12.805  0.00  0.00    +0.000 A 
ATOM     11  C   UNL     1       4.637   3.758  12.270  0.00  0.00    +0.000 A 
ATOM     12  C   UNL     1       4.181   3.065  11.145  0.00  0.00    +0.000 A 
ATOM     13  C   UNL     1       4.992   2.112  10.534  0.00  0.00    +0.000 A 
ATOM     14  C   UNL     1       6.266   1.865  11.036  0.00  0.00    +0.000 A 
ATOM     15  C   UNL     1       6.723   2.560  12.158  0.00  0.00    +0.000 A 
ENDBRANCH   5  10
BRANCH   1  16
ATOM     16  C   UNL     1       4.741   4.569  19.400  0.00  0.00    +0.000 C 
BRANCH  16  22
ATOM     17  C   UNL     1       3.585   2.941  20.809  0.00  0.00    +0.000 C 
ATOM     18  C   UNL     1       2.236   2.304  21.187  0.00  0.00    +0.000 C 
ATOM     19  C   UNL     1       1.233   3.364  21.616  0.00  0.00    +0.000 C 
ATOM     20  C   UNL     1       1.096   4.410  20.523  0.00  0.00    +0.000 C 
ATOM     21  C   UNL     1       2.456   4.975  20.119  0.00  0.00    +0.000 C 
ATOM     22  N   UNL     1       3.428   3.936  19.696  0.00  0.00    +0.000 NA
BRANCH  17  24
ATOM     23  N   UNL     1       4.447   1.278  19.194  0.00  0.00    +0.000 N 
ATOM     24  C   UNL     1       4.585   1.829  20.434  0.00  0.00    +0.000 C 
ATOM     25  O   UNL     1       5.485   1.463  21.184  0.00  0.00    +0.000 OA
ATOM     26  H   UNL     1       5.148   0.610  18.902  0.00  0.00    +0.000 HD
ATOM     27  H   UNL     1       3.894   1.743  18.486  0.00  0.00    +0.000 HD
ENDBRANCH  17  24
ENDBRANCH  16  22
ENDBRANCH   1  16
TORSDOF 4
ENDMDL
MODEL 4
REMARK VINA RESULT:      -8.0      2.053      3.098
REMARK  Name = 
REMARK  4 active torsions:
REMARK  status: ('A' for Active; 'I' for Inactive)
REMARK    1  A    between atoms: C_2  and  C_4
REMARK    2  A    between atoms: N_9  and  C_10
REMARK    3  A    between atoms: C_10  and  C_11
REMARK    4  A    between atoms: C_15  and  C_16
REMARK                            x       y       z     vdW  Elec       q    Type
REMARK                         _______ _______ _______ _____ _____    ______ ____
ROOT
ATOM      1  C   UNL     1       2.383   6.940  19.810  0.00  0.00    +0.000 A 
ATOM      2  C   UNL     1       1.576   7.328  21.005  0.00  0.00    +0.000 A 
ATOM      3  N   UNL     1       0.852   8.400  21.132  0.00  0.00    +0.000 NA
ATOM      4  C   UNL     1       0.847   9.266  20.063  0.00  0.00    +0.000 A 
ATOM      5  C   UNL     1       0.206  10.474  19.827  0.00  0.00    +0.000 A 
ATOM      6  C   UNL     1       0.683  10.874  18.558  0.00  0.00    +0.000 A 
ATOM      7  N   UNL     1       1.512   9.992  18.000  0.00  0.00    +0.000 NA
ATOM      8  N   UNL     1       1.597   8.997  18.913  0.00  0.00    +0.000 N 
ATOM      9  C   UNL     1       2.325   7.821  18.799  0.00  0.00    +0.000 A 
ENDROOT
BRANCH   5  10
ATOM     10  C   UNL     1      -0.706  11.155  20.738  0.00  0.00    +0.000 A 
ATOM     11  C   UNL     1      -1.754  11.938  20.228  0.00  0.00    +0.000 A 
ATOM     12  C   UNL     1      -2.617  12.624  21.088  0.00  0.00    +0.000 A 
ATOM     13  C   UNL     1      -2.451  12.529  22.467  0.00  0.00    +0.000 A 
ATOM     14  C   UNL     1      -1.433  11.735  22.988  0.00  0.00    +0.000 A 
ATOM     15  C   UNL     1      -0.574  11.047  22.128  0.00  0.00    +0.000 A 
ENDBRANCH   5  10
BRANCH   1  16
ATOM     16  C   UNL     1       3.105   5.626  19.789  0.00  0.00    +0.000 C 
BRANCH  16  22
ATOM     17  C   UNL     1       3.441   3.488  18.653  0.00  0.00    +0.000 C 
ATOM     18  C   UNL     1       2.788   2.344  17.857  0.00  0.00    +0.000 C 
ATOM     19  C   UNL     1       1.630   1.733  18.631  0.00  0.00    +0.000 C 
ATOM     20  C   UNL     1       0.637   2.820  19.008  0.00  0.00    +0.000 C 
ATOM     21  C   UNL     1       1.324   3.974  19.735  0.00  0.00    +0.000 C 
ATOM     22  N   UNL     1       2.450   4.569  18.973  0.00  0.00    +0.000 NA
BRANCH  17  24
ATOM     23  N   UNL     1       5.878   3.819  18.390  0.00  0.00    +0.000 N 
ATOM     24  C   UNL     1       4.641   4.041  17.859  0.00  0.00    +0.000 C 
ATOM     25  O   UNL     1       4.516   4.628  16.789  0.00  0.00    +0.000 OA
ATOM     26  H   UNL     1       6.677   4.100  17.837  0.00  0.00    +0.000 HD
ATOM     27  H   UNL     1       6.008   3.125  19.114  0.00  0.00    +0.000 HD
ENDBRANCH  17  24
ENDBRANCH  16  22
ENDBRANCH   1  16
TORSDOF 4
ENDMDL
MODEL 5
REMARK VINA RESULT:      -8.0      0.655      1.163
REMARK  Name = 
REMARK  4 active torsions:
REMARK  status: ('A' for Active; 'I' for Inactive)
REMARK    1  A    between atoms: C_2  and  C_4
REMARK    2  A    between atoms: N_9  and  C_10
REMARK    3  A    between atoms: C_10  and  C_11
REMARK    4  A    between atoms: C_15  and  C_16
REMARK                            x       y       z     vdW  Elec       q    Type
REMARK                         _______ _______ _______ _____ _____    ______ ____
ROOT
ATOM      1  C   UNL     1       3.363   6.275  18.518  0.00  0.00    +0.000 A 
ATOM      2  C   UNL     1       2.786   6.358  19.893  0.00  0.00    +0.000 A 
ATOM      3  N   UNL     1       2.052   7.320  20.365  0.00  0.00    +0.000 NA
ATOM      4  C   UNL     1       1.799   8.371  19.515  0.00  0.00    +0.000 A 
ATOM      5  C   UNL     1       1.069   9.544  19.650  0.00  0.00    +0.000 A 
ATOM      6  C   UNL     1       1.271  10.218  18.425  0.00  0.00    +0.000 A 
ATOM      7  N   UNL     1       2.015   9.532  17.557  0.00  0.00    +0.000 NA
ATOM      8  N   UNL     1       2.322   8.392  18.218  0.00  0.00    +0.000 N 
ATOM      9  C   UNL     1       3.068   7.325  17.735  0.00  0.00    +0.000 A 
ENDROOT
BRANCH   5  10
ATOM     10  C   UNL     1       0.322   9.959  20.831  0.00  0.00    +0.000 A 
ATOM     11  C   UNL     1       0.320   9.155  21.981  0.00  0.00    +0.000 A 
ATOM     12  C   UNL     1      -0.418   9.523  23.110  0.00  0.00    +0.000 A 
ATOM     13  C   UNL     1      -1.155  10.705  23.109  0.00  0.00    +0.000 A 
ATOM     14  C   UNL     1      -1.140  11.528  21.986  0.00  0.00    +0.000 A 
ATOM     15  C   UNL     1      -0.399  11.160  20.860  0.00  0.00    +0.000 A 
ENDBRANCH   5  10
BRANCH   1  16
ATOM     16  C   UNL     1       4.127   5.054  18.099  0.00  0.00    +0.000 C 
BRANCH  16  22
ATOM     17  C   UNL     1       6.392   4.868  17.202  0.00  0.00    +0.000 C 
ATOM     18  C   UNL     1       7.290   4.985  15.957  0.00  0.00    +0.000 C 
ATOM     19  C   UNL     1       6.789   4.087  14.836  0.00  0.00    +0.000 C 
ATOM     20  C   UNL     1       5.335   4.408  14.536  0.00  0.00    +0.000 C 
ATOM     21  C   UNL     1       4.479   4.353  15.800  0.00  0.00    +0.000 C 
ATOM     22  N   UNL     1       4.971   5.235  16.888  0.00  0.00    +0.000 NA
BRANCH  17  24
ATOM     23  N   UNL     1       7.219   5.131  19.518  0.00  0.00    +0.000 N 
ATOM     24  C   UNL     1       6.966   5.750  18.328  0.00  0.00    +0.000 C 
ATOM     25  O   UNL     1       7.217   6.941  18.178  0.00  0.00    +0.000 OA
ATOM     26  H   UNL     1       7.676   5.677  20.237  0.00  0.00    +0.000 HD
ATOM     27  H   UNL     1       7.267   4.122  19.570  0.00  0.00    +0.000 HD
ENDBRANCH  17  24
ENDBRANCH  16  22
ENDBRANCH   1  16
TORSDOF 4
ENDMDL
MODEL 6
REMARK VINA RESULT:      -7.9      3.412      8.664
REMARK  Name = 
REMARK  4 active torsions:
REMARK  status: ('A' for Active; 'I' for Inactive)
REMARK    1  A    between atoms: C_2  and  C_4
REMARK    2  A    between atoms: N_9  and  C_10
REMARK    3  A    between atoms: C_10  and  C_11
REMARK    4  A    between atoms: C_15  and  C_16
REMARK                            x       y       z     vdW  Elec       q    Type
REMARK                         _______ _______ _______ _____ _____    ______ ____
ROOT
ATOM      1  C   UNL     1       0.887   9.886  18.995  0.00  0.00    +0.000 A 
ATOM      2  C   UNL     1       1.668   9.658  17.742  0.00  0.00    +0.000 A 
ATOM      3  N   UNL     1       2.410   8.627  17.472  0.00  0.00    +0.000 NA
ATOM      4  C   UNL     1       2.495   7.661  18.448  0.00  0.00    +0.000 A 
ATOM      5  C   UNL     1       3.162   6.446  18.522  0.00  0.00    +0.000 A 
ATOM      6  C   UNL     1       2.884   5.980  19.827  0.00  0.00    +0.000 A 
ATOM      7  N   UNL     1       2.074   6.784  20.517  0.00  0.00    +0.000 NA
ATOM      8  N   UNL     1       1.821   7.804  19.665  0.00  0.00    +0.000 N 
ATOM      9  C   UNL     1       1.003   8.901  19.900  0.00  0.00    +0.000 A 
ENDROOT
BRANCH   5  10
ATOM     10  C   UNL     1       3.990   5.855  17.478  0.00  0.00    +0.000 A 
ATOM     11  C   UNL     1       3.992   4.465  17.285  0.00  0.00    +0.000 A 
ATOM     12  C   UNL     1       4.805   3.880  16.309  0.00  0.00    +0.000 A 
ATOM     13  C   UNL     1       5.618   4.677  15.507  0.00  0.00    +0.000 A 
ATOM     14  C   UNL     1       5.606   6.060  15.668  0.00  0.00    +0.000 A 
ATOM     15  C   UNL     1       4.791   6.643  16.640  0.00  0.00    +0.000 A 
ENDBRANCH   5  10
BRANCH   1  16
ATOM     16  C   UNL     1       0.012  11.097  19.122  0.00  0.00    +0.000 C 
BRANCH  16  22
ATOM     17  C   UNL     1      -2.198  12.124  18.935  0.00  0.00    +0.000 C 
ATOM     18  C   UNL     1      -3.707  11.891  18.743  0.00  0.00    +0.000 C 
ATOM     19  C   UNL     1      -3.980  11.110  17.466  0.00  0.00    +0.000 C 
ATOM     20  C   UNL     1      -3.188   9.814  17.481  0.00  0.00    +0.000 C 
ATOM     21  C   UNL     1      -1.705  10.069  17.743  0.00  0.00    +0.000 C 
ATOM     22  N   UNL     1      -1.445  10.826  18.992  0.00  0.00    +0.000 NA
BRANCH  17  24
ATOM     23  N   UNL     1      -1.604  14.265  20.024  0.00  0.00    +0.000 N 
ATOM     24  C   UNL     1      -1.971  12.963  20.208  0.00  0.00    +0.000 C 
ATOM     25  O   UNL     1      -2.133  12.515  21.339  0.00  0.00    +0.000 OA
ATOM     26  H   UNL     1      -1.537  14.849  20.847  0.00  0.00    +0.000 HD
ATOM     27  H   UNL     1      -1.723  14.707  19.122  0.00  0.00    +0.000 HD
ENDBRANCH  17  24
ENDBRANCH  16  22
ENDBRANCH   1  16
TORSDOF 4
ENDMDL
MODEL 7
REMARK VINA RESULT:      -7.8      1.459      2.530
REMARK  Name = 
REMARK  4 active torsions:
REMARK  status: ('A' for Active; 'I' for Inactive)
REMARK    1  A    between atoms: C_2  and  C_4
REMARK    2  A    between atoms: N_9  and  C_10
REMARK    3  A    between atoms: C_10  and  C_11
REMARK    4  A    between atoms: C_15  and  C_16
REMARK                            x       y       z     vdW  Elec       q    Type
REMARK                         _______ _______ _______ _____ _____    ______ ____
ROOT
ATOM      1  C   UNL     1       3.635   6.306  18.604  0.00  0.00    +0.000 A 
ATOM      2  C   UNL     1       3.359   7.465  17.704  0.00  0.00    +0.000 A 
ATOM      3  N   UNL     1       2.559   8.458  17.949  0.00  0.00    +0.000 NA
ATOM      4  C   UNL     1       1.889   8.424  19.149  0.00  0.00    +0.000 A 
ATOM      5  C   UNL     1       0.982   9.285  19.753  0.00  0.00    +0.000 A 
ATOM      6  C   UNL     1       0.629   8.626  20.952  0.00  0.00    +0.000 A 
ATOM      7  N   UNL     1       1.277   7.476  21.138  0.00  0.00    +0.000 NA
ATOM      8  N   UNL     1       2.063   7.362  20.043  0.00  0.00    +0.000 N 
ATOM      9  C   UNL     1       2.960   6.339  19.764  0.00  0.00    +0.000 A 
ENDROOT
BRANCH   5  10
ATOM     10  C   UNL     1       0.501  10.547  19.206  0.00  0.00    +0.000 A 
ATOM     11  C   UNL     1      -0.816  10.652  18.734  0.00  0.00    +0.000 A 
ATOM     12  C   UNL     1      -1.284  11.846  18.177  0.00  0.00    +0.000 A 
ATOM     13  C   UNL     1      -0.444  12.954  18.093  0.00  0.00    +0.000 A 
ATOM     14  C   UNL     1       0.857  12.874  18.583  0.00  0.00    +0.000 A 
ATOM     15  C   UNL     1       1.321  11.682  19.142  0.00  0.00    +0.000 A 
ENDBRANCH   5  10
BRANCH   1  16
ATOM     16  C   UNL     1       4.651   5.276  18.209  0.00  0.00    +0.000 C 
BRANCH  16  22
ATOM     17  C   UNL     1       6.678   5.348  16.846  0.00  0.00    +0.000 C 
ATOM     18  C   UNL     1       7.264   5.437  15.426  0.00  0.00    +0.000 C 
ATOM     19  C   UNL     1       6.730   4.320  14.544  0.00  0.00    +0.000 C 
ATOM     20  C   UNL     1       5.211   4.347  14.549  0.00  0.00    +0.000 C 
ATOM     21  C   UNL     1       4.657   4.327  15.972  0.00  0.00    +0.000 C 
ATOM     22  N   UNL     1       5.179   5.423  16.826  0.00  0.00    +0.000 NA
BRANCH  17  24
ATOM     23  N   UNL     1       7.180   7.737  17.242  0.00  0.00    +0.000 N 
ATOM     24  C   UNL     1       7.287   6.463  17.719  0.00  0.00    +0.000 C 
ATOM     25  O   UNL     1       7.818   6.244  18.803  0.00  0.00    +0.000 OA
ATOM     26  H   UNL     1       7.497   8.486  17.844  0.00  0.00    +0.000 HD
ATOM     27  H   UNL     1       6.527   7.953  16.500  0.00  0.00    +0.000 HD
ENDBRANCH  17  24
ENDBRANCH  16  22
ENDBRANCH   1  16
TORSDOF 4
ENDMDL
MODEL 8
REMARK VINA RESULT:      -7.8      1.864      3.080
REMARK  Name = 
REMARK  4 active torsions:
REMARK  status: ('A' for Active; 'I' for Inactive)
REMARK    1  A    between atoms: C_2  and  C_4
REMARK    2  A    between atoms: N_9  and  C_10
REMARK    3  A    between atoms: C_10  and  C_11
REMARK    4  A    between atoms: C_15  and  C_16
REMARK                            x       y       z     vdW  Elec       q    Type
REMARK                         _______ _______ _______ _____ _____    ______ ____
ROOT
ATOM      1  C   UNL     1       2.961   7.159  18.295  0.00  0.00    +0.000 A 
ATOM      2  C   UNL     1       2.395   8.391  17.667  0.00  0.00    +0.000 A 
ATOM      3  N   UNL     1       1.622   9.263  18.241  0.00  0.00    +0.000 NA
ATOM      4  C   UNL     1       1.282   9.014  19.550  0.00  0.00    +0.000 A 
ATOM      5  C   UNL     1       0.506   9.700  20.474  0.00  0.00    +0.000 A 
ATOM      6  C   UNL     1       0.510   8.864  21.614  0.00  0.00    +0.000 A 
ATOM      7  N   UNL     1       1.254   7.768  21.467  0.00  0.00    +0.000 NA
ATOM      8  N   UNL     1       1.743   7.869  20.210  0.00  0.00    +0.000 N 
ATOM      9  C   UNL     1       2.601   6.981  19.576  0.00  0.00    +0.000 A 
ENDROOT
BRANCH   5  10
ATOM     10  C   UNL     1      -0.175  10.969  20.250  0.00  0.00    +0.000 A 
ATOM     11  C   UNL     1       0.259  12.127  20.914  0.00  0.00    +0.000 A 
ATOM     12  C   UNL     1      -0.404  13.345  20.734  0.00  0.00    +0.000 A 
ATOM     13  C   UNL     1      -1.503  13.424  19.883  0.00  0.00    +0.000 A 
ATOM     14  C   UNL     1      -1.928  12.290  19.197  0.00  0.00    +0.000 A 
ATOM     15  C   UNL     1      -1.263  11.074  19.373  0.00  0.00    +0.000 A 
ENDBRANCH   5  10
BRANCH   1  16
ATOM     16  C   UNL     1       3.905   6.290  17.519  0.00  0.00    +0.000 C 
BRANCH  16  22
ATOM     17  C   UNL     1       4.333   4.362  18.957  0.00  0.00    +0.000 C 
ATOM     18  C   UNL     1       4.078   2.863  19.199  0.00  0.00    +0.000 C 
ATOM     19  C   UNL     1       2.588   2.567  19.271  0.00  0.00    +0.000 C 
ATOM     20  C   UNL     1       1.905   3.077  18.014  0.00  0.00    +0.000 C 
ATOM     21  C   UNL     1       2.229   4.548  17.760  0.00  0.00    +0.000 C 
ATOM     22  N   UNL     1       3.685   4.829  17.686  0.00  0.00    +0.000 NA
BRANCH  17  24
ATOM     23  N   UNL     1       6.560   4.064  17.924  0.00  0.00    +0.000 N 
ATOM     24  C   UNL     1       5.851   4.625  18.946  0.00  0.00    +0.000 C 
ATOM     25  O   UNL     1       6.412   5.324  19.785  0.00  0.00    +0.000 OA
ATOM     26  H   UNL     1       7.541   4.299  17.855  0.00  0.00    +0.000 HD
ATOM     27  H   UNL     1       6.084   3.717  17.101  0.00  0.00    +0.000 HD
ENDBRANCH  17  24
ENDBRANCH  16  22
ENDBRANCH   1  16
TORSDOF 4
ENDMDL
MODEL 9
REMARK VINA RESULT:      -7.8      1.465      2.562
REMARK  Name = 
REMARK  4 active torsions:
REMARK  status: ('A' for Active; 'I' for Inactive)
REMARK    1  A    between atoms: C_2  and  C_4
REMARK    2  A    between atoms: N_9  and  C_10
REMARK    3  A    between atoms: C_10  and  C_11
REMARK    4  A    between atoms: C_15  and  C_16
REMARK                            x       y       z     vdW  Elec       q    Type
REMARK                         _______ _______ _______ _____ _____    ______ ____
ROOT
ATOM      1  C   UNL     1       3.515   6.185  18.727  0.00  0.00    +0.000 A 
ATOM      2  C   UNL     1       3.300   7.345  17.811  0.00  0.00    +0.000 A 
ATOM      3  N   UNL     1       2.531   8.369  18.031  0.00  0.00    +0.000 NA
ATOM      4  C   UNL     1       1.837   8.371  19.218  0.00  0.00    +0.000 A 
ATOM      5  C   UNL     1       0.952   9.270  19.796  0.00  0.00    +0.000 A 
ATOM      6  C   UNL     1       0.550   8.636  20.993  0.00  0.00    +0.000 A 
ATOM      7  N   UNL     1       1.152   7.465  21.202  0.00  0.00    +0.000 NA
ATOM      8  N   UNL     1       1.955   7.312  20.125  0.00  0.00    +0.000 N 
ATOM      9  C   UNL     1       2.819   6.254  19.873  0.00  0.00    +0.000 A 
ENDROOT
BRANCH   5  10
ATOM     10  C   UNL     1       0.528  10.544  19.228  0.00  0.00    +0.000 A 
ATOM     11  C   UNL     1       1.425  11.622  19.171  0.00  0.00    +0.000 A 
ATOM     12  C   UNL     1       1.025  12.860  18.659  0.00  0.00    +0.000 A 
ATOM     13  C   UNL     1      -0.274  13.034  18.188  0.00  0.00    +0.000 A 
ATOM     14  C   UNL     1      -1.167  11.967  18.211  0.00  0.00    +0.000 A 
ATOM     15  C   UNL     1      -0.765  10.729  18.720  0.00  0.00    +0.000 A 
ENDBRANCH   5  10
BRANCH   1  16
ATOM     16  C   UNL     1       4.499   5.115  18.361  0.00  0.00    +0.000 C 
BRANCH  16  22
ATOM     17  C   UNL     1       6.616   5.017  17.143  0.00  0.00    +0.000 C 
ATOM     18  C   UNL     1       7.313   5.132  15.776  0.00  0.00    +0.000 C 
ATOM     19  C   UNL     1       6.708   4.162  14.772  0.00  0.00    +0.000 C 
ATOM     20  C   UNL     1       5.209   4.390  14.681  0.00  0.00    +0.000 C 
ATOM     21  C   UNL     1       4.553   4.339  16.059  0.00  0.00    +0.000 C 
ATOM     22  N   UNL     1       5.144   5.291  17.032  0.00  0.00    +0.000 NA
BRANCH  17  24
ATOM     23  N   UNL     1       7.824   5.410  19.265  0.00  0.00    +0.000 N 
ATOM     24  C   UNL     1       7.294   5.975  18.142  0.00  0.00    +0.000 C 
ATOM     25  O   UNL     1       7.389   7.182  17.946  0.00  0.00    +0.000 OA
ATOM     26  H   UNL     1       8.347   6.013  19.886  0.00  0.00    +0.000 HD
ATOM     27  H   UNL     1       7.984   4.412  19.310  0.00  0.00    +0.000 HD
ENDBRANCH  17  24
ENDBRANCH  16  22
ENDBRANCH   1  16
TORSDOF 4
ENDMDL
