MODEL 1
REMARK VINA RESULT:      -5.9      0.000      0.000
REMARK  Name = 
REMARK  4 active torsions:
REMARK  status: ('A' for Active; 'I' for Inactive)
REMARK    1  A    between atoms: C_1  and  C_2
REMARK    2  A    between atoms: C_2  and  C_4
REMARK    3  A    between atoms: C_5  and  C_6
REMARK    4  A    between atoms: N_19  and  C_20
REMARK                            x       y       z     vdW  Elec       q    Type
REMARK                         _______ _______ _______ _____ _____    ______ ____
ROOT
ATOM      1  C   UNL     1      -2.481  12.293  22.008  0.00  0.00    +0.000 A 
ATOM      2  C   UNL     1      -3.139  12.398  20.823  0.00  0.00    +0.000 A 
ATOM      3  C   UNL     1      -2.546  11.759  19.605  0.00  0.00    +0.000 A 
ATOM      4  C   UNL     1      -3.237  11.793  18.375  0.00  0.00    +0.000 A 
ATOM      5  C   UNL     1      -2.759  11.108  17.261  0.00  0.00    +0.000 A 
ATOM      6 CL   UNL     1      -3.645  11.129  15.788  0.00  0.00    +0.000 Cl
ATOM      7  C   UNL     1      -1.579  10.385  17.344  0.00  0.00    +0.000 A 
ATOM      8  C   UNL     1      -0.866  10.370  18.544  0.00  0.00    +0.000 A 
ATOM      9  C   UNL     1      -1.329  11.061  19.679  0.00  0.00    +0.000 A 
ATOM     10  N   UNL     1      -0.610  11.071  20.900  0.00  0.00    +0.000 N 
ATOM     11  C   UNL     1       0.699  10.452  21.048  0.00  0.00    +0.000 C 
ATOM     12  C   UNL     1      -1.121  11.662  22.049  0.00  0.00    +0.000 A 
ATOM     13  O   UNL     1      -0.473  11.648  23.097  0.00  0.00    +0.000 OA
ENDROOT
BRANCH   2  14
ATOM     14  C   UNL     1      -4.473  13.056  20.767  0.00  0.00    +0.000 A 
ATOM     15  C   UNL     1      -5.654  12.313  20.927  0.00  0.00    +0.000 A 
ATOM     16  C   UNL     1      -6.898  12.952  20.864  0.00  0.00    +0.000 A 
ATOM     17  C   UNL     1      -6.969  14.330  20.646  0.00  0.00    +0.000 A 
ATOM     18  C   UNL     1      -5.800  15.074  20.503  0.00  0.00    +0.000 A 
ATOM     19  C   UNL     1      -4.557  14.442  20.572  0.00  0.00    +0.000 A 
ENDBRANCH   2  14
BRANCH   1  21
ATOM     20  C   UNL     1      -2.813  14.146  23.837  0.00  0.00    +0.000 C 
ATOM     21  C   UNL     1      -3.095  12.757  23.322  0.00  0.00    +0.000 C 
ATOM     22  O   UNL     1      -3.771  12.005  24.027  0.00  0.00    +0.000 OA
ENDBRANCH   1  21
TORSDOF 2
ENDMDL
MODEL 2
REMARK VINA RESULT:      -5.9      1.852      4.939
REMARK  Name = 
REMARK  4 active torsions:
REMARK  status: ('A' for Active; 'I' for Inactive)
REMARK    1  A    between atoms: C_1  and  C_2
REMARK    2  A    between atoms: C_2  and  C_4
REMARK    3  A    between atoms: C_5  and  C_6
REMARK    4  A    between atoms: N_19  and  C_20
REMARK                            x       y       z     vdW  Elec       q    Type
REMARK                         _______ _______ _______ _____ _____    ______ ____
ROOT
ATOM      1  C   UNL     1      -1.941  12.303  21.069  0.00  0.00    +0.000 A 
ATOM      2  C   UNL     1      -1.796  11.791  19.819  0.00  0.00    +0.000 A 
ATOM      3  C   UNL     1      -2.988  11.733  18.915  0.00  0.00    +0.000 A 
ATOM      4  C   UNL     1      -2.855  11.269  17.589  0.00  0.00    +0.000 A 
ATOM      5  C   UNL     1      -3.923  11.316  16.698  0.00  0.00    +0.000 A 
ATOM      6 CL   UNL     1      -3.720  10.786  15.076  0.00  0.00    +0.000 Cl
ATOM      7  C   UNL     1      -5.150  11.814  17.110  0.00  0.00    +0.000 A 
ATOM      8  C   UNL     1      -5.308  12.245  18.429  0.00  0.00    +0.000 A 
ATOM      9  C   UNL     1      -4.241  12.200  19.346  0.00  0.00    +0.000 A 
ATOM     10  N   UNL     1      -4.387  12.617  20.692  0.00  0.00    +0.000 N 
ATOM     11  C   UNL     1      -5.664  13.033  21.254  0.00  0.00    +0.000 C 
ATOM     12  C   UNL     1      -3.308  12.675  21.565  0.00  0.00    +0.000 A 
ATOM     13  O   UNL     1      -3.468  13.048  22.728  0.00  0.00    +0.000 OA
ENDROOT
BRANCH   2  14
ATOM     14  C   UNL     1      -0.448  11.385  19.332  0.00  0.00    +0.000 A 
ATOM     15  C   UNL     1       0.447  12.331  18.809  0.00  0.00    +0.000 A 
ATOM     16  C   UNL     1       1.707  11.926  18.352  0.00  0.00    +0.000 A 
ATOM     17  C   UNL     1       2.078  10.581  18.418  0.00  0.00    +0.000 A 
ATOM     18  C   UNL     1       1.199   9.641  18.951  0.00  0.00    +0.000 A 
ATOM     19  C   UNL     1      -0.055  10.041  19.415  0.00  0.00    +0.000 A 
ENDBRANCH   2  14
BRANCH   1  21
ATOM     20  C   UNL     1      -0.079  13.910  21.985  0.00  0.00    +0.000 C 
ATOM     21  C   UNL     1      -0.754  12.561  21.986  0.00  0.00    +0.000 C 
ATOM     22  O   UNL     1      -0.272  11.675  22.694  0.00  0.00    +0.000 OA
ENDBRANCH   1  21
TORSDOF 2
ENDMDL
MODEL 3
REMARK VINA RESULT:      -5.9      0.138      1.040
REMARK  Name = 
REMARK  4 active torsions:
REMARK  status: ('A' for Active; 'I' for Inactive)
REMARK    1  A    between atoms: C_1  and  C_2
REMARK    2  A    between atoms: C_2  and  C_4
REMARK    3  A    between atoms: C_5  and  C_6
REMARK    4  A    between atoms: N_19  and  C_20
REMARK                            x       y       z     vdW  Elec       q    Type
REMARK                         _______ _______ _______ _____ _____    ______ ____
ROOT
ATOM      1  C   UNL     1      -2.407  12.229  22.057  0.00  0.00    +0.000 A 
ATOM      2  C   UNL     1      -3.040  12.377  20.863  0.00  0.00    +0.000 A 
ATOM      3  C   UNL     1      -2.454  11.729  19.647  0.00  0.00    +0.000 A 
ATOM      4  C   UNL     1      -3.122  11.808  18.406  0.00  0.00    +0.000 A 
ATOM      5  C   UNL     1      -2.655  11.117  17.291  0.00  0.00    +0.000 A 
ATOM      6 CL   UNL     1      -3.514  11.195  15.804  0.00  0.00    +0.000 Cl
ATOM      7  C   UNL     1      -1.509  10.343  17.383  0.00  0.00    +0.000 A 
ATOM      8  C   UNL     1      -0.817  10.283  18.594  0.00  0.00    +0.000 A 
ATOM      9  C   UNL     1      -1.269  10.979  19.731  0.00  0.00    +0.000 A 
ATOM     10  N   UNL     1      -0.572  10.943  20.963  0.00  0.00    +0.000 N 
ATOM     11  C   UNL     1       0.708  10.266  21.125  0.00  0.00    +0.000 C 
ATOM     12  C   UNL     1      -1.076  11.540  22.112  0.00  0.00    +0.000 A 
ATOM     13  O   UNL     1      -0.447  11.485  23.170  0.00  0.00    +0.000 OA
ENDROOT
BRANCH   2  14
ATOM     14  C   UNL     1      -4.343  13.093  20.793  0.00  0.00    +0.000 A 
ATOM     15  C   UNL     1      -4.396  14.483  20.605  0.00  0.00    +0.000 A 
ATOM     16  C   UNL     1      -5.633  15.137  20.548  0.00  0.00    +0.000 A 
ATOM     17  C   UNL     1      -6.818  14.408  20.676  0.00  0.00    +0.000 A 
ATOM     18  C   UNL     1      -6.771  13.027  20.847  0.00  0.00    +0.000 A 
ATOM     19  C   UNL     1      -5.540  12.370  20.897  0.00  0.00    +0.000 A 
ENDBRANCH   2  14
BRANCH   1  21
ATOM     20  C   UNL     1      -2.700  14.076  23.899  0.00  0.00    +0.000 C 
ATOM     21  C   UNL     1      -3.022  12.702  23.367  0.00  0.00    +0.000 C 
ATOM     22  O   UNL     1      -3.734  11.968  24.055  0.00  0.00    +0.000 OA
ENDBRANCH   1  21
TORSDOF 2
ENDMDL
MODEL 4
REMARK VINA RESULT:      -5.9      1.864      4.845
REMARK  Name = 
REMARK  4 active torsions:
REMARK  status: ('A' for Active; 'I' for Inactive)
REMARK    1  A    between atoms: C_1  and  C_2
REMARK    2  A    between atoms: C_2  and  C_4
REMARK    3  A    between atoms: C_5  and  C_6
REMARK    4  A    between atoms: N_19  and  C_20
REMARK                            x       y       z     vdW  Elec       q    Type
REMARK                         _______ _______ _______ _____ _____    ______ ____
ROOT
ATOM      1  C   UNL     1      -1.898  12.298  21.043  0.00  0.00    +0.000 A 
ATOM      2  C   UNL     1      -1.751  11.790  19.791  0.00  0.00    +0.000 A 
ATOM      3  C   UNL     1      -2.946  11.723  18.891  0.00  0.00    +0.000 A 
ATOM      4  C   UNL     1      -2.812  11.264  17.563  0.00  0.00    +0.000 A 
ATOM      5  C   UNL     1      -3.884  11.302  16.676  0.00  0.00    +0.000 A 
ATOM      6 CL   UNL     1      -3.681  10.778  15.051  0.00  0.00    +0.000 Cl
ATOM      7  C   UNL     1      -5.114  11.788  17.093  0.00  0.00    +0.000 A 
ATOM      8  C   UNL     1      -5.272  12.213  18.414  0.00  0.00    +0.000 A 
ATOM      9  C   UNL     1      -4.202  12.176  19.327  0.00  0.00    +0.000 A 
ATOM     10  N   UNL     1      -4.347  12.589  20.675  0.00  0.00    +0.000 N 
ATOM     11  C   UNL     1      -5.627  12.990  21.242  0.00  0.00    +0.000 C 
ATOM     12  C   UNL     1      -3.266  12.655  21.544  0.00  0.00    +0.000 A 
ATOM     13  O   UNL     1      -3.426  13.023  22.709  0.00  0.00    +0.000 OA
ENDROOT
BRANCH   2  14
ATOM     14  C   UNL     1      -0.402  11.399  19.299  0.00  0.00    +0.000 A 
ATOM     15  C   UNL     1       0.013  10.057  19.314  0.00  0.00    +0.000 A 
ATOM     16  C   UNL     1       1.289   9.712  18.852  0.00  0.00    +0.000 A 
ATOM     17  C   UNL     1       2.151  10.699  18.371  0.00  0.00    +0.000 A 
ATOM     18  C   UNL     1       1.739  12.029  18.339  0.00  0.00    +0.000 A 
ATOM     19  C   UNL     1       0.465  12.377  18.792  0.00  0.00    +0.000 A 
ENDBRANCH   2  14
BRANCH   1  21
ATOM     20  C   UNL     1      -0.062  13.927  21.973  0.00  0.00    +0.000 C 
ATOM     21  C   UNL     1      -0.710  12.565  21.956  0.00  0.00    +0.000 C 
ATOM     22  O   UNL     1      -0.205  11.677  22.647  0.00  0.00    +0.000 OA
ENDBRANCH   1  21
TORSDOF 2
ENDMDL
MODEL 5
REMARK VINA RESULT:      -5.8      2.130      3.686
REMARK  Name = 
REMARK  4 active torsions:
REMARK  status: ('A' for Active; 'I' for Inactive)
REMARK    1  A    between atoms: C_1  and  C_2
REMARK    2  A    between atoms: C_2  and  C_4
REMARK    3  A    between atoms: C_5  and  C_6
REMARK    4  A    between atoms: N_19  and  C_20
REMARK                            x       y       z     vdW  Elec       q    Type
REMARK                         _______ _______ _______ _____ _____    ______ ____
ROOT
ATOM      1  C   UNL     1      -1.483  11.710  20.609  0.00  0.00    +0.000 A 
ATOM      2  C   UNL     1      -2.638  12.408  20.770  0.00  0.00    +0.000 A 
ATOM      3  C   UNL     1      -3.680  12.343  19.697  0.00  0.00    +0.000 A 
ATOM      4  C   UNL     1      -4.917  13.002  19.865  0.00  0.00    +0.000 A 
ATOM      5  C   UNL     1      -5.942  12.860  18.934  0.00  0.00    +0.000 A 
ATOM      6 CL   UNL     1      -7.454  13.638  19.186  0.00  0.00    +0.000 Cl
ATOM      7  C   UNL     1      -5.755  12.069  17.810  0.00  0.00    +0.000 A 
ATOM      8  C   UNL     1      -4.525  11.438  17.612  0.00  0.00    +0.000 A 
ATOM      9  C   UNL     1      -3.475  11.574  18.539  0.00  0.00    +0.000 A 
ATOM     10  N   UNL     1      -2.215  10.956  18.347  0.00  0.00    +0.000 N 
ATOM     11  C   UNL     1      -1.878  10.214  17.140  0.00  0.00    +0.000 C 
ATOM     12  C   UNL     1      -1.218  11.002  19.313  0.00  0.00    +0.000 A 
ATOM     13  O   UNL     1      -0.135  10.447  19.117  0.00  0.00    +0.000 OA
ENDROOT
BRANCH   2  14
ATOM     14  C   UNL     1      -2.893  13.145  22.038  0.00  0.00    +0.000 A 
ATOM     15  C   UNL     1      -3.537  12.522  23.119  0.00  0.00    +0.000 A 
ATOM     16  C   UNL     1      -3.772  13.236  24.301  0.00  0.00    +0.000 A 
ATOM     17  C   UNL     1      -3.363  14.567  24.409  0.00  0.00    +0.000 A 
ATOM     18  C   UNL     1      -2.708  15.184  23.346  0.00  0.00    +0.000 A 
ATOM     19  C   UNL     1      -2.466  14.474  22.169  0.00  0.00    +0.000 A 
ENDBRANCH   2  14
BRANCH   1  21
ATOM     20  C   UNL     1      -0.563  10.459  22.725  0.00  0.00    +0.000 C 
ATOM     21  C   UNL     1      -0.451  11.578  21.720  0.00  0.00    +0.000 C 
ATOM     22  O   UNL     1       0.452  12.403  21.873  0.00  0.00    +0.000 OA
ENDBRANCH   1  21
TORSDOF 2
ENDMDL
MODEL 6
REMARK VINA RESULT:      -5.8      2.140      3.839
REMARK  Name = 
REMARK  4 active torsions:
REMARK  status: ('A' for Active; 'I' for Inactive)
REMARK    1  A    between atoms: C_1  and  C_2
REMARK    2  A    between atoms: C_2  and  C_4
REMARK    3  A    between atoms: C_5  and  C_6
REMARK    4  A    between atoms: N_19  and  C_20
REMARK                            x       y       z     vdW  Elec       q    Type
REMARK                         _______ _______ _______ _____ _____    ______ ____
ROOT
ATOM      1  C   UNL     1      -1.442  11.705  20.581  0.00  0.00    +0.000 A 
ATOM      2  C   UNL     1      -2.597  12.400  20.753  0.00  0.00    +0.000 A 
ATOM      3  C   UNL     1      -3.650  12.329  19.691  0.00  0.00    +0.000 A 
ATOM      4  C   UNL     1      -4.887  12.986  19.870  0.00  0.00    +0.000 A 
ATOM      5  C   UNL     1      -5.921  12.838  18.950  0.00  0.00    +0.000 A 
ATOM      6 CL   UNL     1      -7.432  13.613  19.216  0.00  0.00    +0.000 Cl
ATOM      7  C   UNL     1      -5.744  12.043  17.827  0.00  0.00    +0.000 A 
ATOM      8  C   UNL     1      -4.514  11.416  17.618  0.00  0.00    +0.000 A 
ATOM      9  C   UNL     1      -3.455  11.558  18.533  0.00  0.00    +0.000 A 
ATOM     10  N   UNL     1      -2.196  10.942  18.330  0.00  0.00    +0.000 N 
ATOM     11  C   UNL     1      -1.869  10.197  17.122  0.00  0.00    +0.000 C 
ATOM     12  C   UNL     1      -1.189  10.993  19.285  0.00  0.00    +0.000 A 
ATOM     13  O   UNL     1      -0.106  10.441  19.079  0.00  0.00    +0.000 OA
ENDROOT
BRANCH   2  14
ATOM     14  C   UNL     1      -2.840  13.140  22.021  0.00  0.00    +0.000 A 
ATOM     15  C   UNL     1      -2.428  14.474  22.171  0.00  0.00    +0.000 A 
ATOM     16  C   UNL     1      -2.661  15.149  23.375  0.00  0.00    +0.000 A 
ATOM     17  C   UNL     1      -3.308  14.500  24.429  0.00  0.00    +0.000 A 
ATOM     18  C   UNL     1      -3.734  13.182  24.280  0.00  0.00    +0.000 A 
ATOM     19  C   UNL     1      -3.509  12.507  23.079  0.00  0.00    +0.000 A 
ENDBRANCH   2  14
BRANCH   1  21
ATOM     20  C   UNL     1      -0.512  10.479  22.708  0.00  0.00    +0.000 C 
ATOM     21  C   UNL     1      -0.397  11.579  21.682  0.00  0.00    +0.000 C 
ATOM     22  O   UNL     1       0.518  12.395  21.809  0.00  0.00    +0.000 OA
ENDBRANCH   1  21
TORSDOF 2
ENDMDL
MODEL 7
REMARK VINA RESULT:      -5.8     10.631     13.401
REMARK  Name = 
REMARK  4 active torsions:
REMARK  status: ('A' for Active; 'I' for Inactive)
REMARK    1  A    between atoms: C_1  and  C_2
REMARK    2  A    between atoms: C_2  and  C_4
REMARK    3  A    between atoms: C_5  and  C_6
REMARK    4  A    between atoms: N_19  and  C_20
REMARK                            x       y       z     vdW  Elec       q    Type
REMARK                         _______ _______ _______ _____ _____    ______ ____
ROOT
ATOM      1  C   UNL     1      10.375  14.746  18.157  0.00  0.00    +0.000 A 
ATOM      2  C   UNL     1       9.236  14.200  18.659  0.00  0.00    +0.000 A 
ATOM      3  C   UNL     1       8.038  15.077  18.856  0.00  0.00    +0.000 A 
ATOM      4  C   UNL     1       6.820  14.528  19.312  0.00  0.00    +0.000 A 
ATOM      5  C   UNL     1       5.666  15.301  19.392  0.00  0.00    +0.000 A 
ATOM      6 CL   UNL     1       4.186  14.595  19.908  0.00  0.00    +0.000 Cl
ATOM      7  C   UNL     1       5.700  16.640  19.031  0.00  0.00    +0.000 A 
ATOM      8  C   UNL     1       6.905  17.207  18.612  0.00  0.00    +0.000 A 
ATOM      9  C   UNL     1       8.084  16.443  18.530  0.00  0.00    +0.000 A 
ATOM     10  N   UNL     1       9.319  17.005  18.122  0.00  0.00    +0.000 N 
ATOM     11  C   UNL     1       9.486  18.425  17.849  0.00  0.00    +0.000 C 
ATOM     12  C   UNL     1      10.455  16.228  17.938  0.00  0.00    +0.000 A 
ATOM     13  O   UNL     1      11.513  16.747  17.576  0.00  0.00    +0.000 OA
ENDROOT
BRANCH   2  14
ATOM     14  C   UNL     1       9.160  12.736  18.915  0.00  0.00    +0.000 A 
ATOM     15  C   UNL     1       9.411  12.211  20.193  0.00  0.00    +0.000 A 
ATOM     16  C   UNL     1       9.340  10.830  20.410  0.00  0.00    +0.000 A 
ATOM     17  C   UNL     1       9.016   9.970  19.358  0.00  0.00    +0.000 A 
ATOM     18  C   UNL     1       8.751  10.487  18.092  0.00  0.00    +0.000 A 
ATOM     19  C   UNL     1       8.813  11.864  17.873  0.00  0.00    +0.000 A 
ENDBRANCH   2  14
BRANCH   1  21
ATOM     20  C   UNL     1      11.825  13.575  16.309  0.00  0.00    +0.000 C 
ATOM     21  C   UNL     1      11.576  13.898  17.761  0.00  0.00    +0.000 C 
ATOM     22  O   UNL     1      12.329  13.402  18.601  0.00  0.00    +0.000 OA
ENDBRANCH   1  21
TORSDOF 2
ENDMDL
MODEL 8
REMARK VINA RESULT:      -5.7      3.307      6.264
REMARK  Name = 
REMARK  4 active torsions:
REMARK  status: ('A' for Active; 'I' for Inactive)
REMARK    1  A    between atoms: C_1  and  C_2
REMARK    2  A    between atoms: C_2  and  C_4
REMARK    3  A    between atoms: C_5  and  C_6
REMARK    4  A    between atoms: N_19  and  C_20
REMARK                            x       y       z     vdW  Elec       q    Type
REMARK                         _______ _______ _______ _____ _____    ______ ____
ROOT
ATOM      1  C   UNL     1      -3.695  11.449  18.391  0.00  0.00    +0.000 A 
ATOM      2  C   UNL     1      -2.891  12.035  19.316  0.00  0.00    +0.000 A 
ATOM      3  C   UNL     1      -3.515  12.705  20.500  0.00  0.00    +0.000 A 
ATOM      4  C   UNL     1      -2.705  13.264  21.512  0.00  0.00    +0.000 A 
ATOM      5  C   UNL     1      -3.263  13.788  22.675  0.00  0.00    +0.000 A 
ATOM      6 CL   UNL     1      -2.250  14.421  23.911  0.00  0.00    +0.000 Cl
ATOM      7  C   UNL     1      -4.639  13.778  22.851  0.00  0.00    +0.000 A 
ATOM      8  C   UNL     1      -5.456  13.261  21.844  0.00  0.00    +0.000 A 
ATOM      9  C   UNL     1      -4.912  12.732  20.659  0.00  0.00    +0.000 A 
ATOM     10  N   UNL     1      -5.725  12.219  19.619  0.00  0.00    +0.000 N 
ATOM     11  C   UNL     1      -7.179  12.283  19.653  0.00  0.00    +0.000 C 
ATOM     12  C   UNL     1      -5.184  11.599  18.500  0.00  0.00    +0.000 A 
ATOM     13  O   UNL     1      -5.921  11.157  17.616  0.00  0.00    +0.000 OA
ENDROOT
BRANCH   2  14
ATOM     14  C   UNL     1      -1.411  11.923  19.195  0.00  0.00    +0.000 A 
ATOM     15  C   UNL     1      -0.730  10.792  19.672  0.00  0.00    +0.000 A 
ATOM     16  C   UNL     1       0.663  10.711  19.553  0.00  0.00    +0.000 A 
ATOM     17  C   UNL     1       1.378  11.752  18.956  0.00  0.00    +0.000 A 
ATOM     18  C   UNL     1       0.705  12.868  18.467  0.00  0.00    +0.000 A 
ATOM     19  C   UNL     1      -0.684  12.951  18.577  0.00  0.00    +0.000 A 
ENDBRANCH   2  14
BRANCH   1  21
ATOM     20  C   UNL     1      -2.796  11.238  15.934  0.00  0.00    +0.000 C 
ATOM     21  C   UNL     1      -3.144  10.599  17.255  0.00  0.00    +0.000 C 
ATOM     22  O   UNL     1      -3.029   9.375  17.353  0.00  0.00    +0.000 OA
ENDBRANCH   1  21
TORSDOF 2
ENDMDL
MODEL 9
REMARK VINA RESULT:      -5.7      3.303      6.335
REMARK  Name = 
REMARK  4 active torsions:
REMARK  status: ('A' for Active; 'I' for Inactive)
REMARK    1  A    between atoms: C_1  and  C_2
REMARK    2  A    between atoms: C_2  and  C_4
REMARK    3  A    between atoms: C_5  and  C_6
REMARK    4  A    between atoms: N_19  and  C_20
REMARK                            x       y       z     vdW  Elec       q    Type
REMARK                         _______ _______ _______ _____ _____    ______ ____
ROOT
ATOM      1  C   UNL     1      -3.703  11.451  18.399  0.00  0.00    +0.000 A 
ATOM      2  C   UNL     1      -2.897  12.041  19.322  0.00  0.00    +0.000 A 
ATOM      3  C   UNL     1      -3.521  12.710  20.507  0.00  0.00    +0.000 A 
ATOM      4  C   UNL     1      -2.710  13.272  21.516  0.00  0.00    +0.000 A 
ATOM      5  C   UNL     1      -3.266  13.795  22.680  0.00  0.00    +0.000 A 
ATOM      6 CL   UNL     1      -2.251  14.433  23.913  0.00  0.00    +0.000 Cl
ATOM      7  C   UNL     1      -4.641  13.780  22.861  0.00  0.00    +0.000 A 
ATOM      8  C   UNL     1      -5.459  13.259  21.856  0.00  0.00    +0.000 A 
ATOM      9  C   UNL     1      -4.917  12.732  20.670  0.00  0.00    +0.000 A 
ATOM     10  N   UNL     1      -5.731  12.214  19.634  0.00  0.00    +0.000 N 
ATOM     11  C   UNL     1      -7.186  12.272  19.672  0.00  0.00    +0.000 C 
ATOM     12  C   UNL     1      -5.192  11.595  18.513  0.00  0.00    +0.000 A 
ATOM     13  O   UNL     1      -5.929  11.150  17.632  0.00  0.00    +0.000 OA
ENDROOT
BRANCH   2  14
ATOM     14  C   UNL     1      -1.418  11.934  19.196  0.00  0.00    +0.000 A 
ATOM     15  C   UNL     1      -0.668  12.955  18.589  0.00  0.00    +0.000 A 
ATOM     16  C   UNL     1       0.722  12.831  18.475  0.00  0.00    +0.000 A 
ATOM     17  C   UNL     1       1.368  11.696  18.969  0.00  0.00    +0.000 A 
ATOM     18  C   UNL     1       0.631  10.688  19.587  0.00  0.00    +0.000 A 
ATOM     19  C   UNL     1      -0.755  10.810  19.708  0.00  0.00    +0.000 A 
ENDBRANCH   2  14
BRANCH   1  21
ATOM     20  C   UNL     1      -2.811  11.241  15.940  0.00  0.00    +0.000 C 
ATOM     21  C   UNL     1      -3.151  10.602  17.263  0.00  0.00    +0.000 C 
ATOM     22  O   UNL     1      -3.031   9.379  17.361  0.00  0.00    +0.000 OA
ENDBRANCH   1  21
TORSDOF 2
ENDMDL
