MODEL 1
REMARK VINA RESULT:      -9.4      0.000      0.000
REMARK  Name = 
REMARK  8 active torsions:
REMARK  status: ('A' for Active; 'I' for Inactive)
REMARK    1  A    between atoms: C_5  and  N_6
REMARK    2  A    between atoms: N_6  and  C_7
REMARK    3  A    between atoms: C_7  and  C_8
REMARK    4  A    between atoms: C_8  and  C_9
REMARK    5  A    between atoms: C_9  and  C_10
REMARK    6  A    between atoms: C_10  and  C_11
REMARK    7  A    between atoms: C_11  and  N_12
REMARK    8  A    between atoms: N_12  and  C_13
REMARK                            x       y       z     vdW  Elec       q    Type
REMARK                         _______ _______ _______ _____ _____    ______ ____
ROOT
ATOM      1  C   UNL     1       1.361   9.048  17.650  0.00  0.00    +0.000 C 
ENDROOT
BRANCH   1   2
ATOM      2  C   UNL     1       1.958  10.431  17.982  0.00  0.00    +0.000 C 
BRANCH   2   3
ATOM      3  C   UNL     1       1.268  11.012  19.208  0.00  0.00    +0.000 C 
BRANCH   3   4
ATOM      4  N   UNL     1       0.042  10.339  19.575  0.00  0.00    +0.000 N 
ATOM      5  H   UNL     1       0.182   9.695  20.350  0.00  0.00    +0.000 HD
BRANCH   4  10
ATOM      6  C   UNL     1      -3.958  10.757  16.428  0.00  0.00    +0.000 A 
ATOM      7  C   UNL     1      -2.810   9.986  16.389  0.00  0.00    +0.000 A 
ATOM      8  C   UNL     1      -1.890  10.067  17.436  0.00  0.00    +0.000 A 
ATOM      9  C   UNL     1      -2.097  10.905  18.569  0.00  0.00    +0.000 A 
ATOM     10  C   UNL     1      -1.203  11.018  19.694  0.00  0.00    +0.000 A 
ATOM     11  C   UNL     1      -1.575  11.885  20.769  0.00  0.00    +0.000 A 
ATOM     12  C   UNL     1      -2.765  12.617  20.632  0.00  0.00    +0.000 A 
ATOM     13  N   UNL     1      -3.593  12.509  19.571  0.00  0.00    +0.000 NA
ATOM     14  C   UNL     1      -3.276  11.677  18.584  0.00  0.00    +0.000 A 
ATOM     15  C   UNL     1      -4.173  11.598  17.518  0.00  0.00    +0.000 A 
ATOM     16  C   UNL     1      -3.281  13.561  21.693  0.00  0.00    +0.000 C 
ATOM     17  C   UNL     1      -2.290  13.907  22.792  0.00  0.00    +0.000 C 
ATOM     18  C   UNL     1      -1.561  12.656  23.220  0.00  0.00    +0.000 C 
ATOM     19  C   UNL     1      -0.781  12.092  22.037  0.00  0.00    +0.000 C 
ENDBRANCH   4  10
ENDBRANCH   3   4
ENDBRANCH   2   3
ENDBRANCH   1   2
BRANCH   1  20
ATOM     20  C   UNL     1       2.285   7.848  17.934  0.00  0.00    +0.000 C 
BRANCH  20  21
ATOM     21  C   UNL     1       2.460   7.565  19.423  0.00  0.00    +0.000 C 
BRANCH  21  22
ATOM     22  N   UNL     1       3.523   6.595  19.633  0.00  0.00    +0.000 N 
ATOM     23  H   UNL     1       3.663   6.365  20.615  0.00  0.00    +0.000 HD
BRANCH  22  24
ATOM     24  C   UNL     1       3.611   5.426  18.843  0.00  0.00    +0.000 A 
ATOM     25  C   UNL     1       2.726   4.329  18.950  0.00  0.00    +0.000 A 
ATOM     26  C   UNL     1       2.918   3.250  18.077  0.00  0.00    +0.000 A 
ATOM     27  N   UNL     1       3.948   3.172  17.203  0.00  0.00    +0.000 NA
ATOM     28  C   UNL     1       4.838   4.166  17.158  0.00  0.00    +0.000 A 
ATOM     29  C   UNL     1       5.904   4.033  16.275  0.00  0.00    +0.000 A 
ATOM     30  C   UNL     1       6.892   5.008  16.157  0.00  0.00    +0.000 A 
ATOM     31  C   UNL     1       6.818   6.149  16.940  0.00  0.00    +0.000 A 
ATOM     32  C   UNL     1       5.749   6.305  17.829  0.00  0.00    +0.000 A 
ATOM     33  C   UNL     1       4.736   5.318  17.961  0.00  0.00    +0.000 A 
ATOM     34  C   UNL     1       2.027   2.034  18.085  0.00  0.00    +0.000 C 
ATOM     35  C   UNL     1       0.734   2.200  18.873  0.00  0.00    +0.000 C 
ATOM     36  C   UNL     1       1.024   2.884  20.195  0.00  0.00    +0.000 C 
ATOM     37  C   UNL     1       1.579   4.277  19.931  0.00  0.00    +0.000 C 
ENDBRANCH  22  24
ENDBRANCH  21  22
ENDBRANCH  20  21
ENDBRANCH   1  20
TORSDOF 8
ENDMDL
MODEL 2
REMARK VINA RESULT:      -9.4      1.140      3.323
REMARK  Name = 
REMARK  8 active torsions:
REMARK  status: ('A' for Active; 'I' for Inactive)
REMARK    1  A    between atoms: C_5  and  N_6
REMARK    2  A    between atoms: N_6  and  C_7
REMARK    3  A    between atoms: C_7  and  C_8
REMARK    4  A    between atoms: C_8  and  C_9
REMARK    5  A    between atoms: C_9  and  C_10
REMARK    6  A    between atoms: C_10  and  C_11
REMARK    7  A    between atoms: C_11  and  N_12
REMARK    8  A    between atoms: N_12  and  C_13
REMARK                            x       y       z     vdW  Elec       q    Type
REMARK                         _______ _______ _______ _____ _____    ______ ____
ROOT
ATOM      1  C   UNL     1       1.231  10.184  18.572  0.00  0.00    +0.000 C 
ENDROOT
BRANCH   1   2
ATOM      2  C   UNL     1       0.670   9.632  19.899  0.00  0.00    +0.000 C 
BRANCH   2   3
ATOM      3  C   UNL     1      -0.210  10.680  20.565  0.00  0.00    +0.000 C 
BRANCH   3   4
ATOM      4  N   UNL     1      -0.789  11.638  19.652  0.00  0.00    +0.000 N 
ATOM      5  H   UNL     1      -0.311  11.641  18.754  0.00  0.00    +0.000 HD
BRANCH   4  10
ATOM      6  C   UNL     1      -3.903  10.648  15.727  0.00  0.00    +0.000 A 
ATOM      7  C   UNL     1      -2.568  10.372  15.957  0.00  0.00    +0.000 A 
ATOM      8  C   UNL     1      -1.985  10.748  17.169  0.00  0.00    +0.000 A 
ATOM      9  C   UNL     1      -2.725  11.395  18.201  0.00  0.00    +0.000 A 
ATOM     10  C   UNL     1      -2.194  11.789  19.483  0.00  0.00    +0.000 A 
ATOM     11  C   UNL     1      -3.081  12.402  20.422  0.00  0.00    +0.000 A 
ATOM     12  C   UNL     1      -4.404  12.633  20.013  0.00  0.00    +0.000 A 
ATOM     13  N   UNL     1      -4.889  12.266  18.808  0.00  0.00    +0.000 NA
ATOM     14  C   UNL     1      -4.084  11.661  17.941  0.00  0.00    +0.000 A 
ATOM     15  C   UNL     1      -4.643  11.295  16.716  0.00  0.00    +0.000 A 
ATOM     16  C   UNL     1      -5.447  13.263  20.906  0.00  0.00    +0.000 C 
ATOM     17  C   UNL     1      -4.912  13.910  22.173  0.00  0.00    +0.000 C 
ATOM     18  C   UNL     1      -3.868  13.010  22.791  0.00  0.00    +0.000 C 
ATOM     19  C   UNL     1      -2.706  12.838  21.819  0.00  0.00    +0.000 C 
ENDBRANCH   4  10
ENDBRANCH   3   4
ENDBRANCH   2   3
ENDBRANCH   1   2
BRANCH   1  20
ATOM     20  C   UNL     1       2.278   9.292  17.880  0.00  0.00    +0.000 C 
BRANCH  20  21
ATOM     21  C   UNL     1       1.935   7.807  17.938  0.00  0.00    +0.000 C 
BRANCH  21  22
ATOM     22  N   UNL     1       2.935   7.085  18.709  0.00  0.00    +0.000 N 
ATOM     23  H   UNL     1       2.778   7.139  19.714  0.00  0.00    +0.000 HD
BRANCH  22  24
ATOM     24  C   UNL     1       3.330   5.776  18.349  0.00  0.00    +0.000 A 
ATOM     25  C   UNL     1       4.235   5.481  17.303  0.00  0.00    +0.000 A 
ATOM     26  C   UNL     1       4.557   4.136  17.082  0.00  0.00    +0.000 A 
ATOM     27  N   UNL     1       3.987   3.111  17.757  0.00  0.00    +0.000 NA
ATOM     28  C   UNL     1       3.067   3.379  18.687  0.00  0.00    +0.000 A 
ATOM     29  C   UNL     1       2.475   2.300  19.334  0.00  0.00    +0.000 A 
ATOM     30  C   UNL     1       1.498   2.468  20.313  0.00  0.00    +0.000 A 
ATOM     31  C   UNL     1       1.098   3.749  20.659  0.00  0.00    +0.000 A 
ATOM     32  C   UNL     1       1.686   4.849  20.025  0.00  0.00    +0.000 A 
ATOM     33  C   UNL     1       2.681   4.690  19.024  0.00  0.00    +0.000 A 
ATOM     34  C   UNL     1       5.522   3.701  16.009  0.00  0.00    +0.000 C 
ATOM     35  C   UNL     1       6.353   4.827  15.408  0.00  0.00    +0.000 C 
ATOM     36  C   UNL     1       5.466   6.026  15.130  0.00  0.00    +0.000 C 
ATOM     37  C   UNL     1       4.884   6.538  16.441  0.00  0.00    +0.000 C 
ENDBRANCH  22  24
ENDBRANCH  21  22
ENDBRANCH  20  21
ENDBRANCH   1  20
TORSDOF 8
ENDMDL
MODEL 3
REMARK VINA RESULT:      -9.1      1.385      1.732
REMARK  Name = 
REMARK  8 active torsions:
REMARK  status: ('A' for Active; 'I' for Inactive)
REMARK    1  A    between atoms: C_5  and  N_6
REMARK    2  A    between atoms: N_6  and  C_7
REMARK    3  A    between atoms: C_7  and  C_8
REMARK    4  A    between atoms: C_8  and  C_9
REMARK    5  A    between atoms: C_9  and  C_10
REMARK    6  A    between atoms: C_10  and  C_11
REMARK    7  A    between atoms: C_11  and  N_12
REMARK    8  A    between atoms: N_12  and  C_13
REMARK                            x       y       z     vdW  Elec       q    Type
REMARK                         _______ _______ _______ _____ _____    ______ ____
ROOT
ATOM      1  C   UNL     1       0.837  10.158  18.619  0.00  0.00    +0.000 C 
ENDROOT
BRANCH   1   2
ATOM      2  C   UNL     1       0.503   9.834  20.089  0.00  0.00    +0.000 C 
BRANCH   2   3
ATOM      3  C   UNL     1      -0.325  10.960  20.693  0.00  0.00    +0.000 C 
BRANCH   3   4
ATOM      4  N   UNL     1      -0.931  11.839  19.720  0.00  0.00    +0.000 N 
ATOM      5  H   UNL     1      -0.445  11.808  18.827  0.00  0.00    +0.000 HD
BRANCH   4  10
ATOM      6  C   UNL     1      -3.940  10.717  15.748  0.00  0.00    +0.000 A 
ATOM      7  C   UNL     1      -2.596  10.503  15.997  0.00  0.00    +0.000 A 
ATOM      8  C   UNL     1      -2.049  10.903  17.218  0.00  0.00    +0.000 A 
ATOM      9  C   UNL     1      -2.833  11.511  18.241  0.00  0.00    +0.000 A 
ATOM     10  C   UNL     1      -2.339  11.925  19.531  0.00  0.00    +0.000 A 
ATOM     11  C   UNL     1      -3.267  12.493  20.459  0.00  0.00    +0.000 A 
ATOM     12  C   UNL     1      -4.593  12.663  20.031  0.00  0.00    +0.000 A 
ATOM     13  N   UNL     1      -5.044  12.278  18.819  0.00  0.00    +0.000 NA
ATOM     14  C   UNL     1      -4.199  11.714  17.961  0.00  0.00    +0.000 A 
ATOM     15  C   UNL     1      -4.723  11.327  16.728  0.00  0.00    +0.000 A 
ATOM     16  C   UNL     1      -5.677  13.242  20.911  0.00  0.00    +0.000 C 
ATOM     17  C   UNL     1      -5.192  13.908  22.187  0.00  0.00    +0.000 C 
ATOM     18  C   UNL     1      -4.116  13.057  22.818  0.00  0.00    +0.000 C 
ATOM     19  C   UNL     1      -2.933  12.941  21.863  0.00  0.00    +0.000 C 
ENDBRANCH   4  10
ENDBRANCH   3   4
ENDBRANCH   2   3
ENDBRANCH   1   2
BRANCH   1  20
ATOM     20  C   UNL     1       1.878   9.233  17.961  0.00  0.00    +0.000 C 
BRANCH  20  21
ATOM     21  C   UNL     1       2.225   8.018  18.816  0.00  0.00    +0.000 C 
BRANCH  21  22
ATOM     22  N   UNL     1       2.497   6.865  17.971  0.00  0.00    +0.000 N 
ATOM     23  H   UNL     1       2.752   7.122  17.019  0.00  0.00    +0.000 HD
BRANCH  22  24
ATOM     24  C   UNL     1       3.315   5.805  18.425  0.00  0.00    +0.000 A 
ATOM     25  C   UNL     1       2.855   4.736  19.227  0.00  0.00    +0.000 A 
ATOM     26  C   UNL     1       3.775   3.739  19.573  0.00  0.00    +0.000 A 
ATOM     27  N   UNL     1       5.088   3.791  19.251  0.00  0.00    +0.000 NA
ATOM     28  C   UNL     1       5.548   4.842  18.568  0.00  0.00    +0.000 A 
ATOM     29  C   UNL     1       6.909   4.879  18.287  0.00  0.00    +0.000 A 
ATOM     30  C   UNL     1       7.491   5.935  17.588  0.00  0.00    +0.000 A 
ATOM     31  C   UNL     1       6.695   6.984  17.155  0.00  0.00    +0.000 A 
ATOM     32  C   UNL     1       5.322   6.960  17.420  0.00  0.00    +0.000 A 
ATOM     33  C   UNL     1       4.717   5.892  18.133  0.00  0.00    +0.000 A 
ATOM     34  C   UNL     1       3.396   2.543  20.409  0.00  0.00    +0.000 C 
ATOM     35  C   UNL     1       1.897   2.333  20.574  0.00  0.00    +0.000 C 
ATOM     36  C   UNL     1       1.224   3.660  20.876  0.00  0.00    +0.000 C 
ATOM     37  C   UNL     1       1.426   4.606  19.700  0.00  0.00    +0.000 C 
ENDBRANCH  22  24
ENDBRANCH  21  22
ENDBRANCH  20  21
ENDBRANCH   1  20
TORSDOF 8
ENDMDL
MODEL 4
REMARK VINA RESULT:      -9.1      1.190      9.795
REMARK  Name = 
REMARK  8 active torsions:
REMARK  status: ('A' for Active; 'I' for Inactive)
REMARK    1  A    between atoms: C_5  and  N_6
REMARK    2  A    between atoms: N_6  and  C_7
REMARK    3  A    between atoms: C_7  and  C_8
REMARK    4  A    between atoms: C_8  and  C_9
REMARK    5  A    between atoms: C_9  and  C_10
REMARK    6  A    between atoms: C_10  and  C_11
REMARK    7  A    between atoms: C_11  and  N_12
REMARK    8  A    between atoms: N_12  and  C_13
REMARK                            x       y       z     vdW  Elec       q    Type
REMARK                         _______ _______ _______ _____ _____    ______ ____
ROOT
ATOM      1  C   UNL     1       1.572  10.151  18.925  0.00  0.00    +0.000 C 
ENDROOT
BRANCH   1   2
ATOM      2  C   UNL     1       1.697   9.263  17.670  0.00  0.00    +0.000 C 
BRANCH   2   3
ATOM      3  C   UNL     1       1.810   7.801  18.080  0.00  0.00    +0.000 C 
BRANCH   3   4
ATOM      4  N   UNL     1       3.166   7.310  18.166  0.00  0.00    +0.000 N 
ATOM      5  H   UNL     1       3.704   7.809  18.870  0.00  0.00    +0.000 HD
BRANCH   4  10
ATOM      6  C   UNL     1       6.054   4.443  15.080  0.00  0.00    +0.000 A 
ATOM      7  C   UNL     1       5.854   5.808  15.177  0.00  0.00    +0.000 A 
ATOM      8  C   UNL     1       5.008   6.313  16.168  0.00  0.00    +0.000 A 
ATOM      9  C   UNL     1       4.350   5.469  17.108  0.00  0.00    +0.000 A 
ATOM     10  C   UNL     1       3.484   5.923  18.168  0.00  0.00    +0.000 A 
ATOM     11  C   UNL     1       2.924   4.945  19.049  0.00  0.00    +0.000 A 
ATOM     12  C   UNL     1       3.210   3.596  18.789  0.00  0.00    +0.000 A 
ATOM     13  N   UNL     1       4.017   3.180  17.790  0.00  0.00    +0.000 NA
ATOM     14  C   UNL     1       4.574   4.083  16.988  0.00  0.00    +0.000 A 
ATOM     15  C   UNL     1       5.406   3.597  15.979  0.00  0.00    +0.000 A 
ATOM     16  C   UNL     1       2.693   2.462  19.643  0.00  0.00    +0.000 C 
ATOM     17  C   UNL     1       1.598   2.838  20.629  0.00  0.00    +0.000 C 
ATOM     18  C   UNL     1       1.949   4.150  21.289  0.00  0.00    +0.000 C 
ATOM     19  C   UNL     1       2.034   5.245  20.232  0.00  0.00    +0.000 C 
ENDBRANCH   4  10
ENDBRANCH   3   4
ENDBRANCH   2   3
ENDBRANCH   1   2
BRANCH   1  20
ATOM     20  C   UNL     1       0.938   9.470  20.152  0.00  0.00    +0.000 C 
BRANCH  20  21
ATOM     21  C   UNL     1      -0.488   9.935  20.427  0.00  0.00    +0.000 C 
BRANCH  21  22
ATOM     22  N   UNL     1      -0.769  11.163  19.699  0.00  0.00    +0.000 N 
ATOM     23  H   UNL     1      -0.205  11.264  18.858  0.00  0.00    +0.000 HD
BRANCH  22  24
ATOM     24  C   UNL     1      -2.098  11.574  19.445  0.00  0.00    +0.000 A 
ATOM     25  C   UNL     1      -2.924  12.217  20.396  0.00  0.00    +0.000 A 
ATOM     26  C   UNL     1      -4.210  12.594  19.990  0.00  0.00    +0.000 A 
ATOM     27  N   UNL     1      -4.725  12.303  18.773  0.00  0.00    +0.000 NA
ATOM     28  C   UNL     1      -3.981  11.620  17.901  0.00  0.00    +0.000 A 
ATOM     29  C   UNL     1      -4.555  11.306  16.675  0.00  0.00    +0.000 A 
ATOM     30  C   UNL     1      -3.869  10.588  15.697  0.00  0.00    +0.000 A 
ATOM     31  C   UNL     1      -2.571  10.171  15.948  0.00  0.00    +0.000 A 
ATOM     32  C   UNL     1      -1.972  10.484  17.172  0.00  0.00    +0.000 A 
ATOM     33  C   UNL     1      -2.662  11.212  18.178  0.00  0.00    +0.000 A 
ATOM     34  C   UNL     1      -5.174  13.301  20.910  0.00  0.00    +0.000 C 
ATOM     35  C   UNL     1      -4.546  13.854  22.183  0.00  0.00    +0.000 C 
ATOM     36  C   UNL     1      -3.611  12.821  22.783  0.00  0.00    +0.000 C 
ATOM     37  C   UNL     1      -2.480  12.536  21.804  0.00  0.00    +0.000 C 
ENDBRANCH  22  24
ENDBRANCH  21  22
ENDBRANCH  20  21
ENDBRANCH   1  20
TORSDOF 8
ENDMDL
MODEL 5
REMARK VINA RESULT:      -9.1      1.097     10.032
REMARK  Name = 
REMARK  8 active torsions:
REMARK  status: ('A' for Active; 'I' for Inactive)
REMARK    1  A    between atoms: C_5  and  N_6
REMARK    2  A    between atoms: N_6  and  C_7
REMARK    3  A    between atoms: C_7  and  C_8
REMARK    4  A    between atoms: C_8  and  C_9
REMARK    5  A    between atoms: C_9  and  C_10
REMARK    6  A    between atoms: C_10  and  C_11
REMARK    7  A    between atoms: C_11  and  N_12
REMARK    8  A    between atoms: N_12  and  C_13
REMARK                            x       y       z     vdW  Elec       q    Type
REMARK                         _______ _______ _______ _____ _____    ______ ____
ROOT
ATOM      1  C   UNL     1       1.099   9.468  18.894  0.00  0.00    +0.000 C 
ENDROOT
BRANCH   1   2
ATOM      2  C   UNL     1       1.462   8.496  17.753  0.00  0.00    +0.000 C 
BRANCH   2   3
ATOM      3  C   UNL     1       2.967   8.267  17.728  0.00  0.00    +0.000 C 
BRANCH   3   4
ATOM      4  N   UNL     1       3.417   7.179  18.566  0.00  0.00    +0.000 N 
ATOM      5  H   UNL     1       3.000   7.217  19.492  0.00  0.00    +0.000 HD
BRANCH   4  10
ATOM      6  C   UNL     1       1.168   2.856  20.096  0.00  0.00    +0.000 A 
ATOM      7  C   UNL     1       0.981   4.183  20.439  0.00  0.00    +0.000 A 
ATOM      8  C   UNL     1       1.744   5.171  19.813  0.00  0.00    +0.000 A 
ATOM      9  C   UNL     1       2.704   4.867  18.805  0.00  0.00    +0.000 A 
ATOM     10  C   UNL     1       3.507   5.836  18.101  0.00  0.00    +0.000 A 
ATOM     11  C   UNL     1       4.405   5.366  17.093  0.00  0.00    +0.000 A 
ATOM     12  C   UNL     1       4.488   3.979  16.891  0.00  0.00    +0.000 A 
ATOM     13  N   UNL     1       3.737   3.079  17.560  0.00  0.00    +0.000 NA
ATOM     14  C   UNL     1       2.871   3.507  18.473  0.00  0.00    +0.000 A 
ATOM     15  C   UNL     1       2.114   2.533  19.125  0.00  0.00    +0.000 A 
ATOM     16  C   UNL     1       5.388   3.348  15.855  0.00  0.00    +0.000 C 
ATOM     17  C   UNL     1       6.423   4.275  15.241  0.00  0.00    +0.000 C 
ATOM     18  C   UNL     1       5.783   5.609  14.938  0.00  0.00    +0.000 C 
ATOM     19  C   UNL     1       5.287   6.242  16.233  0.00  0.00    +0.000 C 
ENDBRANCH   4  10
ENDBRANCH   3   4
ENDBRANCH   2   3
ENDBRANCH   1   2
BRANCH   1  20
ATOM     20  C   UNL     1       1.422  10.950  18.623  0.00  0.00    +0.000 C 
BRANCH  20  21
ATOM     21  C   UNL     1       0.370  11.904  19.178  0.00  0.00    +0.000 C 
BRANCH  21  22
ATOM     22  N   UNL     1      -0.769  11.159  19.694  0.00  0.00    +0.000 N 
ATOM     23  H   UNL     1      -0.669  10.910  20.677  0.00  0.00    +0.000 HD
BRANCH  22  24
ATOM     24  C   UNL     1      -2.094  11.575  19.430  0.00  0.00    +0.000 A 
ATOM     25  C   UNL     1      -2.917  12.240  20.368  0.00  0.00    +0.000 A 
ATOM     26  C   UNL     1      -4.199  12.621  19.953  0.00  0.00    +0.000 A 
ATOM     27  N   UNL     1      -4.713  12.312  18.740  0.00  0.00    +0.000 NA
ATOM     28  C   UNL     1      -3.973  11.608  17.881  0.00  0.00    +0.000 A 
ATOM     29  C   UNL     1      -4.548  11.277  16.660  0.00  0.00    +0.000 A 
ATOM     30  C   UNL     1      -3.865  10.537  15.696  0.00  0.00    +0.000 A 
ATOM     31  C   UNL     1      -2.570  10.115  15.957  0.00  0.00    +0.000 A 
ATOM     32  C   UNL     1      -1.972  10.444  17.177  0.00  0.00    +0.000 A 
ATOM     33  C   UNL     1      -2.658  11.195  18.168  0.00  0.00    +0.000 A 
ATOM     34  C   UNL     1      -5.159  13.351  20.858  0.00  0.00    +0.000 C 
ATOM     35  C   UNL     1      -4.530  13.921  22.122  0.00  0.00    +0.000 C 
ATOM     36  C   UNL     1      -3.603  12.892  22.743  0.00  0.00    +0.000 C 
ATOM     37  C   UNL     1      -2.473  12.581  21.771  0.00  0.00    +0.000 C 
ENDBRANCH  22  24
ENDBRANCH  21  22
ENDBRANCH  20  21
ENDBRANCH   1  20
TORSDOF 8
ENDMDL
MODEL 6
REMARK VINA RESULT:      -9.0      1.399      3.503
REMARK  Name = 
REMARK  8 active torsions:
REMARK  status: ('A' for Active; 'I' for Inactive)
REMARK    1  A    between atoms: C_5  and  N_6
REMARK    2  A    between atoms: N_6  and  C_7
REMARK    3  A    between atoms: C_7  and  C_8
REMARK    4  A    between atoms: C_8  and  C_9
REMARK    5  A    between atoms: C_9  and  C_10
REMARK    6  A    between atoms: C_10  and  C_11
REMARK    7  A    between atoms: C_11  and  N_12
REMARK    8  A    between atoms: N_12  and  C_13
REMARK                            x       y       z     vdW  Elec       q    Type
REMARK                         _______ _______ _______ _____ _____    ______ ____
ROOT
ATOM      1  C   UNL     1       0.454   7.753  20.803  0.00  0.00    +0.000 C 
ENDROOT
BRANCH   1   2
ATOM      2  C   UNL     1      -0.114   8.929  21.623  0.00  0.00    +0.000 C 
BRANCH   2   3
ATOM      3  C   UNL     1       0.840  10.114  21.558  0.00  0.00    +0.000 C 
BRANCH   3   4
ATOM      4  N   UNL     1       0.461  11.131  20.604  0.00  0.00    +0.000 N 
ATOM      5  H   UNL     1       0.904  10.986  19.701  0.00  0.00    +0.000 HD
BRANCH   4  10
ATOM      6  C   UNL     1      -2.981  10.442  16.894  0.00  0.00    +0.000 A 
ATOM      7  C   UNL     1      -1.732   9.896  17.128  0.00  0.00    +0.000 A 
ATOM      8  C   UNL     1      -1.022  10.264  18.273  0.00  0.00    +0.000 A 
ATOM      9  C   UNL     1      -1.547  11.174  19.235  0.00  0.00    +0.000 A 
ATOM     10  C   UNL     1      -0.881  11.578  20.448  0.00  0.00    +0.000 A 
ATOM     11  C   UNL     1      -1.562  12.479  21.325  0.00  0.00    +0.000 A 
ATOM     12  C   UNL     1      -2.818  12.959  20.919  0.00  0.00    +0.000 A 
ATOM     13  N   UNL     1      -3.430  12.579  19.778  0.00  0.00    +0.000 NA
ATOM     14  C   UNL     1      -2.823  11.712  18.973  0.00  0.00    +0.000 A 
ATOM     15  C   UNL     1      -3.508  11.348  17.813  0.00  0.00    +0.000 A 
ATOM     16  C   UNL     1      -3.649  13.907  21.751  0.00  0.00    +0.000 C 
ATOM     17  C   UNL     1      -2.923  14.553  22.920  0.00  0.00    +0.000 C 
ATOM     18  C   UNL     1      -2.078  13.515  23.620  0.00  0.00    +0.000 C 
ATOM     19  C   UNL     1      -1.032  12.973  22.652  0.00  0.00    +0.000 C 
ENDBRANCH   4  10
ENDBRANCH   3   4
ENDBRANCH   2   3
ENDBRANCH   1   2
BRANCH   1  20
ATOM     20  C   UNL     1       1.923   7.906  20.366  0.00  0.00    +0.000 C 
BRANCH  20  21
ATOM     21  C   UNL     1       2.098   7.935  18.851  0.00  0.00    +0.000 C 
BRANCH  21  22
ATOM     22  N   UNL     1       2.091   6.583  18.314  0.00  0.00    +0.000 N 
ATOM     23  H   UNL     1       1.905   6.554  17.313  0.00  0.00    +0.000 HD
BRANCH  22  24
ATOM     24  C   UNL     1       3.108   5.660  18.646  0.00  0.00    +0.000 A 
ATOM     25  C   UNL     1       4.414   5.690  18.103  0.00  0.00    +0.000 A 
ATOM     26  C   UNL     1       5.327   4.727  18.552  0.00  0.00    +0.000 A 
ATOM     27  N   UNL     1       5.001   3.730  19.406  0.00  0.00    +0.000 NA
ATOM     28  C   UNL     1       3.747   3.644  19.855  0.00  0.00    +0.000 A 
ATOM     29  C   UNL     1       3.440   2.585  20.702  0.00  0.00    +0.000 A 
ATOM     30  C   UNL     1       2.159   2.398  21.219  0.00  0.00    +0.000 A 
ATOM     31  C   UNL     1       1.155   3.293  20.884  0.00  0.00    +0.000 A 
ATOM     32  C   UNL     1       1.446   4.370  20.040  0.00  0.00    +0.000 A 
ATOM     33  C   UNL     1       2.746   4.570  19.504  0.00  0.00    +0.000 A 
ATOM     34  C   UNL     1       6.751   4.672  18.059  0.00  0.00    +0.000 C 
ATOM     35  C   UNL     1       7.208   5.909  17.299  0.00  0.00    +0.000 C 
ATOM     36  C   UNL     1       6.129   6.339  16.323  0.00  0.00    +0.000 C 
ATOM     37  C   UNL     1       4.872   6.717  17.095  0.00  0.00    +0.000 C 
ENDBRANCH  22  24
ENDBRANCH  21  22
ENDBRANCH  20  21
ENDBRANCH   1  20
TORSDOF 8
ENDMDL
MODEL 7
REMARK VINA RESULT:      -9.0      1.244      1.639
REMARK  Name = 
REMARK  8 active torsions:
REMARK  status: ('A' for Active; 'I' for Inactive)
REMARK    1  A    between atoms: C_5  and  N_6
REMARK    2  A    between atoms: N_6  and  C_7
REMARK    3  A    between atoms: C_7  and  C_8
REMARK    4  A    between atoms: C_8  and  C_9
REMARK    5  A    between atoms: C_9  and  C_10
REMARK    6  A    between atoms: C_10  and  C_11
REMARK    7  A    between atoms: C_11  and  N_12
REMARK    8  A    between atoms: N_12  and  C_13
REMARK                            x       y       z     vdW  Elec       q    Type
REMARK                         _______ _______ _______ _____ _____    ______ ____
ROOT
ATOM      1  C   UNL     1       0.828   9.280  19.178  0.00  0.00    +0.000 C 
ENDROOT
BRANCH   1   2
ATOM      2  C   UNL     1       0.955  10.198  20.411  0.00  0.00    +0.000 C 
BRANCH   2   3
ATOM      3  C   UNL     1      -0.419  10.713  20.816  0.00  0.00    +0.000 C 
BRANCH   3   4
ATOM      4  N   UNL     1      -0.949  11.738  19.947  0.00  0.00    +0.000 N 
ATOM      5  H   UNL     1      -0.410  11.823  19.089  0.00  0.00    +0.000 HD
BRANCH   4  10
ATOM      6  C   UNL     1      -3.823  10.697  15.855  0.00  0.00    +0.000 A 
ATOM      7  C   UNL     1      -2.503  10.424  16.169  0.00  0.00    +0.000 A 
ATOM      8  C   UNL     1      -1.994  10.817  17.409  0.00  0.00    +0.000 A 
ATOM      9  C   UNL     1      -2.795  11.476  18.386  0.00  0.00    +0.000 A 
ATOM     10  C   UNL     1      -2.342  11.887  19.692  0.00  0.00    +0.000 A 
ATOM     11  C   UNL     1      -3.283  12.511  20.568  0.00  0.00    +0.000 A 
ATOM     12  C   UNL     1      -4.579  12.737  20.077  0.00  0.00    +0.000 A 
ATOM     13  N   UNL     1      -4.991  12.355  18.850  0.00  0.00    +0.000 NA
ATOM     14  C   UNL     1      -4.136  11.739  18.040  0.00  0.00    +0.000 A 
ATOM     15  C   UNL     1      -4.620  11.357  16.789  0.00  0.00    +0.000 A 
ATOM     16  C   UNL     1      -5.674  13.379  20.897  0.00  0.00    +0.000 C 
ATOM     17  C   UNL     1      -5.216  14.042  22.186  0.00  0.00    +0.000 C 
ATOM     18  C   UNL     1      -4.211  13.150  22.878  0.00  0.00    +0.000 C 
ATOM     19  C   UNL     1      -2.993  12.965  21.980  0.00  0.00    +0.000 C 
ENDBRANCH   4  10
ENDBRANCH   3   4
ENDBRANCH   2   3
ENDBRANCH   1   2
BRANCH   1  20
ATOM     20  C   UNL     1       1.939   9.439  18.122  0.00  0.00    +0.000 C 
BRANCH  20  21
ATOM     21  C   UNL     1       2.342   8.119  17.473  0.00  0.00    +0.000 C 
BRANCH  21  22
ATOM     22  N   UNL     1       3.142   7.325  18.392  0.00  0.00    +0.000 N 
ATOM     23  H   UNL     1       2.937   7.524  19.370  0.00  0.00    +0.000 HD
BRANCH  22  24
ATOM     24  C   UNL     1       3.307   5.934  18.203  0.00  0.00    +0.000 A 
ATOM     25  C   UNL     1       2.733   4.947  19.037  0.00  0.00    +0.000 A 
ATOM     26  C   UNL     1       2.958   3.605  18.706  0.00  0.00    +0.000 A 
ATOM     27  N   UNL     1       3.757   3.211  17.688  0.00  0.00    +0.000 NA
ATOM     28  C   UNL     1       4.372   4.138  16.950  0.00  0.00    +0.000 A 
ATOM     29  C   UNL     1       5.216   3.695  15.937  0.00  0.00    +0.000 A 
ATOM     30  C   UNL     1       5.912   4.579  15.115  0.00  0.00    +0.000 A 
ATOM     31  C   UNL     1       5.765   5.944  15.307  0.00  0.00    +0.000 A 
ATOM     32  C   UNL     1       4.915   6.409  16.316  0.00  0.00    +0.000 A 
ATOM     33  C   UNL     1       4.201   5.519  17.162  0.00  0.00    +0.000 A 
ATOM     34  C   UNL     1       2.382   2.466  19.509  0.00  0.00    +0.000 C 
ATOM     35  C   UNL     1       1.294   2.871  20.495  0.00  0.00    +0.000 C 
ATOM     36  C   UNL     1       1.714   4.128  21.234  0.00  0.00    +0.000 C 
ATOM     37  C   UNL     1       1.875   5.268  20.238  0.00  0.00    +0.000 C 
ENDBRANCH  22  24
ENDBRANCH  21  22
ENDBRANCH  20  21
ENDBRANCH   1  20
TORSDOF 8
ENDMDL
MODEL 8
REMARK VINA RESULT:      -9.0      1.327      4.584
REMARK  Name = 
REMARK  8 active torsions:
REMARK  status: ('A' for Active; 'I' for Inactive)
REMARK    1  A    between atoms: C_5  and  N_6
REMARK    2  A    between atoms: N_6  and  C_7
REMARK    3  A    between atoms: C_7  and  C_8
REMARK    4  A    between atoms: C_8  and  C_9
REMARK    5  A    between atoms: C_9  and  C_10
REMARK    6  A    between atoms: C_10  and  C_11
REMARK    7  A    between atoms: C_11  and  N_12
REMARK    8  A    between atoms: N_12  and  C_13
REMARK                            x       y       z     vdW  Elec       q    Type
REMARK                         _______ _______ _______ _____ _____    ______ ____
ROOT
ATOM      1  C   UNL     1       1.195  10.137  18.905  0.00  0.00    +0.000 C 
ENDROOT
BRANCH   1   2
ATOM      2  C   UNL     1       0.537   9.546  20.168  0.00  0.00    +0.000 C 
BRANCH   2   3
ATOM      3  C   UNL     1      -0.332  10.600  20.841  0.00  0.00    +0.000 C 
BRANCH   3   4
ATOM      4  N   UNL     1      -0.701  11.702  19.982  0.00  0.00    +0.000 N 
ATOM      5  H   UNL     1      -0.072  11.789  19.187  0.00  0.00    +0.000 HD
BRANCH   4  10
ATOM      6  C   UNL     1      -4.616  13.861  22.450  0.00  0.00    +0.000 A 
ATOM      7  C   UNL     1      -3.273  13.734  22.753  0.00  0.00    +0.000 A 
ATOM      8  C   UNL     1      -2.418  13.104  21.844  0.00  0.00    +0.000 A 
ATOM      9  C   UNL     1      -2.876  12.601  20.593  0.00  0.00    +0.000 A 
ATOM     10  C   UNL     1      -2.047  11.963  19.600  0.00  0.00    +0.000 A 
ATOM     11  C   UNL     1      -2.659  11.541  18.379  0.00  0.00    +0.000 A 
ATOM     12  C   UNL     1      -4.044  11.723  18.248  0.00  0.00    +0.000 A 
ATOM     13  N   UNL     1      -4.813  12.315  19.186  0.00  0.00    +0.000 NA
ATOM     14  C   UNL     1      -4.249  12.747  20.310  0.00  0.00    +0.000 A 
ATOM     15  C   UNL     1      -5.090  13.360  21.239  0.00  0.00    +0.000 A 
ATOM     16  C   UNL     1      -4.816  11.331  17.010  0.00  0.00    +0.000 C 
ATOM     17  C   UNL     1      -4.063  10.452  16.025  0.00  0.00    +0.000 C 
ATOM     18  C   UNL     1      -2.651  10.968  15.874  0.00  0.00    +0.000 C 
ATOM     19  C   UNL     1      -1.936  10.896  17.219  0.00  0.00    +0.000 C 
ENDBRANCH   4  10
ENDBRANCH   3   4
ENDBRANCH   2   3
ENDBRANCH   1   2
BRANCH   1  20
ATOM     20  C   UNL     1       1.820   9.106  17.946  0.00  0.00    +0.000 C 
BRANCH  20  21
ATOM     21  C   UNL     1       2.221   7.808  18.639  0.00  0.00    +0.000 C 
BRANCH  21  22
ATOM     22  N   UNL     1       2.739   6.855  17.670  0.00  0.00    +0.000 N 
ATOM     23  H   UNL     1       3.042   7.295  16.803  0.00  0.00    +0.000 HD
BRANCH  22  24
ATOM     24  C   UNL     1       3.659   5.852  18.052  0.00  0.00    +0.000 A 
ATOM     25  C   UNL     1       5.062   6.027  18.067  0.00  0.00    +0.000 A 
ATOM     26  C   UNL     1       5.847   4.951  18.501  0.00  0.00    +0.000 A 
ATOM     27  N   UNL     1       5.339   3.739  18.823  0.00  0.00    +0.000 NA
ATOM     28  C   UNL     1       4.023   3.541  18.728  0.00  0.00    +0.000 A 
ATOM     29  C   UNL     1       3.542   2.272  19.032  0.00  0.00    +0.000 A 
ATOM     30  C   UNL     1       2.186   1.957  18.956  0.00  0.00    +0.000 A 
ATOM     31  C   UNL     1       1.283   2.933  18.567  0.00  0.00    +0.000 A 
ATOM     32  C   UNL     1       1.747   4.218  18.265  0.00  0.00    +0.000 A 
ATOM     33  C   UNL     1       3.125   4.552  18.336  0.00  0.00    +0.000 A 
ATOM     34  C   UNL     1       7.351   5.026  18.576  0.00  0.00    +0.000 C 
ATOM     35  C   UNL     1       7.923   6.432  18.459  0.00  0.00    +0.000 C 
ATOM     36  C   UNL     1       7.225   7.178  17.337  0.00  0.00    +0.000 C 
ATOM     37  C   UNL     1       5.745   7.314  17.667  0.00  0.00    +0.000 C 
ENDBRANCH  22  24
ENDBRANCH  21  22
ENDBRANCH  20  21
ENDBRANCH   1  20
TORSDOF 8
ENDMDL
MODEL 9
REMARK VINA RESULT:      -9.0      0.844      3.185
REMARK  Name = 
REMARK  8 active torsions:
REMARK  status: ('A' for Active; 'I' for Inactive)
REMARK    1  A    between atoms: C_5  and  N_6
REMARK    2  A    between atoms: N_6  and  C_7
REMARK    3  A    between atoms: C_7  and  C_8
REMARK    4  A    between atoms: C_8  and  C_9
REMARK    5  A    between atoms: C_9  and  C_10
REMARK    6  A    between atoms: C_10  and  C_11
REMARK    7  A    between atoms: C_11  and  N_12
REMARK    8  A    between atoms: N_12  and  C_13
REMARK                            x       y       z     vdW  Elec       q    Type
REMARK                         _______ _______ _______ _____ _____    ______ ____
ROOT
ATOM      1  C   UNL     1       1.200   9.283  17.806  0.00  0.00    +0.000 C 
ENDROOT
BRANCH   1   2
ATOM      2  C   UNL     1       0.822  10.049  19.091  0.00  0.00    +0.000 C 
BRANCH   2   3
ATOM      3  C   UNL     1       1.195  11.518  18.945  0.00  0.00    +0.000 C 
BRANCH   3   4
ATOM      4  N   UNL     1       0.104  12.370  18.530  0.00  0.00    +0.000 N 
ATOM      5  H   UNL     1       0.072  12.478  17.519  0.00  0.00    +0.000 HD
BRANCH   4  10
ATOM      6  C   UNL     1      -4.356  10.947  16.488  0.00  0.00    +0.000 A 
ATOM      7  C   UNL     1      -3.056  10.917  16.016  0.00  0.00    +0.000 A 
ATOM      8  C   UNL     1      -2.014  11.356  16.837  0.00  0.00    +0.000 A 
ATOM      9  C   UNL     1      -2.236  11.819  18.166  0.00  0.00    +0.000 A 
ATOM     10  C   UNL     1      -1.207  12.262  19.074  0.00  0.00    +0.000 A 
ATOM     11  C   UNL     1      -1.595  12.669  20.389  0.00  0.00    +0.000 A 
ATOM     12  C   UNL     1      -2.965  12.663  20.693  0.00  0.00    +0.000 A 
ATOM     13  N   UNL     1      -3.922  12.252  19.834  0.00  0.00    +0.000 NA
ATOM     14  C   UNL     1      -3.569  11.836  18.622  0.00  0.00    +0.000 A 
ATOM     15  C   UNL     1      -4.598  11.413  17.780  0.00  0.00    +0.000 A 
ATOM     16  C   UNL     1      -3.513  13.059  22.045  0.00  0.00    +0.000 C 
ATOM     17  C   UNL     1      -2.525  13.752  22.969  0.00  0.00    +0.000 C 
ATOM     18  C   UNL     1      -1.193  13.042  22.899  0.00  0.00    +0.000 C 
ATOM     19  C   UNL     1      -0.649  13.121  21.477  0.00  0.00    +0.000 C 
ENDBRANCH   4  10
ENDBRANCH   3   4
ENDBRANCH   2   3
ENDBRANCH   1   2
BRANCH   1  20
ATOM     20  C   UNL     1       2.061   8.024  18.021  0.00  0.00    +0.000 C 
BRANCH  20  21
ATOM     21  C   UNL     1       2.184   7.625  19.488  0.00  0.00    +0.000 C 
BRANCH  21  22
ATOM     22  N   UNL     1       3.259   6.660  19.661  0.00  0.00    +0.000 N 
ATOM     23  H   UNL     1       3.378   6.368  20.630  0.00  0.00    +0.000 HD
BRANCH  22  24
ATOM     24  C   UNL     1       3.387   5.547  18.799  0.00  0.00    +0.000 A 
ATOM     25  C   UNL     1       4.251   5.505  17.681  0.00  0.00    +0.000 A 
ATOM     26  C   UNL     1       4.295   4.320  16.936  0.00  0.00    +0.000 A 
ATOM     27  N   UNL     1       3.497   3.255  17.181  0.00  0.00    +0.000 NA
ATOM     28  C   UNL     1       2.616   3.320  18.182  0.00  0.00    +0.000 A 
ATOM     29  C   UNL     1       1.788   2.222  18.381  0.00  0.00    +0.000 A 
ATOM     30  C   UNL     1       0.829   2.191  19.391  0.00  0.00    +0.000 A 
ATOM     31  C   UNL     1       0.690   3.286  20.229  0.00  0.00    +0.000 A 
ATOM     32  C   UNL     1       1.520   4.398  20.051  0.00  0.00    +0.000 A 
ATOM     33  C   UNL     1       2.500   4.443  19.024  0.00  0.00    +0.000 A 
ATOM     34  C   UNL     1       5.191   4.151  15.736  0.00  0.00    +0.000 C 
ATOM     35  C   UNL     1       6.261   5.224  15.587  0.00  0.00    +0.000 C 
ATOM     36  C   UNL     1       5.656   6.592  15.842  0.00  0.00    +0.000 C 
ATOM     37  C   UNL     1       5.141   6.656  17.274  0.00  0.00    +0.000 C 
ENDBRANCH  22  24
ENDBRANCH  21  22
ENDBRANCH  20  21
ENDBRANCH   1  20
TORSDOF 8
ENDMDL
