MODEL 1
REMARK VINA RESULT:      -6.4      0.000      0.000
REMARK  Name = 
REMARK  11 active torsions:
REMARK  status: ('A' for Active; 'I' for Inactive)
REMARK    1  A    between atoms: C_1  and  C_2
REMARK    2  A    between atoms: C_2  and  O_4
REMARK    3  A    between atoms: O_4  and  C_5
REMARK    4  A    between atoms: C_5  and  C_6
REMARK    5  A    between atoms: N_8  and  C_9
REMARK    6  A    between atoms: C_9  and  C_10
REMARK    7  A    between atoms: C_10  and  C_11
REMARK    8  A    between atoms: C_11  and  O_12
REMARK    9  A    between atoms: O_12  and  C_13
REMARK   10  A    between atoms: C_17  and  C_18
REMARK   11  A    between atoms: C_18  and  N_19
REMARK                            x       y       z     vdW  Elec       q    Type
REMARK                         _______ _______ _______ _____ _____    ______ ____
ROOT
ATOM      1  O   UNL     1       4.094   6.201  17.171  0.00  0.00    +0.000 OA
ENDROOT
BRANCH   1   2
ATOM      2  C   UNL     1       3.279   6.817  18.070  0.00  0.00    +0.000 A 
ATOM      3  C   UNL     1       2.931   6.218  19.299  0.00  0.00    +0.000 A 
ATOM      4  C   UNL     1       2.084   6.876  20.192  0.00  0.00    +0.000 A 
ATOM      5  C   UNL     1       1.571   8.132  19.877  0.00  0.00    +0.000 A 
ATOM      6  C   UNL     1       1.902   8.748  18.663  0.00  0.00    +0.000 A 
ATOM      7  C   UNL     1       2.761   8.086  17.763  0.00  0.00    +0.000 A 
BRANCH   6   8
ATOM      8  C   UNL     1       1.303  10.089  18.317  0.00  0.00    +0.000 C 
BRANCH   8   9
ATOM      9  N   UNL     1      -0.108  10.227  18.753  0.00  0.00    +0.000 NA
ATOM     10  C   UNL     1      -0.359  11.605  19.246  0.00  0.00    +0.000 C 
ATOM     11  C   UNL     1      -1.843  11.833  19.572  0.00  0.00    +0.000 C 
ATOM     12  C   UNL     1      -2.692  11.553  18.335  0.00  0.00    +0.000 C 
ATOM     13  C   UNL     1      -2.464  10.105  17.912  0.00  0.00    +0.000 C 
ATOM     14  C   UNL     1      -0.980   9.890  17.600  0.00  0.00    +0.000 C 
ENDBRANCH   8   9
ENDBRANCH   6   8
ENDBRANCH   1   2
BRANCH   1  15
ATOM     15  C   UNL     1       5.475   6.188  17.248  0.00  0.00    +0.000 C 
BRANCH  15  16
ATOM     16  C   UNL     1       6.013   4.761  17.167  0.00  0.00    +0.000 C 
BRANCH  16  17
ATOM     17  C   UNL     1       4.985   3.851  16.479  0.00  0.00    +0.000 C 
BRANCH  17  20
ATOM     18  C   UNL     1       2.988   2.818  17.458  0.00  0.00    +0.000 C 
ATOM     19  O   UNL     1       2.275   3.432  16.677  0.00  0.00    +0.000 OA
ATOM     20  N   UNL     1       4.338   2.976  17.437  0.00  0.00    +0.000 N 
ATOM     21  H   UNL     1       4.911   2.442  18.108  0.00  0.00    +0.000 HD
BRANCH  18  22
ATOM     22  C   UNL     1       2.361   1.852  18.426  0.00  0.00    +0.000 C 
BRANCH  22  23
ATOM     23  O   UNL     1       1.953   2.517  19.568  0.00  0.00    +0.000 OA
BRANCH  23  25
ATOM     24  C   UNL     1       2.117   3.326  21.886  0.00  0.00    +0.000 C 
ATOM     25  C   UNL     1       2.731   2.733  20.661  0.00  0.00    +0.000 C 
ATOM     26  O   UNL     1       3.924   2.467  20.648  0.00  0.00    +0.000 OA
ENDBRANCH  23  25
ENDBRANCH  22  23
ENDBRANCH  18  22
ENDBRANCH  17  20
ENDBRANCH  16  17
ENDBRANCH  15  16
ENDBRANCH   1  15
TORSDOF 10
ENDMDL
MODEL 2
REMARK VINA RESULT:      -6.3      5.470      8.960
REMARK  Name = 
REMARK  11 active torsions:
REMARK  status: ('A' for Active; 'I' for Inactive)
REMARK    1  A    between atoms: C_1  and  C_2
REMARK    2  A    between atoms: C_2  and  O_4
REMARK    3  A    between atoms: O_4  and  C_5
REMARK    4  A    between atoms: C_5  and  C_6
REMARK    5  A    between atoms: N_8  and  C_9
REMARK    6  A    between atoms: C_9  and  C_10
REMARK    7  A    between atoms: C_10  and  C_11
REMARK    8  A    between atoms: C_11  and  O_12
REMARK    9  A    between atoms: O_12  and  C_13
REMARK   10  A    between atoms: C_17  and  C_18
REMARK   11  A    between atoms: C_18  and  N_19
REMARK                            x       y       z     vdW  Elec       q    Type
REMARK                         _______ _______ _______ _____ _____    ______ ____
ROOT
ATOM      1  O   UNL     1       7.696   7.210  16.813  0.00  0.00    +0.000 OA
ENDROOT
BRANCH   1   2
ATOM      2  C   UNL     1       6.765   6.227  16.673  0.00  0.00    +0.000 A 
ATOM      3  C   UNL     1       7.000   5.081  15.882  0.00  0.00    +0.000 A 
ATOM      4  C   UNL     1       6.018   4.098  15.753  0.00  0.00    +0.000 A 
ATOM      5  C   UNL     1       4.794   4.239  16.404  0.00  0.00    +0.000 A 
ATOM      6  C   UNL     1       4.538   5.367  17.194  0.00  0.00    +0.000 A 
ATOM      7  C   UNL     1       5.531   6.358  17.328  0.00  0.00    +0.000 A 
BRANCH   6   8
ATOM      8  C   UNL     1       3.191   5.526  17.856  0.00  0.00    +0.000 C 
BRANCH   8   9
ATOM      9  N   UNL     1       2.832   4.381  18.729  0.00  0.00    +0.000 NA
ATOM     10  C   UNL     1       2.776   4.816  20.147  0.00  0.00    +0.000 C 
ATOM     11  C   UNL     1       2.267   3.696  21.068  0.00  0.00    +0.000 C 
ATOM     12  C   UNL     1       0.888   3.233  20.604  0.00  0.00    +0.000 C 
ATOM     13  C   UNL     1       1.009   2.721  19.172  0.00  0.00    +0.000 C 
ATOM     14  C   UNL     1       1.527   3.845  18.268  0.00  0.00    +0.000 C 
ENDBRANCH   8   9
ENDBRANCH   6   8
ENDBRANCH   1   2
BRANCH   1  15
ATOM     15  C   UNL     1       8.004   7.830  18.010  0.00  0.00    +0.000 C 
BRANCH  15  16
ATOM     16  C   UNL     1       8.177   9.335  17.817  0.00  0.00    +0.000 C 
BRANCH  16  17
ATOM     17  C   UNL     1       9.104   9.901  18.903  0.00  0.00    +0.000 C 
BRANCH  17  20
ATOM     18  C   UNL     1       9.796  12.082  19.784  0.00  0.00    +0.000 C 
ATOM     19  O   UNL     1      10.708  11.554  20.404  0.00  0.00    +0.000 OA
ATOM     20  N   UNL     1       8.948  11.337  19.027  0.00  0.00    +0.000 N 
ATOM     21  H   UNL     1       8.190  11.813  18.514  0.00  0.00    +0.000 HD
BRANCH  18  22
ATOM     22  C   UNL     1       9.638  13.578  19.835  0.00  0.00    +0.000 C 
BRANCH  22  23
ATOM     23  O   UNL     1       8.458  13.954  19.220  0.00  0.00    +0.000 OA
BRANCH  23  25
ATOM     24  C   UNL     1       9.562  15.646  17.815  0.00  0.00    +0.000 C 
ATOM     25  C   UNL     1       8.365  14.839  18.192  0.00  0.00    +0.000 C 
ATOM     26  O   UNL     1       7.313  14.993  17.588  0.00  0.00    +0.000 OA
ENDBRANCH  23  25
ENDBRANCH  22  23
ENDBRANCH  18  22
ENDBRANCH  17  20
ENDBRANCH  16  17
ENDBRANCH  15  16
ENDBRANCH   1  15
TORSDOF 10
ENDMDL
MODEL 3
REMARK VINA RESULT:      -6.3      1.927      4.128
REMARK  Name = 
REMARK  11 active torsions:
REMARK  status: ('A' for Active; 'I' for Inactive)
REMARK    1  A    between atoms: C_1  and  C_2
REMARK    2  A    between atoms: C_2  and  O_4
REMARK    3  A    between atoms: O_4  and  C_5
REMARK    4  A    between atoms: C_5  and  C_6
REMARK    5  A    between atoms: N_8  and  C_9
REMARK    6  A    between atoms: C_9  and  C_10
REMARK    7  A    between atoms: C_10  and  C_11
REMARK    8  A    between atoms: C_11  and  O_12
REMARK    9  A    between atoms: O_12  and  C_13
REMARK   10  A    between atoms: C_17  and  C_18
REMARK   11  A    between atoms: C_18  and  N_19
REMARK                            x       y       z     vdW  Elec       q    Type
REMARK                         _______ _______ _______ _____ _____    ______ ____
ROOT
ATOM      1  O   UNL     1       3.062   5.233  20.176  0.00  0.00    +0.000 OA
ENDROOT
BRANCH   1   2
ATOM      2  C   UNL     1       2.782   6.363  19.473  0.00  0.00    +0.000 A 
ATOM      3  C   UNL     1       3.275   6.574  18.167  0.00  0.00    +0.000 A 
ATOM      4  C   UNL     1       2.976   7.751  17.480  0.00  0.00    +0.000 A 
ATOM      5  C   UNL     1       2.188   8.733  18.079  0.00  0.00    +0.000 A 
ATOM      6  C   UNL     1       1.688   8.547  19.374  0.00  0.00    +0.000 A 
ATOM      7  C   UNL     1       1.986   7.356  20.066  0.00  0.00    +0.000 A 
BRANCH   6   8
ATOM      8  C   UNL     1       0.874   9.637  20.025  0.00  0.00    +0.000 C 
BRANCH   8   9
ATOM      9  N   UNL     1       0.567  10.762  19.108  0.00  0.00    +0.000 NA
ATOM     10  C   UNL     1      -0.902  10.919  18.963  0.00  0.00    +0.000 C 
ATOM     11  C   UNL     1      -1.265  12.162  18.136  0.00  0.00    +0.000 C 
ATOM     12  C   UNL     1      -0.664  13.406  18.785  0.00  0.00    +0.000 C 
ATOM     13  C   UNL     1       0.851  13.237  18.839  0.00  0.00    +0.000 C 
ATOM     14  C   UNL     1       1.197  11.989  19.658  0.00  0.00    +0.000 C 
ENDBRANCH   8   9
ENDBRANCH   6   8
ENDBRANCH   1   2
BRANCH   1  15
ATOM     15  C   UNL     1       2.436   4.014  19.981  0.00  0.00    +0.000 C 
BRANCH  15  16
ATOM     16  C   UNL     1       3.302   3.084  19.135  0.00  0.00    +0.000 C 
BRANCH  16  17
ATOM     17  C   UNL     1       4.772   3.199  19.566  0.00  0.00    +0.000 C 
BRANCH  17  20
ATOM     18  C   UNL     1       6.461   4.742  18.683  0.00  0.00    +0.000 C 
ATOM     19  O   UNL     1       6.556   5.281  19.776  0.00  0.00    +0.000 OA
ATOM     20  N   UNL     1       5.594   3.714  18.488  0.00  0.00    +0.000 N 
ATOM     21  H   UNL     1       5.539   3.279  17.554  0.00  0.00    +0.000 HD
BRANCH  18  22
ATOM     22  C   UNL     1       7.342   5.204  17.553  0.00  0.00    +0.000 C 
BRANCH  22  23
ATOM     23  O   UNL     1       7.175   4.385  16.452  0.00  0.00    +0.000 OA
BRANCH  23  25
ATOM     24  C   UNL     1       7.009   4.810  14.034  0.00  0.00    +0.000 C 
ATOM     25  C   UNL     1       6.386   4.672  15.383  0.00  0.00    +0.000 C 
ATOM     26  O   UNL     1       5.181   4.834  15.515  0.00  0.00    +0.000 OA
ENDBRANCH  23  25
ENDBRANCH  22  23
ENDBRANCH  18  22
ENDBRANCH  17  20
ENDBRANCH  16  17
ENDBRANCH  15  16
ENDBRANCH   1  15
TORSDOF 10
ENDMDL
MODEL 4
REMARK VINA RESULT:      -6.3      1.674      3.594
REMARK  Name = 
REMARK  11 active torsions:
REMARK  status: ('A' for Active; 'I' for Inactive)
REMARK    1  A    between atoms: C_1  and  C_2
REMARK    2  A    between atoms: C_2  and  O_4
REMARK    3  A    between atoms: O_4  and  C_5
REMARK    4  A    between atoms: C_5  and  C_6
REMARK    5  A    between atoms: N_8  and  C_9
REMARK    6  A    between atoms: C_9  and  C_10
REMARK    7  A    between atoms: C_10  and  C_11
REMARK    8  A    between atoms: C_11  and  O_12
REMARK    9  A    between atoms: O_12  and  C_13
REMARK   10  A    between atoms: C_17  and  C_18
REMARK   11  A    between atoms: C_18  and  N_19
REMARK                            x       y       z     vdW  Elec       q    Type
REMARK                         _______ _______ _______ _____ _____    ______ ____
ROOT
ATOM      1  O   UNL     1       2.365   5.367  20.513  0.00  0.00    +0.000 OA
ENDROOT
BRANCH   1   2
ATOM      2  C   UNL     1       2.294   6.498  19.760  0.00  0.00    +0.000 A 
ATOM      3  C   UNL     1       2.843   6.568  18.461  0.00  0.00    +0.000 A 
ATOM      4  C   UNL     1       2.761   7.749  17.722  0.00  0.00    +0.000 A 
ATOM      5  C   UNL     1       2.136   8.872  18.260  0.00  0.00    +0.000 A 
ATOM      6  C   UNL     1       1.584   8.827  19.547  0.00  0.00    +0.000 A 
ATOM      7  C   UNL     1       1.663   7.633  20.292  0.00  0.00    +0.000 A 
BRANCH   6   8
ATOM      8  C   UNL     1       0.950  10.064  20.133  0.00  0.00    +0.000 C 
BRANCH   8   9
ATOM      9  N   UNL     1       0.676  11.113  19.120  0.00  0.00    +0.000 NA
ATOM     10  C   UNL     1      -0.781  11.387  19.048  0.00  0.00    +0.000 C 
ATOM     11  C   UNL     1      -1.094  12.569  18.116  0.00  0.00    +0.000 C 
ATOM     12  C   UNL     1      -0.348  13.812  18.591  0.00  0.00    +0.000 C 
ATOM     13  C   UNL     1       1.148  13.513  18.574  0.00  0.00    +0.000 C 
ATOM     14  C   UNL     1       1.443  12.327  19.498  0.00  0.00    +0.000 C 
ENDBRANCH   8   9
ENDBRANCH   6   8
ENDBRANCH   1   2
BRANCH   1  15
ATOM     15  C   UNL     1       1.362   4.417  20.595  0.00  0.00    +0.000 C 
BRANCH  15  16
ATOM     16  C   UNL     1       1.943   3.031  20.866  0.00  0.00    +0.000 C 
BRANCH  16  17
ATOM     17  C   UNL     1       2.089   2.256  19.549  0.00  0.00    +0.000 C 
BRANCH  17  20
ATOM     18  C   UNL     1       3.279   3.194  17.621  0.00  0.00    +0.000 C 
ATOM     19  O   UNL     1       2.218   3.388  17.046  0.00  0.00    +0.000 OA
ATOM     20  N   UNL     1       3.307   2.627  18.856  0.00  0.00    +0.000 N 
ATOM     21  H   UNL     1       4.219   2.479  19.316  0.00  0.00    +0.000 HD
BRANCH  18  22
ATOM     22  C   UNL     1       4.564   3.623  16.964  0.00  0.00    +0.000 C 
BRANCH  22  23
ATOM     23  O   UNL     1       5.414   4.185  17.899  0.00  0.00    +0.000 OA
BRANCH  23  25
ATOM     24  C   UNL     1       6.767   5.646  16.454  0.00  0.00    +0.000 C 
ATOM     25  C   UNL     1       6.630   4.724  17.620  0.00  0.00    +0.000 C 
ATOM     26  O   UNL     1       7.611   4.449  18.297  0.00  0.00    +0.000 OA
ENDBRANCH  23  25
ENDBRANCH  22  23
ENDBRANCH  18  22
ENDBRANCH  17  20
ENDBRANCH  16  17
ENDBRANCH  15  16
ENDBRANCH   1  15
TORSDOF 10
ENDMDL
MODEL 5
REMARK VINA RESULT:      -6.3      2.226      3.922
REMARK  Name = 
REMARK  11 active torsions:
REMARK  status: ('A' for Active; 'I' for Inactive)
REMARK    1  A    between atoms: C_1  and  C_2
REMARK    2  A    between atoms: C_2  and  O_4
REMARK    3  A    between atoms: O_4  and  C_5
REMARK    4  A    between atoms: C_5  and  C_6
REMARK    5  A    between atoms: N_8  and  C_9
REMARK    6  A    between atoms: C_9  and  C_10
REMARK    7  A    between atoms: C_10  and  C_11
REMARK    8  A    between atoms: C_11  and  O_12
REMARK    9  A    between atoms: O_12  and  C_13
REMARK   10  A    between atoms: C_17  and  C_18
REMARK   11  A    between atoms: C_18  and  N_19
REMARK                            x       y       z     vdW  Elec       q    Type
REMARK                         _______ _______ _______ _____ _____    ______ ____
ROOT
ATOM      1  O   UNL     1       2.652   5.793  20.344  0.00  0.00    +0.000 OA
ENDROOT
BRANCH   1   2
ATOM      2  C   UNL     1       2.493   6.848  19.499  0.00  0.00    +0.000 A 
ATOM      3  C   UNL     1       3.290   7.011  18.345  0.00  0.00    +0.000 A 
ATOM      4  C   UNL     1       3.105   8.111  17.507  0.00  0.00    +0.000 A 
ATOM      5  C   UNL     1       2.131   9.063  17.803  0.00  0.00    +0.000 A 
ATOM      6  C   UNL     1       1.328   8.924  18.943  0.00  0.00    +0.000 A 
ATOM      7  C   UNL     1       1.511   7.810  19.786  0.00  0.00    +0.000 A 
BRANCH   6   8
ATOM      8  C   UNL     1       0.308   9.985  19.274  0.00  0.00    +0.000 C 
BRANCH   8   9
ATOM      9  N   UNL     1       0.329  10.389  20.701  0.00  0.00    +0.000 NA
ATOM     10  C   UNL     1      -0.373  11.685  20.877  0.00  0.00    +0.000 C 
ATOM     11  C   UNL     1      -0.500  12.068  22.360  0.00  0.00    +0.000 C 
ATOM     12  C   UNL     1      -1.235  10.964  23.117  0.00  0.00    +0.000 C 
ATOM     13  C   UNL     1      -0.438   9.671  22.976  0.00  0.00    +0.000 C 
ATOM     14  C   UNL     1      -0.311   9.308  21.493  0.00  0.00    +0.000 C 
ENDBRANCH   8   9
ENDBRANCH   6   8
ENDBRANCH   1   2
BRANCH   1  15
ATOM     15  C   UNL     1       1.610   5.071  20.898  0.00  0.00    +0.000 C 
BRANCH  15  16
ATOM     16  C   UNL     1       1.171   3.944  19.968  0.00  0.00    +0.000 C 
BRANCH  16  17
ATOM     17  C   UNL     1       2.345   2.990  19.705  0.00  0.00    +0.000 C 
BRANCH  17  20
ATOM     18  C   UNL     1       4.450   3.472  18.541  0.00  0.00    +0.000 C 
ATOM     19  O   UNL     1       5.081   3.226  19.559  0.00  0.00    +0.000 OA
ATOM     20  N   UNL     1       3.092   3.392  18.530  0.00  0.00    +0.000 N 
ATOM     21  H   UNL     1       2.589   3.603  17.654  0.00  0.00    +0.000 HD
BRANCH  18  22
ATOM     22  C   UNL     1       5.190   3.831  17.281  0.00  0.00    +0.000 C 
BRANCH  22  23
ATOM     23  O   UNL     1       5.984   4.943  17.494  0.00  0.00    +0.000 OA
BRANCH  23  25
ATOM     24  C   UNL     1       7.850   5.698  18.908  0.00  0.00    +0.000 C 
ATOM     25  C   UNL     1       7.316   4.908  17.760  0.00  0.00    +0.000 C 
ATOM     26  O   UNL     1       8.081   4.254  17.064  0.00  0.00    +0.000 OA
ENDBRANCH  23  25
ENDBRANCH  22  23
ENDBRANCH  18  22
ENDBRANCH  17  20
ENDBRANCH  16  17
ENDBRANCH  15  16
ENDBRANCH   1  15
TORSDOF 10
ENDMDL
MODEL 6
REMARK VINA RESULT:      -6.2      4.492      6.836
REMARK  Name = 
REMARK  11 active torsions:
REMARK  status: ('A' for Active; 'I' for Inactive)
REMARK    1  A    between atoms: C_1  and  C_2
REMARK    2  A    between atoms: C_2  and  O_4
REMARK    3  A    between atoms: O_4  and  C_5
REMARK    4  A    between atoms: C_5  and  C_6
REMARK    5  A    between atoms: N_8  and  C_9
REMARK    6  A    between atoms: C_9  and  C_10
REMARK    7  A    between atoms: C_10  and  C_11
REMARK    8  A    between atoms: C_11  and  O_12
REMARK    9  A    between atoms: O_12  and  C_13
REMARK   10  A    between atoms: C_17  and  C_18
REMARK   11  A    between atoms: C_18  and  N_19
REMARK                            x       y       z     vdW  Elec       q    Type
REMARK                         _______ _______ _______ _____ _____    ______ ____
ROOT
ATOM      1  O   UNL     1       6.745   5.751  15.779  0.00  0.00    +0.000 OA
ENDROOT
BRANCH   1   2
ATOM      2  C   UNL     1       7.300   6.322  16.882  0.00  0.00    +0.000 A 
ATOM      3  C   UNL     1       7.661   5.564  18.017  0.00  0.00    +0.000 A 
ATOM      4  C   UNL     1       8.219   6.186  19.135  0.00  0.00    +0.000 A 
ATOM      5  C   UNL     1       8.424   7.564  19.142  0.00  0.00    +0.000 A 
ATOM      6  C   UNL     1       8.074   8.338  18.027  0.00  0.00    +0.000 A 
ATOM      7  C   UNL     1       7.515   7.710  16.897  0.00  0.00    +0.000 A 
BRANCH   6   8
ATOM      8  C   UNL     1       8.261   9.834  18.067  0.00  0.00    +0.000 C 
BRANCH   8   9
ATOM      9  N   UNL     1       9.514  10.247  18.746  0.00  0.00    +0.000 NA
ATOM     10  C   UNL     1      10.342  11.075  17.834  0.00  0.00    +0.000 C 
ATOM     11  C   UNL     1      11.580  11.643  18.545  0.00  0.00    +0.000 C 
ATOM     12  C   UNL     1      11.148  12.466  19.756  0.00  0.00    +0.000 C 
ATOM     13  C   UNL     1      10.371  11.557  20.703  0.00  0.00    +0.000 C 
ATOM     14  C   UNL     1       9.146  10.990  19.978  0.00  0.00    +0.000 C 
ENDBRANCH   8   9
ENDBRANCH   6   8
ENDBRANCH   1   2
BRANCH   1  15
ATOM     15  C   UNL     1       5.396   5.788  15.473  0.00  0.00    +0.000 C 
BRANCH  15  16
ATOM     16  C   UNL     1       4.670   4.577  16.056  0.00  0.00    +0.000 C 
BRANCH  16  17
ATOM     17  C   UNL     1       3.975   4.964  17.370  0.00  0.00    +0.000 C 
BRANCH  17  20
ATOM     18  C   UNL     1       4.315   3.329  19.167  0.00  0.00    +0.000 C 
ATOM     19  O   UNL     1       5.349   3.891  19.496  0.00  0.00    +0.000 OA
ATOM     20  N   UNL     1       3.580   3.786  18.117  0.00  0.00    +0.000 N 
ATOM     21  H   UNL     1       2.710   3.292  17.866  0.00  0.00    +0.000 HD
BRANCH  18  22
ATOM     22  C   UNL     1       3.835   2.141  19.956  0.00  0.00    +0.000 C 
BRANCH  22  23
ATOM     23  O   UNL     1       2.473   2.232  20.176  0.00  0.00    +0.000 OA
BRANCH  23  25
ATOM     24  C   UNL     1       0.933   4.121  20.512  0.00  0.00    +0.000 C 
ATOM     25  C   UNL     1       1.881   3.098  21.041  0.00  0.00    +0.000 C 
ATOM     26  O   UNL     1       2.129   3.059  22.238  0.00  0.00    +0.000 OA
ENDBRANCH  23  25
ENDBRANCH  22  23
ENDBRANCH  18  22
ENDBRANCH  17  20
ENDBRANCH  16  17
ENDBRANCH  15  16
ENDBRANCH   1  15
TORSDOF 10
ENDMDL
MODEL 7
REMARK VINA RESULT:      -6.2      2.256      4.071
REMARK  Name = 
REMARK  11 active torsions:
REMARK  status: ('A' for Active; 'I' for Inactive)
REMARK    1  A    between atoms: C_1  and  C_2
REMARK    2  A    between atoms: C_2  and  O_4
REMARK    3  A    between atoms: O_4  and  C_5
REMARK    4  A    between atoms: C_5  and  C_6
REMARK    5  A    between atoms: N_8  and  C_9
REMARK    6  A    between atoms: C_9  and  C_10
REMARK    7  A    between atoms: C_10  and  C_11
REMARK    8  A    between atoms: C_11  and  O_12
REMARK    9  A    between atoms: O_12  and  C_13
REMARK   10  A    between atoms: C_17  and  C_18
REMARK   11  A    between atoms: C_18  and  N_19
REMARK                            x       y       z     vdW  Elec       q    Type
REMARK                         _______ _______ _______ _____ _____    ______ ____
ROOT
ATOM      1  O   UNL     1       2.630   7.045  19.448  0.00  0.00    +0.000 OA
ENDROOT
BRANCH   1   2
ATOM      2  C   UNL     1       1.813   7.991  19.984  0.00  0.00    +0.000 A 
ATOM      3  C   UNL     1       1.519   8.033  21.364  0.00  0.00    +0.000 A 
ATOM      4  C   UNL     1       0.668   9.013  21.876  0.00  0.00    +0.000 A 
ATOM      5  C   UNL     1       0.096   9.959  21.028  0.00  0.00    +0.000 A 
ATOM      6  C   UNL     1       0.372   9.938  19.655  0.00  0.00    +0.000 A 
ATOM      7  C   UNL     1       1.236   8.952  19.138  0.00  0.00    +0.000 A 
BRANCH   6   8
ATOM      8  C   UNL     1      -0.289  10.943  18.744  0.00  0.00    +0.000 C 
BRANCH   8   9
ATOM      9  N   UNL     1      -1.704  10.613  18.443  0.00  0.00    +0.000 NA
ATOM     10  C   UNL     1      -2.557  11.816  18.612  0.00  0.00    +0.000 C 
ATOM     11  C   UNL     1      -4.006  11.555  18.171  0.00  0.00    +0.000 C 
ATOM     12  C   UNL     1      -4.027  11.095  16.715  0.00  0.00    +0.000 C 
ATOM     13  C   UNL     1      -3.206   9.815  16.603  0.00  0.00    +0.000 C 
ATOM     14  C   UNL     1      -1.767  10.087  17.056  0.00  0.00    +0.000 C 
ENDBRANCH   8   9
ENDBRANCH   6   8
ENDBRANCH   1   2
BRANCH   1  15
ATOM     15  C   UNL     1       2.248   5.743  19.177  0.00  0.00    +0.000 C 
BRANCH  15  16
ATOM     16  C   UNL     1       2.850   4.774  20.192  0.00  0.00    +0.000 C 
BRANCH  16  17
ATOM     17  C   UNL     1       4.160   4.188  19.646  0.00  0.00    +0.000 C 
BRANCH  17  20
ATOM     18  C   UNL     1       6.033   5.524  18.798  0.00  0.00    +0.000 C 
ATOM     19  O   UNL     1       6.707   5.215  19.770  0.00  0.00    +0.000 OA
ATOM     20  N   UNL     1       4.759   5.071  18.664  0.00  0.00    +0.000 N 
ATOM     21  H   UNL     1       4.217   5.347  17.830  0.00  0.00    +0.000 HD
BRANCH  18  22
ATOM     22  C   UNL     1       6.639   6.387  17.723  0.00  0.00    +0.000 C 
BRANCH  22  23
ATOM     23  O   UNL     1       6.262   5.930  16.475  0.00  0.00    +0.000 OA
BRANCH  23  25
ATOM     24  C   UNL     1       6.240   4.387  14.558  0.00  0.00    +0.000 C 
ATOM     25  C   UNL     1       6.874   4.922  15.799  0.00  0.00    +0.000 C 
ATOM     26  O   UNL     1       7.923   4.438  16.203  0.00  0.00    +0.000 OA
ENDBRANCH  23  25
ENDBRANCH  22  23
ENDBRANCH  18  22
ENDBRANCH  17  20
ENDBRANCH  16  17
ENDBRANCH  15  16
ENDBRANCH   1  15
TORSDOF 10
ENDMDL
MODEL 8
REMARK VINA RESULT:      -6.2      1.847      3.702
REMARK  Name = 
REMARK  11 active torsions:
REMARK  status: ('A' for Active; 'I' for Inactive)
REMARK    1  A    between atoms: C_1  and  C_2
REMARK    2  A    between atoms: C_2  and  O_4
REMARK    3  A    between atoms: O_4  and  C_5
REMARK    4  A    between atoms: C_5  and  C_6
REMARK    5  A    between atoms: N_8  and  C_9
REMARK    6  A    between atoms: C_9  and  C_10
REMARK    7  A    between atoms: C_10  and  C_11
REMARK    8  A    between atoms: C_11  and  O_12
REMARK    9  A    between atoms: O_12  and  C_13
REMARK   10  A    between atoms: C_17  and  C_18
REMARK   11  A    between atoms: C_18  and  N_19
REMARK                            x       y       z     vdW  Elec       q    Type
REMARK                         _______ _______ _______ _____ _____    ______ ____
ROOT
ATOM      1  O   UNL     1       3.081   4.810  18.055  0.00  0.00    +0.000 OA
ENDROOT
BRANCH   1   2
ATOM      2  C   UNL     1       2.612   5.893  18.733  0.00  0.00    +0.000 A 
ATOM      3  C   UNL     1       2.214   5.816  20.084  0.00  0.00    +0.000 A 
ATOM      4  C   UNL     1       1.728   6.945  20.744  0.00  0.00    +0.000 A 
ATOM      5  C   UNL     1       1.630   8.162  20.073  0.00  0.00    +0.000 A 
ATOM      6  C   UNL     1       2.019   8.264  18.731  0.00  0.00    +0.000 A 
ATOM      7  C   UNL     1       2.514   7.125  18.066  0.00  0.00    +0.000 A 
BRANCH   6   8
ATOM      8  C   UNL     1       1.865   9.578  18.005  0.00  0.00    +0.000 C 
BRANCH   8   9
ATOM      9  N   UNL     1       1.048  10.564  18.753  0.00  0.00    +0.000 NA
ATOM     10  C   UNL     1       1.629  11.924  18.611  0.00  0.00    +0.000 C 
ATOM     11  C   UNL     1       0.734  12.997  19.250  0.00  0.00    +0.000 C 
ATOM     12  C   UNL     1      -0.657  12.950  18.622  0.00  0.00    +0.000 C 
ATOM     13  C   UNL     1      -1.247  11.564  18.861  0.00  0.00    +0.000 C 
ATOM     14  C   UNL     1      -0.340  10.504  18.228  0.00  0.00    +0.000 C 
ENDBRANCH   8   9
ENDBRANCH   6   8
ENDBRANCH   1   2
BRANCH   1  15
ATOM     15  C   UNL     1       2.496   3.557  18.082  0.00  0.00    +0.000 C 
BRANCH  15  16
ATOM     16  C   UNL     1       3.506   2.492  18.504  0.00  0.00    +0.000 C 
BRANCH  16  17
ATOM     17  C   UNL     1       4.666   3.142  19.271  0.00  0.00    +0.000 C 
BRANCH  17  20
ATOM     18  C   UNL     1       6.419   4.761  18.706  0.00  0.00    +0.000 C 
ATOM     19  O   UNL     1       6.284   5.303  19.793  0.00  0.00    +0.000 OA
ATOM     20  N   UNL     1       5.650   3.694  18.361  0.00  0.00    +0.000 N 
ATOM     21  H   UNL     1       5.791   3.257  17.438  0.00  0.00    +0.000 HD
BRANCH  18  22
ATOM     22  C   UNL     1       7.474   5.263  17.757  0.00  0.00    +0.000 C 
BRANCH  22  23
ATOM     23  O   UNL     1       7.456   4.524  16.589  0.00  0.00    +0.000 OA
BRANCH  23  25
ATOM     24  C   UNL     1       5.755   5.776  15.326  0.00  0.00    +0.000 C 
ATOM     25  C   UNL     1       6.426   4.497  15.702  0.00  0.00    +0.000 C 
ATOM     26  O   UNL     1       6.033   3.441  15.225  0.00  0.00    +0.000 OA
ENDBRANCH  23  25
ENDBRANCH  22  23
ENDBRANCH  18  22
ENDBRANCH  17  20
ENDBRANCH  16  17
ENDBRANCH  15  16
ENDBRANCH   1  15
TORSDOF 10
ENDMDL
MODEL 9
REMARK VINA RESULT:      -6.1      1.721      2.721
REMARK  Name = 
REMARK  11 active torsions:
REMARK  status: ('A' for Active; 'I' for Inactive)
REMARK    1  A    between atoms: C_1  and  C_2
REMARK    2  A    between atoms: C_2  and  O_4
REMARK    3  A    between atoms: O_4  and  C_5
REMARK    4  A    between atoms: C_5  and  C_6
REMARK    5  A    between atoms: N_8  and  C_9
REMARK    6  A    between atoms: C_9  and  C_10
REMARK    7  A    between atoms: C_10  and  C_11
REMARK    8  A    between atoms: C_11  and  O_12
REMARK    9  A    between atoms: O_12  and  C_13
REMARK   10  A    between atoms: C_17  and  C_18
REMARK   11  A    between atoms: C_18  and  N_19
REMARK                            x       y       z     vdW  Elec       q    Type
REMARK                         _______ _______ _______ _____ _____    ______ ____
ROOT
ATOM      1  O   UNL     1       3.615   6.203  17.444  0.00  0.00    +0.000 OA
ENDROOT
BRANCH   1   2
ATOM      2  C   UNL     1       2.891   6.982  18.292  0.00  0.00    +0.000 A 
ATOM      3  C   UNL     1       2.614   6.588  19.619  0.00  0.00    +0.000 A 
ATOM      4  C   UNL     1       1.858   7.408  20.458  0.00  0.00    +0.000 A 
ATOM      5  C   UNL     1       1.367   8.626  19.991  0.00  0.00    +0.000 A 
ATOM      6  C   UNL     1       1.628   9.039  18.678  0.00  0.00    +0.000 A 
ATOM      7  C   UNL     1       2.395   8.213  17.833  0.00  0.00    +0.000 A 
BRANCH   6   8
ATOM      8  C   UNL     1       1.052  10.339  18.174  0.00  0.00    +0.000 C 
BRANCH   8   9
ATOM      9  N   UNL     1       1.488  11.515  18.967  0.00  0.00    +0.000 NA
ATOM     10  C   UNL     1       2.421  12.353  18.170  0.00  0.00    +0.000 C 
ATOM     11  C   UNL     1       2.783  13.656  18.900  0.00  0.00    +0.000 C 
ATOM     12  C   UNL     1       1.512  14.439  19.219  0.00  0.00    +0.000 C 
ATOM     13  C   UNL     1       0.621  13.573  20.104  0.00  0.00    +0.000 C 
ATOM     14  C   UNL     1       0.277  12.274  19.368  0.00  0.00    +0.000 C 
ENDBRANCH   8   9
ENDBRANCH   6   8
ENDBRANCH   1   2
BRANCH   1  15
ATOM     15  C   UNL     1       4.784   6.602  16.820  0.00  0.00    +0.000 C 
BRANCH  15  16
ATOM     16  C   UNL     1       6.001   6.285  17.686  0.00  0.00    +0.000 C 
BRANCH  16  17
ATOM     17  C   UNL     1       6.444   4.833  17.458  0.00  0.00    +0.000 C 
BRANCH  17  20
ATOM     18  C   UNL     1       4.921   3.400  18.739  0.00  0.00    +0.000 C 
ATOM     19  O   UNL     1       5.520   3.667  19.771  0.00  0.00    +0.000 OA
ATOM     20  N   UNL     1       5.319   3.923  17.549  0.00  0.00    +0.000 N 
ATOM     21  H   UNL     1       4.791   3.680  16.697  0.00  0.00    +0.000 HD
BRANCH  18  22
ATOM     22  C   UNL     1       3.708   2.510  18.798  0.00  0.00    +0.000 C 
BRANCH  22  23
ATOM     23  O   UNL     1       2.793   2.885  17.833  0.00  0.00    +0.000 OA
BRANCH  23  25
ATOM     24  C   UNL     1       0.853   2.981  19.343  0.00  0.00    +0.000 C 
ATOM     25  C   UNL     1       1.554   3.381  18.088  0.00  0.00    +0.000 C 
ATOM     26  O   UNL     1       1.001   4.134  17.297  0.00  0.00    +0.000 OA
ENDBRANCH  23  25
ENDBRANCH  22  23
ENDBRANCH  18  22
ENDBRANCH  17  20
ENDBRANCH  16  17
ENDBRANCH  15  16
ENDBRANCH   1  15
TORSDOF 10
ENDMDL
