MODEL 1
REMARK VINA RESULT:      -8.0      0.000      0.000
REMARK  Name = 
REMARK  4 active torsions:
REMARK  status: ('A' for Active; 'I' for Inactive)
REMARK    1  A    between atoms: C_1  and  N_2
REMARK    2  A    between atoms: C_4  and  C_5
REMARK    3  A    between atoms: C_9  and  C_10
REMARK    4  A    between atoms: C_13  and  C_14
REMARK                            x       y       z     vdW  Elec       q    Type
REMARK                         _______ _______ _______ _____ _____    ______ ____
ROOT
ATOM      1  C   UNL     1       1.866   7.037  20.237  0.00  0.00    +0.000 A 
ATOM      2  C   UNL     1       1.468   5.903  20.935  0.00  0.00    +0.000 A 
ATOM      3  N   UNL     1       1.864   4.647  20.634  0.00  0.00    +0.000 NA
ATOM      4  C   UNL     1       2.701   4.521  19.578  0.00  0.00    +0.000 A 
ATOM      5  C   UNL     1       3.161   5.570  18.776  0.00  0.00    +0.000 A 
ATOM      6  C   UNL     1       2.717   6.852  19.141  0.00  0.00    +0.000 A 
ENDROOT
BRANCH   1  10
ATOM      7  C   UNL     1       0.319  11.752  20.222  0.00  0.00    +0.000 C 
ATOM      8  N   UNL     1       0.743  10.436  20.632  0.00  0.00    +0.000 N 
ATOM      9  C   UNL     1       1.040   9.377  19.824  0.00  0.00    +0.000 A 
ATOM     10  C   UNL     1       1.436   8.353  20.660  0.00  0.00    +0.000 A 
ATOM     11  C   UNL     1       1.323   8.907  21.957  0.00  0.00    +0.000 A 
ATOM     12  N   UNL     1       0.899  10.172  21.941  0.00  0.00    +0.000 NA
ENDBRANCH   1  10
BRANCH   5  13
ATOM     13  C   UNL     1       4.042   5.335  17.613  0.00  0.00    +0.000 A 
ATOM     14  C   UNL     1       4.573   6.414  16.886  0.00  0.00    +0.000 A 
ATOM     15  C   UNL     1       5.413   6.224  15.783  0.00  0.00    +0.000 A 
ATOM     16  C   UNL     1       5.766   4.933  15.385  0.00  0.00    +0.000 A 
ATOM     17  C   UNL     1       5.247   3.844  16.093  0.00  0.00    +0.000 A 
ATOM     18  C   UNL     1       4.393   4.042  17.187  0.00  0.00    +0.000 A 
BRANCH  16  19
ATOM     19  C   UNL     1       6.686   4.663  14.244  0.00  0.00    +0.000 C 
ATOM     20  N   UNL     1       6.411   3.611  13.417  0.00  0.00    +0.000 N 
ATOM     21  O   UNL     1       7.666   5.370  14.034  0.00  0.00    +0.000 OA
ATOM     22  H   UNL     1       5.618   2.996  13.494  0.00  0.00    +0.000 HD
ATOM     23  H   UNL     1       7.039   3.473  12.636  0.00  0.00    +0.000 HD
ENDBRANCH  16  19
ENDBRANCH   5  13
TORSDOF 3
ENDMDL
MODEL 2
REMARK VINA RESULT:      -8.0      0.061      1.050
REMARK  Name = 
REMARK  4 active torsions:
REMARK  status: ('A' for Active; 'I' for Inactive)
REMARK    1  A    between atoms: C_1  and  N_2
REMARK    2  A    between atoms: C_4  and  C_5
REMARK    3  A    between atoms: C_9  and  C_10
REMARK    4  A    between atoms: C_13  and  C_14
REMARK                            x       y       z     vdW  Elec       q    Type
REMARK                         _______ _______ _______ _____ _____    ______ ____
ROOT
ATOM      1  C   UNL     1       1.851   7.038  20.257  0.00  0.00    +0.000 A 
ATOM      2  C   UNL     1       1.431   5.901  20.938  0.00  0.00    +0.000 A 
ATOM      3  N   UNL     1       1.826   4.645  20.635  0.00  0.00    +0.000 NA
ATOM      4  C   UNL     1       2.685   4.522  19.598  0.00  0.00    +0.000 A 
ATOM      5  C   UNL     1       3.168   5.574  18.814  0.00  0.00    +0.000 A 
ATOM      6  C   UNL     1       2.724   6.856  19.178  0.00  0.00    +0.000 A 
ENDROOT
BRANCH   1  10
ATOM      7  C   UNL     1       0.306  11.754  20.242  0.00  0.00    +0.000 C 
ATOM      8  N   UNL     1       0.727  10.436  20.653  0.00  0.00    +0.000 N 
ATOM      9  C   UNL     1       1.028   9.379  19.844  0.00  0.00    +0.000 A 
ATOM     10  C   UNL     1       1.419   8.353  20.680  0.00  0.00    +0.000 A 
ATOM     11  C   UNL     1       1.299   8.904  21.978  0.00  0.00    +0.000 A 
ATOM     12  N   UNL     1       0.876  10.170  21.962  0.00  0.00    +0.000 NA
ENDBRANCH   1  10
BRANCH   5  13
ATOM     13  C   UNL     1       4.073   5.342  17.668  0.00  0.00    +0.000 A 
ATOM     14  C   UNL     1       4.445   4.037  17.301  0.00  0.00    +0.000 A 
ATOM     15  C   UNL     1       5.296   3.785  16.220  0.00  0.00    +0.000 A 
ATOM     16  C   UNL     1       5.789   4.842  15.453  0.00  0.00    +0.000 A 
ATOM     17  C   UNL     1       5.434   6.150  15.802  0.00  0.00    +0.000 A 
ATOM     18  C   UNL     1       4.593   6.397  16.897  0.00  0.00    +0.000 A 
BRANCH  16  19
ATOM     19  C   UNL     1       6.668   4.640  14.267  0.00  0.00    +0.000 C 
ATOM     20  N   UNL     1       6.391   3.608  13.416  0.00  0.00    +0.000 N 
ATOM     21  O   UNL     1       7.616   5.384  14.042  0.00  0.00    +0.000 OA
ATOM     22  H   UNL     1       5.621   2.965  13.504  0.00  0.00    +0.000 HD
ATOM     23  H   UNL     1       6.989   3.516  12.605  0.00  0.00    +0.000 HD
ENDBRANCH  16  19
ENDBRANCH   5  13
TORSDOF 3
ENDMDL
MODEL 3
REMARK VINA RESULT:      -7.8      3.164      4.161
REMARK  Name = 
REMARK  4 active torsions:
REMARK  status: ('A' for Active; 'I' for Inactive)
REMARK    1  A    between atoms: C_1  and  N_2
REMARK    2  A    between atoms: C_4  and  C_5
REMARK    3  A    between atoms: C_9  and  C_10
REMARK    4  A    between atoms: C_13  and  C_14
REMARK                            x       y       z     vdW  Elec       q    Type
REMARK                         _______ _______ _______ _____ _____    ______ ____
ROOT
ATOM      1  C   UNL     1       0.969   9.411  20.316  0.00  0.00    +0.000 A 
ATOM      2  C   UNL     1       1.146  10.063  19.101  0.00  0.00    +0.000 A 
ATOM      3  N   UNL     1       1.769   9.521  18.032  0.00  0.00    +0.000 NA
ATOM      4  C   UNL     1       2.239   8.262  18.188  0.00  0.00    +0.000 A 
ATOM      5  C   UNL     1       2.151   7.502  19.358  0.00  0.00    +0.000 A 
ATOM      6  C   UNL     1       1.492   8.117  20.434  0.00  0.00    +0.000 A 
ENDROOT
BRANCH   1  10
ATOM      7  C   UNL     1      -1.549  12.702  23.045  0.00  0.00    +0.000 C 
ATOM      8  N   UNL     1      -0.877  11.512  22.584  0.00  0.00    +0.000 N 
ATOM      9  C   UNL     1      -0.314  11.307  21.358  0.00  0.00    +0.000 A 
ATOM     10  C   UNL     1       0.243  10.046  21.395  0.00  0.00    +0.000 A 
ATOM     11  C   UNL     1      -0.060   9.576  22.696  0.00  0.00    +0.000 A 
ATOM     12  N   UNL     1      -0.743  10.466  23.418  0.00  0.00    +0.000 NA
ENDBRANCH   1  10
BRANCH   5  13
ATOM     13  C   UNL     1       2.733   6.146  19.453  0.00  0.00    +0.000 A 
ATOM     14  C   UNL     1       2.217   5.206  20.362  0.00  0.00    +0.000 A 
ATOM     15  C   UNL     1       2.743   3.914  20.472  0.00  0.00    +0.000 A 
ATOM     16  C   UNL     1       3.800   3.515  19.652  0.00  0.00    +0.000 A 
ATOM     17  C   UNL     1       4.331   4.435  18.742  0.00  0.00    +0.000 A 
ATOM     18  C   UNL     1       3.809   5.733  18.647  0.00  0.00    +0.000 A 
BRANCH  16  19
ATOM     19  C   UNL     1       4.380   2.143  19.692  0.00  0.00    +0.000 C 
ATOM     20  N   UNL     1       4.129   1.295  18.651  0.00  0.00    +0.000 N 
ATOM     21  O   UNL     1       5.081   1.775  20.629  0.00  0.00    +0.000 OA
ATOM     22  H   UNL     1       3.591   1.518  17.830  0.00  0.00    +0.000 HD
ATOM     23  H   UNL     1       4.562   0.381  18.696  0.00  0.00    +0.000 HD
ENDBRANCH  16  19
ENDBRANCH   5  13
TORSDOF 3
ENDMDL
MODEL 4
REMARK VINA RESULT:      -7.8      2.814      7.812
REMARK  Name = 
REMARK  4 active torsions:
REMARK  status: ('A' for Active; 'I' for Inactive)
REMARK    1  A    between atoms: C_1  and  N_2
REMARK    2  A    between atoms: C_4  and  C_5
REMARK    3  A    between atoms: C_9  and  C_10
REMARK    4  A    between atoms: C_13  and  C_14
REMARK                            x       y       z     vdW  Elec       q    Type
REMARK                         _______ _______ _______ _____ _____    ______ ____
ROOT
ATOM      1  C   UNL     1       4.669   4.709  16.731  0.00  0.00    +0.000 A 
ATOM      2  C   UNL     1       4.280   3.495  17.285  0.00  0.00    +0.000 A 
ATOM      3  N   UNL     1       3.341   3.366  18.247  0.00  0.00    +0.000 NA
ATOM      4  C   UNL     1       2.762   4.511  18.676  0.00  0.00    +0.000 A 
ATOM      5  C   UNL     1       3.073   5.797  18.224  0.00  0.00    +0.000 A 
ATOM      6  C   UNL     1       4.055   5.867  17.222  0.00  0.00    +0.000 A 
ENDROOT
BRANCH   1  10
ATOM      7  C   UNL     1       6.989   4.059  12.392  0.00  0.00    +0.000 C 
ATOM      8  N   UNL     1       6.655   4.463  13.736  0.00  0.00    +0.000 N 
ATOM      9  C   UNL     1       5.492   4.214  14.405  0.00  0.00    +0.000 A 
ATOM     10  C   UNL     1       5.648   4.754  15.665  0.00  0.00    +0.000 A 
ATOM     11  C   UNL     1       6.946   5.318  15.637  0.00  0.00    +0.000 A 
ATOM     12  N   UNL     1       7.557   5.144  14.464  0.00  0.00    +0.000 NA
ENDBRANCH   1  10
BRANCH   5  13
ATOM     13  C   UNL     1       2.419   6.999  18.781  0.00  0.00    +0.000 A 
ATOM     14  C   UNL     1       2.063   7.057  20.140  0.00  0.00    +0.000 A 
ATOM     15  C   UNL     1       1.447   8.182  20.698  0.00  0.00    +0.000 A 
ATOM     16  C   UNL     1       1.185   9.303  19.908  0.00  0.00    +0.000 A 
ATOM     17  C   UNL     1       1.527   9.266  18.552  0.00  0.00    +0.000 A 
ATOM     18  C   UNL     1       2.131   8.129  17.996  0.00  0.00    +0.000 A 
BRANCH  16  19
ATOM     19  C   UNL     1       0.566  10.546  20.449  0.00  0.00    +0.000 C 
ATOM     20  N   UNL     1      -0.558  11.034  19.844  0.00  0.00    +0.000 N 
ATOM     21  O   UNL     1       1.039  11.122  21.423  0.00  0.00    +0.000 OA
ATOM     22  H   UNL     1      -1.032  10.615  19.061  0.00  0.00    +0.000 HD
ATOM     23  H   UNL     1      -0.969  11.863  20.254  0.00  0.00    +0.000 HD
ENDBRANCH  16  19
ENDBRANCH   5  13
TORSDOF 3
ENDMDL
MODEL 5
REMARK VINA RESULT:      -7.8      3.123      3.999
REMARK  Name = 
REMARK  4 active torsions:
REMARK  status: ('A' for Active; 'I' for Inactive)
REMARK    1  A    between atoms: C_1  and  N_2
REMARK    2  A    between atoms: C_4  and  C_5
REMARK    3  A    between atoms: C_9  and  C_10
REMARK    4  A    between atoms: C_13  and  C_14
REMARK                            x       y       z     vdW  Elec       q    Type
REMARK                         _______ _______ _______ _____ _____    ______ ____
ROOT
ATOM      1  C   UNL     1       1.134   9.321  20.119  0.00  0.00    +0.000 A 
ATOM      2  C   UNL     1       1.270   9.934  18.880  0.00  0.00    +0.000 A 
ATOM      3  N   UNL     1       1.829   9.348  17.799  0.00  0.00    +0.000 NA
ATOM      4  C   UNL     1       2.276   8.082  17.969  0.00  0.00    +0.000 A 
ATOM      5  C   UNL     1       2.225   7.356  19.163  0.00  0.00    +0.000 A 
ATOM      6  C   UNL     1       1.630   8.018  20.250  0.00  0.00    +0.000 A 
ENDROOT
BRANCH   1  10
ATOM      7  C   UNL     1      -1.199  12.738  22.859  0.00  0.00    +0.000 C 
ATOM      8  N   UNL     1      -0.564  11.524  22.406  0.00  0.00    +0.000 N 
ATOM      9  C   UNL     1      -0.071  11.268  21.159  0.00  0.00    +0.000 A 
ATOM     10  C   UNL     1       0.475  10.003  21.213  0.00  0.00    +0.000 A 
ATOM     11  C   UNL     1       0.239   9.584  22.544  0.00  0.00    +0.000 A 
ATOM     12  N   UNL     1      -0.395  10.507  23.269  0.00  0.00    +0.000 NA
ENDBRANCH   1  10
BRANCH   5  13
ATOM     13  C   UNL     1       2.777   5.990  19.269  0.00  0.00    +0.000 A 
ATOM     14  C   UNL     1       3.972   5.646  18.612  0.00  0.00    +0.000 A 
ATOM     15  C   UNL     1       4.522   4.363  18.697  0.00  0.00    +0.000 A 
ATOM     16  C   UNL     1       3.897   3.381  19.468  0.00  0.00    +0.000 A 
ATOM     17  C   UNL     1       2.706   3.700  20.128  0.00  0.00    +0.000 A 
ATOM     18  C   UNL     1       2.151   4.983  20.026  0.00  0.00    +0.000 A 
BRANCH  16  19
ATOM     19  C   UNL     1       4.451   2.007  19.630  0.00  0.00    +0.000 C 
ATOM     20  N   UNL     1       4.179   1.074  18.670  0.00  0.00    +0.000 N 
ATOM     21  O   UNL     1       5.148   1.710  20.595  0.00  0.00    +0.000 OA
ATOM     22  H   UNL     1       3.642   1.232  17.833  0.00  0.00    +0.000 HD
ATOM     23  H   UNL     1       4.594   0.160  18.796  0.00  0.00    +0.000 HD
ENDBRANCH  16  19
ENDBRANCH   5  13
TORSDOF 3
ENDMDL
MODEL 6
REMARK VINA RESULT:      -7.7      0.643      1.454
REMARK  Name = 
REMARK  4 active torsions:
REMARK  status: ('A' for Active; 'I' for Inactive)
REMARK    1  A    between atoms: C_1  and  N_2
REMARK    2  A    between atoms: C_4  and  C_5
REMARK    3  A    between atoms: C_9  and  C_10
REMARK    4  A    between atoms: C_13  and  C_14
REMARK                            x       y       z     vdW  Elec       q    Type
REMARK                         _______ _______ _______ _____ _____    ______ ____
ROOT
ATOM      1  C   UNL     1       1.888   6.999  20.134  0.00  0.00    +0.000 A 
ATOM      2  C   UNL     1       1.669   5.897  20.951  0.00  0.00    +0.000 A 
ATOM      3  N   UNL     1       2.229   4.684  20.757  0.00  0.00    +0.000 NA
ATOM      4  C   UNL     1       3.050   4.568  19.688  0.00  0.00    +0.000 A 
ATOM      5  C   UNL     1       3.339   5.585  18.772  0.00  0.00    +0.000 A 
ATOM      6  C   UNL     1       2.730   6.824  19.028  0.00  0.00    +0.000 A 
ENDROOT
BRANCH   1  10
ATOM      7  C   UNL     1      -0.413  10.712  22.490  0.00  0.00    +0.000 C 
ATOM      8  N   UNL     1       0.276   9.913  21.505  0.00  0.00    +0.000 N 
ATOM      9  C   UNL     1       0.745   8.641  21.660  0.00  0.00    +0.000 A 
ATOM     10  C   UNL     1       1.288   8.280  20.444  0.00  0.00    +0.000 A 
ATOM     11  C   UNL     1       1.102   9.424  19.633  0.00  0.00    +0.000 A 
ATOM     12  N   UNL     1       0.489  10.418  20.278  0.00  0.00    +0.000 NA
ENDBRANCH   1  10
BRANCH   5  13
ATOM     13  C   UNL     1       4.217   5.357  17.605  0.00  0.00    +0.000 A 
ATOM     14  C   UNL     1       4.660   4.062  17.283  0.00  0.00    +0.000 A 
ATOM     15  C   UNL     1       5.487   3.813  16.182  0.00  0.00    +0.000 A 
ATOM     16  C   UNL     1       5.882   4.863  15.351  0.00  0.00    +0.000 A 
ATOM     17  C   UNL     1       5.456   6.160  15.654  0.00  0.00    +0.000 A 
ATOM     18  C   UNL     1       4.640   6.404  16.768  0.00  0.00    +0.000 A 
BRANCH  16  19
ATOM     19  C   UNL     1       6.731   4.661  14.142  0.00  0.00    +0.000 C 
ATOM     20  N   UNL     1       6.416   3.646  13.284  0.00  0.00    +0.000 N 
ATOM     21  O   UNL     1       7.687   5.391  13.905  0.00  0.00    +0.000 OA
ATOM     22  H   UNL     1       5.636   3.016  13.381  0.00  0.00    +0.000 HD
ATOM     23  H   UNL     1       6.994   3.554  12.459  0.00  0.00    +0.000 HD
ENDBRANCH  16  19
ENDBRANCH   5  13
TORSDOF 3
ENDMDL
MODEL 7
REMARK VINA RESULT:      -7.7      0.666      1.032
REMARK  Name = 
REMARK  4 active torsions:
REMARK  status: ('A' for Active; 'I' for Inactive)
REMARK    1  A    between atoms: C_1  and  N_2
REMARK    2  A    between atoms: C_4  and  C_5
REMARK    3  A    between atoms: C_9  and  C_10
REMARK    4  A    between atoms: C_13  and  C_14
REMARK                            x       y       z     vdW  Elec       q    Type
REMARK                         _______ _______ _______ _____ _____    ______ ____
ROOT
ATOM      1  C   UNL     1       1.906   6.897  20.120  0.00  0.00    +0.000 A 
ATOM      2  C   UNL     1       1.713   5.788  20.936  0.00  0.00    +0.000 A 
ATOM      3  N   UNL     1       2.286   4.583  20.729  0.00  0.00    +0.000 NA
ATOM      4  C   UNL     1       3.093   4.482  19.647  0.00  0.00    +0.000 A 
ATOM      5  C   UNL     1       3.355   5.506  18.731  0.00  0.00    +0.000 A 
ATOM      6  C   UNL     1       2.733   6.736  19.001  0.00  0.00    +0.000 A 
ENDROOT
BRANCH   1  10
ATOM      7  C   UNL     1      -0.392  10.576  22.529  0.00  0.00    +0.000 C 
ATOM      8  N   UNL     1       0.284   9.787  21.529  0.00  0.00    +0.000 N 
ATOM      9  C   UNL     1       0.777   8.522  21.672  0.00  0.00    +0.000 A 
ATOM     10  C   UNL     1       1.294   8.168  20.443  0.00  0.00    +0.000 A 
ATOM     11  C   UNL     1       1.070   9.308  19.636  0.00  0.00    +0.000 A 
ATOM     12  N   UNL     1       0.458  10.293  20.296  0.00  0.00    +0.000 NA
ENDBRANCH   1  10
BRANCH   5  13
ATOM     13  C   UNL     1       4.217   5.293  17.550  0.00  0.00    +0.000 A 
ATOM     14  C   UNL     1       4.639   6.381  16.766  0.00  0.00    +0.000 A 
ATOM     15  C   UNL     1       5.460   6.213  15.645  0.00  0.00    +0.000 A 
ATOM     16  C   UNL     1       5.903   4.938  15.285  0.00  0.00    +0.000 A 
ATOM     17  C   UNL     1       5.493   3.841  16.049  0.00  0.00    +0.000 A 
ATOM     18  C   UNL     1       4.658   4.015  17.162  0.00  0.00    +0.000 A 
BRANCH  16  19
ATOM     19  C   UNL     1       6.808   4.695  14.125  0.00  0.00    +0.000 C 
ATOM     20  N   UNL     1       6.533   3.651  13.289  0.00  0.00    +0.000 N 
ATOM     21  O   UNL     1       7.775   5.417  13.910  0.00  0.00    +0.000 OA
ATOM     22  H   UNL     1       5.749   3.024  13.370  0.00  0.00    +0.000 HD
ATOM     23  H   UNL     1       7.150   3.531  12.496  0.00  0.00    +0.000 HD
ENDBRANCH  16  19
ENDBRANCH   5  13
TORSDOF 3
ENDMDL
MODEL 8
REMARK VINA RESULT:      -7.7      2.852      7.792
REMARK  Name = 
REMARK  4 active torsions:
REMARK  status: ('A' for Active; 'I' for Inactive)
REMARK    1  A    between atoms: C_1  and  N_2
REMARK    2  A    between atoms: C_4  and  C_5
REMARK    3  A    between atoms: C_9  and  C_10
REMARK    4  A    between atoms: C_13  and  C_14
REMARK                            x       y       z     vdW  Elec       q    Type
REMARK                         _______ _______ _______ _____ _____    ______ ____
ROOT
ATOM      1  C   UNL     1       4.733   4.805  16.809  0.00  0.00    +0.000 A 
ATOM      2  C   UNL     1       4.412   3.629  17.477  0.00  0.00    +0.000 A 
ATOM      3  N   UNL     1       3.506   3.546  18.475  0.00  0.00    +0.000 NA
ATOM      4  C   UNL     1       2.890   4.700  18.822  0.00  0.00    +0.000 A 
ATOM      5  C   UNL     1       3.133   5.954  18.252  0.00  0.00    +0.000 A 
ATOM      6  C   UNL     1       4.084   5.976  17.218  0.00  0.00    +0.000 A 
ENDROOT
BRANCH   1  10
ATOM      7  C   UNL     1       6.905   3.979  12.424  0.00  0.00    +0.000 C 
ATOM      8  N   UNL     1       6.620   4.428  13.765  0.00  0.00    +0.000 N 
ATOM      9  C   UNL     1       5.473   4.226  14.475  0.00  0.00    +0.000 A 
ATOM     10  C   UNL     1       5.680   4.797  15.714  0.00  0.00    +0.000 A 
ATOM     11  C   UNL     1       6.988   5.330  15.630  0.00  0.00    +0.000 A 
ATOM     12  N   UNL     1       7.560   5.108  14.445  0.00  0.00    +0.000 NA
ENDBRANCH   1  10
BRANCH   5  13
ATOM     13  C   UNL     1       2.444   7.172  18.724  0.00  0.00    +0.000 A 
ATOM     14  C   UNL     1       2.177   8.233  17.841  0.00  0.00    +0.000 A 
ATOM     15  C   UNL     1       1.521   9.397  18.257  0.00  0.00    +0.000 A 
ATOM     16  C   UNL     1       1.092   9.526  19.579  0.00  0.00    +0.000 A 
ATOM     17  C   UNL     1       1.349   8.484  20.476  0.00  0.00    +0.000 A 
ATOM     18  C   UNL     1       2.020   7.327  20.056  0.00  0.00    +0.000 A 
BRANCH  16  19
ATOM     19  C   UNL     1       0.356  10.723  20.076  0.00  0.00    +0.000 C 
ATOM     20  N   UNL     1       1.057  11.699  20.726  0.00  0.00    +0.000 N 
ATOM     21  O   UNL     1      -0.852  10.846  19.902  0.00  0.00    +0.000 OA
ATOM     22  H   UNL     1       2.050  11.698  20.889  0.00  0.00    +0.000 HD
ATOM     23  H   UNL     1       0.532  12.511  21.024  0.00  0.00    +0.000 HD
ENDBRANCH  16  19
ENDBRANCH   5  13
TORSDOF 3
ENDMDL
MODEL 9
REMARK VINA RESULT:      -7.7      2.840      7.781
REMARK  Name = 
REMARK  4 active torsions:
REMARK  status: ('A' for Active; 'I' for Inactive)
REMARK    1  A    between atoms: C_1  and  N_2
REMARK    2  A    between atoms: C_4  and  C_5
REMARK    3  A    between atoms: C_9  and  C_10
REMARK    4  A    between atoms: C_13  and  C_14
REMARK                            x       y       z     vdW  Elec       q    Type
REMARK                         _______ _______ _______ _____ _____    ______ ____
ROOT
ATOM      1  C   UNL     1       4.773   5.202  17.403  0.00  0.00    +0.000 A 
ATOM      2  C   UNL     1       4.690   4.203  18.366  0.00  0.00    +0.000 A 
ATOM      3  N   UNL     1       3.886   4.256  19.449  0.00  0.00    +0.000 NA
ATOM      4  C   UNL     1       3.124   5.368  19.575  0.00  0.00    +0.000 A 
ATOM      5  C   UNL     1       3.125   6.456  18.697  0.00  0.00    +0.000 A 
ATOM      6  C   UNL     1       3.980   6.342  17.589  0.00  0.00    +0.000 A 
ENDROOT
BRANCH   1  10
ATOM      7  C   UNL     1       6.553   3.821  12.982  0.00  0.00    +0.000 C 
ATOM      8  N   UNL     1       6.391   4.428  14.281  0.00  0.00    +0.000 N 
ATOM      9  C   UNL     1       5.303   4.342  15.100  0.00  0.00    +0.000 A 
ATOM     10  C   UNL     1       5.624   5.042  16.244  0.00  0.00    +0.000 A 
ATOM     11  C   UNL     1       6.932   5.523  15.994  0.00  0.00    +0.000 A 
ATOM     12  N   UNL     1       7.397   5.152  14.801  0.00  0.00    +0.000 NA
ENDBRANCH   1  10
BRANCH   5  13
ATOM     13  C   UNL     1       2.290   7.652  18.937  0.00  0.00    +0.000 A 
ATOM     14  C   UNL     1       1.757   7.911  20.212  0.00  0.00    +0.000 A 
ATOM     15  C   UNL     1       0.968   9.036  20.471  0.00  0.00    +0.000 A 
ATOM     16  C   UNL     1       0.702   9.956  19.455  0.00  0.00    +0.000 A 
ATOM     17  C   UNL     1       1.219   9.717  18.178  0.00  0.00    +0.000 A 
ATOM     18  C   UNL     1       1.997   8.579  17.921  0.00  0.00    +0.000 A 
BRANCH  16  19
ATOM     19  C   UNL     1      -0.100  11.193  19.674  0.00  0.00    +0.000 C 
ATOM     20  N   UNL     1      -0.075  11.779  20.908  0.00  0.00    +0.000 N 
ATOM     21  O   UNL     1      -0.763  11.691  18.771  0.00  0.00    +0.000 OA
ATOM     22  H   UNL     1       0.460  11.459  21.699  0.00  0.00    +0.000 HD
ATOM     23  H   UNL     1      -0.607  12.633  21.015  0.00  0.00    +0.000 HD
ENDBRANCH  16  19
ENDBRANCH   5  13
TORSDOF 3
ENDMDL
