MODEL 1
REMARK VINA RESULT:      -4.6      0.000      0.000
REMARK  Name = 
REMARK  5 active torsions:
REMARK  status: ('A' for Active; 'I' for Inactive)
REMARK    1  A    between atoms: S_1  and  C_2
REMARK    2  A    between atoms: C_2  and  C_3
REMARK    3  A    between atoms: C_3  and  N_4
REMARK    4  A    between atoms: N_4  and  C_5
REMARK    5  A    between atoms: C_5  and  C_6
REMARK                            x       y       z     vdW  Elec       q    Type
REMARK                         _______ _______ _______ _____ _____    ______ ____
ROOT
ATOM      1  C   UNL     1       4.656   4.708  19.399  0.00  0.00    +0.000 C 
ENDROOT
BRANCH   1   2
ATOM      2  C   UNL     1       3.277   4.080  19.482  0.00  0.00    +0.000 A 
ATOM      3  C   UNL     1       2.322   4.597  20.357  0.00  0.00    +0.000 A 
ATOM      4  C   UNL     1       1.073   3.986  20.429  0.00  0.00    +0.000 A 
ATOM      5  C   UNL     1       0.811   2.879  19.634  0.00  0.00    +0.000 A 
ATOM      6  C   UNL     1       1.811   2.429  18.788  0.00  0.00    +0.000 A 
ATOM      7  N   UNL     1       3.032   3.003  18.692  0.00  0.00    +0.000 NA
ENDBRANCH   1   2
BRANCH   1   8
ATOM      8  N   UNL     1       5.639   3.823  18.751  0.00  0.00    +0.000 NA
ATOM      9  H   UNL     1       6.213   3.413  19.490  0.00  0.00    +0.000 HD
BRANCH   8  10
ATOM     10  C   UNL     1       6.493   4.593  17.836  0.00  0.00    +0.000 C 
BRANCH  10  11
ATOM     11  C   UNL     1       6.030   6.052  17.770  0.00  0.00    +0.000 C 
BRANCH  11  12
ATOM     12  S   UNL     1       7.452   7.171  17.578  0.00  0.00    +0.000 S 
ATOM     13  H   UNL     1       8.355   6.365  18.153  0.00  0.00    +0.000 HD
ENDBRANCH  11  12
ENDBRANCH  10  11
ENDBRANCH   8  10
ENDBRANCH   1   8
TORSDOF 5
ENDMDL
MODEL 2
REMARK VINA RESULT:      -4.5      1.144      1.245
REMARK  Name = 
REMARK  5 active torsions:
REMARK  status: ('A' for Active; 'I' for Inactive)
REMARK    1  A    between atoms: S_1  and  C_2
REMARK    2  A    between atoms: C_2  and  C_3
REMARK    3  A    between atoms: C_3  and  N_4
REMARK    4  A    between atoms: N_4  and  C_5
REMARK    5  A    between atoms: C_5  and  C_6
REMARK                            x       y       z     vdW  Elec       q    Type
REMARK                         _______ _______ _______ _____ _____    ______ ____
ROOT
ATOM      1  C   UNL     1       4.759   4.781  19.301  0.00  0.00    +0.000 C 
ENDROOT
BRANCH   1   2
ATOM      2  C   UNL     1       3.401   4.106  19.277  0.00  0.00    +0.000 A 
ATOM      3  C   UNL     1       2.421   4.469  20.200  0.00  0.00    +0.000 A 
ATOM      4  C   UNL     1       1.192   3.817  20.170  0.00  0.00    +0.000 A 
ATOM      5  C   UNL     1       0.972   2.822  19.227  0.00  0.00    +0.000 A 
ATOM      6  C   UNL     1       1.996   2.524  18.342  0.00  0.00    +0.000 A 
ATOM      7  N   UNL     1       3.198   3.142  18.344  0.00  0.00    +0.000 NA
ENDBRANCH   1   2
BRANCH   1   8
ATOM      8  N   UNL     1       5.805   3.964  18.662  0.00  0.00    +0.000 NA
ATOM      9  H   UNL     1       6.246   3.406  19.396  0.00  0.00    +0.000 HD
BRANCH   8  10
ATOM     10  C   UNL     1       6.812   4.827  18.030  0.00  0.00    +0.000 C 
BRANCH  10  11
ATOM     11  C   UNL     1       6.963   4.478  16.546  0.00  0.00    +0.000 C 
BRANCH  11  12
ATOM     12  S   UNL     1       5.631   5.235  15.566  0.00  0.00    +0.000 S 
ATOM     13  H   UNL     1       5.463   4.209  14.722  0.00  0.00    +0.000 HD
ENDBRANCH  11  12
ENDBRANCH  10  11
ENDBRANCH   8  10
ENDBRANCH   1   8
TORSDOF 5
ENDMDL
MODEL 3
REMARK VINA RESULT:      -4.5      2.726      5.385
REMARK  Name = 
REMARK  5 active torsions:
REMARK  status: ('A' for Active; 'I' for Inactive)
REMARK    1  A    between atoms: S_1  and  C_2
REMARK    2  A    between atoms: C_2  and  C_3
REMARK    3  A    between atoms: C_3  and  N_4
REMARK    4  A    between atoms: N_4  and  C_5
REMARK    5  A    between atoms: C_5  and  C_6
REMARK                            x       y       z     vdW  Elec       q    Type
REMARK                         _______ _______ _______ _____ _____    ______ ____
ROOT
ATOM      1  C   UNL     1       4.817   3.790  18.145  0.00  0.00    +0.000 C 
ENDROOT
BRANCH   1   2
ATOM      2  C   UNL     1       5.875   4.875  18.209  0.00  0.00    +0.000 A 
ATOM      3  C   UNL     1       5.897   5.892  17.255  0.00  0.00    +0.000 A 
ATOM      4  C   UNL     1       6.894   6.861  17.325  0.00  0.00    +0.000 A 
ATOM      5  C   UNL     1       7.842   6.790  18.337  0.00  0.00    +0.000 A 
ATOM      6  C   UNL     1       7.748   5.751  19.248  0.00  0.00    +0.000 A 
ATOM      7  N   UNL     1       6.790   4.797  19.209  0.00  0.00    +0.000 NA
ENDBRANCH   1   2
BRANCH   1   8
ATOM      8  N   UNL     1       4.901   2.853  19.278  0.00  0.00    +0.000 NA
ATOM      9  H   UNL     1       5.543   2.106  19.008  0.00  0.00    +0.000 HD
BRANCH   8  10
ATOM     10  C   UNL     1       3.578   2.284  19.569  0.00  0.00    +0.000 C 
BRANCH  10  11
ATOM     11  C   UNL     1       2.581   3.393  19.917  0.00  0.00    +0.000 C 
BRANCH  11  12
ATOM     12  S   UNL     1       2.192   3.375  21.695  0.00  0.00    +0.000 S 
ATOM     13  H   UNL     1       0.984   3.944  21.590  0.00  0.00    +0.000 HD
ENDBRANCH  11  12
ENDBRANCH  10  11
ENDBRANCH   8  10
ENDBRANCH   1   8
TORSDOF 5
ENDMDL
MODEL 4
REMARK VINA RESULT:      -4.5      2.993      5.376
REMARK  Name = 
REMARK  5 active torsions:
REMARK  status: ('A' for Active; 'I' for Inactive)
REMARK    1  A    between atoms: S_1  and  C_2
REMARK    2  A    between atoms: C_2  and  C_3
REMARK    3  A    between atoms: C_3  and  N_4
REMARK    4  A    between atoms: N_4  and  C_5
REMARK    5  A    between atoms: C_5  and  C_6
REMARK                            x       y       z     vdW  Elec       q    Type
REMARK                         _______ _______ _______ _____ _____    ______ ____
ROOT
ATOM      1  C   UNL     1       4.822   4.027  18.858  0.00  0.00    +0.000 C 
ENDROOT
BRANCH   1   2
ATOM      2  C   UNL     1       5.824   5.123  18.549  0.00  0.00    +0.000 A 
ATOM      3  C   UNL     1       5.572   6.036  17.525  0.00  0.00    +0.000 A 
ATOM      4  C   UNL     1       6.520   7.017  17.248  0.00  0.00    +0.000 A 
ATOM      5  C   UNL     1       7.691   7.061  17.992  0.00  0.00    +0.000 A 
ATOM      6  C   UNL     1       7.864   6.121  18.994  0.00  0.00    +0.000 A 
ATOM      7  N   UNL     1       6.960   5.159  19.290  0.00  0.00    +0.000 NA
ENDBRANCH   1   2
BRANCH   1   8
ATOM      8  N   UNL     1       4.782   2.990  17.812  0.00  0.00    +0.000 NA
ATOM      9  H   UNL     1       4.867   3.464  16.911  0.00  0.00    +0.000 HD
BRANCH   8  10
ATOM     10  C   UNL     1       3.508   2.261  17.866  0.00  0.00    +0.000 C 
BRANCH  10  11
ATOM     11  C   UNL     1       2.328   3.237  17.821  0.00  0.00    +0.000 C 
BRANCH  11  12
ATOM     12  S   UNL     1       1.051   2.760  19.027  0.00  0.00    +0.000 S 
ATOM     13  H   UNL     1       1.733   3.126  20.120  0.00  0.00    +0.000 HD
ENDBRANCH  11  12
ENDBRANCH  10  11
ENDBRANCH   8  10
ENDBRANCH   1   8
TORSDOF 5
ENDMDL
MODEL 5
REMARK VINA RESULT:      -4.5      1.567      1.829
REMARK  Name = 
REMARK  5 active torsions:
REMARK  status: ('A' for Active; 'I' for Inactive)
REMARK    1  A    between atoms: S_1  and  C_2
REMARK    2  A    between atoms: C_2  and  C_3
REMARK    3  A    between atoms: C_3  and  N_4
REMARK    4  A    between atoms: N_4  and  C_5
REMARK    5  A    between atoms: C_5  and  C_6
REMARK                            x       y       z     vdW  Elec       q    Type
REMARK                         _______ _______ _______ _____ _____    ______ ____
ROOT
ATOM      1  C   UNL     1       3.875   2.962  17.920  0.00  0.00    +0.000 C 
ENDROOT
BRANCH   1   2
ATOM      2  C   UNL     1       2.953   2.970  19.125  0.00  0.00    +0.000 A 
ATOM      3  C   UNL     1       1.625   3.373  18.990  0.00  0.00    +0.000 A 
ATOM      4  C   UNL     1       0.809   3.393  20.117  0.00  0.00    +0.000 A 
ATOM      5  C   UNL     1       1.335   3.015  21.345  0.00  0.00    +0.000 A 
ATOM      6  C   UNL     1       2.662   2.623  21.394  0.00  0.00    +0.000 A 
ATOM      7  N   UNL     1       3.479   2.589  20.316  0.00  0.00    +0.000 NA
ENDBRANCH   1   2
BRANCH   1   8
ATOM      8  N   UNL     1       5.146   3.661  18.179  0.00  0.00    +0.000 NA
ATOM      9  H   UNL     1       5.492   3.338  19.084  0.00  0.00    +0.000 HD
BRANCH   8  10
ATOM     10  C   UNL     1       4.929   5.113  18.224  0.00  0.00    +0.000 C 
BRANCH  10  11
ATOM     11  C   UNL     1       5.983   5.840  17.383  0.00  0.00    +0.000 C 
BRANCH  11  12
ATOM     12  S   UNL     1       7.044   4.648  16.510  0.00  0.00    +0.000 S 
ATOM     13  H   UNL     1       6.097   4.177  15.688  0.00  0.00    +0.000 HD
ENDBRANCH  11  12
ENDBRANCH  10  11
ENDBRANCH   8  10
ENDBRANCH   1   8
TORSDOF 5
ENDMDL
MODEL 6
REMARK VINA RESULT:      -4.5      2.821      5.358
REMARK  Name = 
REMARK  5 active torsions:
REMARK  status: ('A' for Active; 'I' for Inactive)
REMARK    1  A    between atoms: S_1  and  C_2
REMARK    2  A    between atoms: C_2  and  C_3
REMARK    3  A    between atoms: C_3  and  N_4
REMARK    4  A    between atoms: N_4  and  C_5
REMARK    5  A    between atoms: C_5  and  C_6
REMARK                            x       y       z     vdW  Elec       q    Type
REMARK                         _______ _______ _______ _____ _____    ______ ____
ROOT
ATOM      1  C   UNL     1       4.871   4.424  19.482  0.00  0.00    +0.000 C 
ENDROOT
BRANCH   1   2
ATOM      2  C   UNL     1       5.801   5.398  18.784  0.00  0.00    +0.000 A 
ATOM      3  C   UNL     1       7.101   5.587  19.255  0.00  0.00    +0.000 A 
ATOM      4  C   UNL     1       7.925   6.505  18.609  0.00  0.00    +0.000 A 
ATOM      5  C   UNL     1       7.435   7.209  17.518  0.00  0.00    +0.000 A 
ATOM      6  C   UNL     1       6.135   6.960  17.109  0.00  0.00    +0.000 A 
ATOM      7  N   UNL     1       5.312   6.072  17.713  0.00  0.00    +0.000 NA
ENDBRANCH   1   2
BRANCH   1   8
ATOM      8  N   UNL     1       5.087   3.032  19.051  0.00  0.00    +0.000 NA
ATOM      9  H   UNL     1       5.583   3.063  18.158  0.00  0.00    +0.000 HD
BRANCH   8  10
ATOM     10  C   UNL     1       3.799   2.348  18.874  0.00  0.00    +0.000 C 
BRANCH  10  11
ATOM     11  C   UNL     1       2.870   2.636  20.058  0.00  0.00    +0.000 C 
BRANCH  11  12
ATOM     12  S   UNL     1       1.202   3.073  19.477  0.00  0.00    +0.000 S 
ATOM     13  H   UNL     1       0.750   3.533  20.651  0.00  0.00    +0.000 HD
ENDBRANCH  11  12
ENDBRANCH  10  11
ENDBRANCH   8  10
ENDBRANCH   1   8
TORSDOF 5
ENDMDL
MODEL 7
REMARK VINA RESULT:      -4.5      1.744      1.916
REMARK  Name = 
REMARK  5 active torsions:
REMARK  status: ('A' for Active; 'I' for Inactive)
REMARK    1  A    between atoms: S_1  and  C_2
REMARK    2  A    between atoms: C_2  and  C_3
REMARK    3  A    between atoms: C_3  and  N_4
REMARK    4  A    between atoms: N_4  and  C_5
REMARK    5  A    between atoms: C_5  and  C_6
REMARK                            x       y       z     vdW  Elec       q    Type
REMARK                         _______ _______ _______ _____ _____    ______ ____
ROOT
ATOM      1  C   UNL     1       5.257   5.193  18.650  0.00  0.00    +0.000 C 
ENDROOT
BRANCH   1   2
ATOM      2  C   UNL     1       4.116   4.588  19.447  0.00  0.00    +0.000 A 
ATOM      3  C   UNL     1       3.084   5.399  19.920  0.00  0.00    +0.000 A 
ATOM      4  C   UNL     1       2.063   4.821  20.669  0.00  0.00    +0.000 A 
ATOM      5  C   UNL     1       2.097   3.458  20.928  0.00  0.00    +0.000 A 
ATOM      6  C   UNL     1       3.154   2.722  20.419  0.00  0.00    +0.000 A 
ATOM      7  N   UNL     1       4.159   3.253  19.685  0.00  0.00    +0.000 NA
ENDBRANCH   1   2
BRANCH   1   8
ATOM      8  N   UNL     1       6.393   4.267  18.502  0.00  0.00    +0.000 NA
ATOM      9  H   UNL     1       7.055   4.474  19.253  0.00  0.00    +0.000 HD
BRANCH   8  10
ATOM     10  C   UNL     1       7.047   4.465  17.202  0.00  0.00    +0.000 C 
BRANCH  10  11
ATOM     11  C   UNL     1       6.099   4.086  16.060  0.00  0.00    +0.000 C 
BRANCH  11  12
ATOM     12  S   UNL     1       6.719   4.717  14.471  0.00  0.00    +0.000 S 
ATOM     13  H   UNL     1       5.549   5.204  14.036  0.00  0.00    +0.000 HD
ENDBRANCH  11  12
ENDBRANCH  10  11
ENDBRANCH   8  10
ENDBRANCH   1   8
TORSDOF 5
ENDMDL
MODEL 8
REMARK VINA RESULT:      -4.4      1.383      1.887
REMARK  Name = 
REMARK  5 active torsions:
REMARK  status: ('A' for Active; 'I' for Inactive)
REMARK    1  A    between atoms: S_1  and  C_2
REMARK    2  A    between atoms: C_2  and  C_3
REMARK    3  A    between atoms: C_3  and  N_4
REMARK    4  A    between atoms: N_4  and  C_5
REMARK    5  A    between atoms: C_5  and  C_6
REMARK                            x       y       z     vdW  Elec       q    Type
REMARK                         _______ _______ _______ _____ _____    ______ ____
ROOT
ATOM      1  C   UNL     1       4.394   3.680  17.970  0.00  0.00    +0.000 C 
ENDROOT
BRANCH   1   2
ATOM      2  C   UNL     1       3.180   3.774  18.876  0.00  0.00    +0.000 A 
ATOM      3  C   UNL     1       2.098   2.913  18.691  0.00  0.00    +0.000 A 
ATOM      4  C   UNL     1       0.989   3.038  19.522  0.00  0.00    +0.000 A 
ATOM      5  C   UNL     1       0.983   4.014  20.509  0.00  0.00    +0.000 A 
ATOM      6  C   UNL     1       2.099   4.826  20.631  0.00  0.00    +0.000 A 
ATOM      7  N   UNL     1       3.194   4.727  19.842  0.00  0.00    +0.000 NA
ENDBRANCH   1   2
BRANCH   1   8
ATOM      8  N   UNL     1       5.661   3.780  18.715  0.00  0.00    +0.000 NA
ATOM      9  H   UNL     1       5.428   4.013  19.682  0.00  0.00    +0.000 HD
BRANCH   8  10
ATOM     10  C   UNL     1       6.506   4.837  18.143  0.00  0.00    +0.000 C 
BRANCH  10  11
ATOM     11  C   UNL     1       5.893   5.372  16.845  0.00  0.00    +0.000 C 
BRANCH  11  12
ATOM     12  S   UNL     1       6.806   4.753  15.399  0.00  0.00    +0.000 S 
ATOM     13  H   UNL     1       7.590   3.899  16.071  0.00  0.00    +0.000 HD
ENDBRANCH  11  12
ENDBRANCH  10  11
ENDBRANCH   8  10
ENDBRANCH   1   8
TORSDOF 5
ENDMDL
MODEL 9
REMARK VINA RESULT:      -4.4      1.644      1.839
REMARK  Name = 
REMARK  5 active torsions:
REMARK  status: ('A' for Active; 'I' for Inactive)
REMARK    1  A    between atoms: S_1  and  C_2
REMARK    2  A    between atoms: C_2  and  C_3
REMARK    3  A    between atoms: C_3  and  N_4
REMARK    4  A    between atoms: N_4  and  C_5
REMARK    5  A    between atoms: C_5  and  C_6
REMARK                            x       y       z     vdW  Elec       q    Type
REMARK                         _______ _______ _______ _____ _____    ______ ____
ROOT
ATOM      1  C   UNL     1       3.205   3.757  17.392  0.00  0.00    +0.000 C 
ENDROOT
BRANCH   1   2
ATOM      2  C   UNL     1       2.662   3.514  18.788  0.00  0.00    +0.000 A 
ATOM      3  C   UNL     1       1.376   3.937  19.125  0.00  0.00    +0.000 A 
ATOM      4  C   UNL     1       0.914   3.721  20.419  0.00  0.00    +0.000 A 
ATOM      5  C   UNL     1       1.741   3.096  21.343  0.00  0.00    +0.000 A 
ATOM      6  C   UNL     1       3.002   2.703  20.928  0.00  0.00    +0.000 A 
ATOM      7  N   UNL     1       3.479   2.894  19.677  0.00  0.00    +0.000 NA
ENDBRANCH   1   2
BRANCH   1   8
ATOM      8  N   UNL     1       4.489   3.074  17.161  0.00  0.00    +0.000 NA
ATOM      9  H   UNL     1       4.929   2.935  18.073  0.00  0.00    +0.000 HD
BRANCH   8  10
ATOM     10  C   UNL     1       5.361   3.902  16.316  0.00  0.00    +0.000 C 
BRANCH  10  11
ATOM     11  C   UNL     1       5.807   5.157  17.071  0.00  0.00    +0.000 C 
BRANCH  11  12
ATOM     12  S   UNL     1       7.449   4.913  17.815  0.00  0.00    +0.000 S 
ATOM     13  H   UNL     1       7.045   4.973  19.092  0.00  0.00    +0.000 HD
ENDBRANCH  11  12
ENDBRANCH  10  11
ENDBRANCH   8  10
ENDBRANCH   1   8
TORSDOF 5
ENDMDL
