MODEL 1
REMARK VINA RESULT:      -8.3      0.000      0.000
REMARK  Name = 
REMARK  4 active torsions:
REMARK  status: ('A' for Active; 'I' for Inactive)
REMARK    1  A    between atoms: C_2  and  N_3
REMARK    2  A    between atoms: C_2  and  N_12
REMARK    3  A    between atoms: N_3  and  C_4
REMARK    4  A    between atoms: C_15  and  C_16
REMARK                            x       y       z     vdW  Elec       q    Type
REMARK                         _______ _______ _______ _____ _____    ______ ____
ROOT
ATOM      1  S   UNL     1       2.957   7.537  17.834  0.00  0.00    +0.000 S 
ATOM      2  C   UNL     1       4.116   6.439  18.379  0.00  0.00    +0.000 C 
ENDROOT
BRANCH   2   3
ATOM      3  N   UNL     1       5.165   5.986  17.573  0.00  0.00    +0.000 N 
ATOM      4  C   UNL     1       6.531   5.796  18.044  0.00  0.00    +0.000 C 
ATOM      5  C   UNL     1       7.237   5.139  16.894  0.00  0.00    +0.000 C 
ATOM      6  C   UNL     1       6.190   5.265  15.820  0.00  0.00    +0.000 C 
ATOM      7  N   UNL     1       5.024   5.689  16.224  0.00  0.00    +0.000 NA
BRANCH   6   8
ATOM      8  C   UNL     1       6.530   4.885  14.420  0.00  0.00    +0.000 A 
ATOM      9  C   UNL     1       7.602   5.496  13.767  0.00  0.00    +0.000 A 
ATOM     10  C   UNL     1       7.939   5.120  12.459  0.00  0.00    +0.000 A 
ATOM     11  C   UNL     1       7.209   4.127  11.803  0.00  0.00    +0.000 A 
ATOM     12  C   UNL     1       6.144   3.516  12.454  0.00  0.00    +0.000 A 
ATOM     13 CL   UNL     1       5.242   2.286  11.654  0.00  0.00    +0.000 Cl
ATOM     14  C   UNL     1       5.800   3.887  13.755  0.00  0.00    +0.000 A 
ENDBRANCH   6   8
ENDBRANCH   2   3
BRANCH   2  15
ATOM     15  N   UNL     1       4.139   5.917  19.661  0.00  0.00    +0.000 N 
ATOM     16  H   UNL     1       4.375   6.622  20.354  0.00  0.00    +0.000 HD
BRANCH  15  17
ATOM     17  C   UNL     1       3.414   4.704  20.093  0.00  0.00    +0.000 C 
ATOM     18  C   UNL     1       1.901   4.937  20.070  0.00  0.00    +0.000 C 
ATOM     19  C   UNL     1       1.082   3.858  20.786  0.00  0.00    +0.000 C 
ATOM     20  C   UNL     1       1.049   2.457  20.170  0.00  0.00    +0.000 C 
ATOM     21  C   UNL     1       0.909   2.418  18.650  0.00  0.00    +0.000 C 
ATOM     22  C   UNL     1       2.215   2.155  17.898  0.00  0.00    +0.000 C 
ATOM     23  C   UNL     1       3.279   3.257  17.932  0.00  0.00    +0.000 C 
ATOM     24  C   UNL     1       3.925   3.483  19.300  0.00  0.00    +0.000 C 
ENDBRANCH  15  17
ENDBRANCH   2  15
TORSDOF 4
ENDMDL
MODEL 2
REMARK VINA RESULT:      -8.1      1.664      2.393
REMARK  Name = 
REMARK  4 active torsions:
REMARK  status: ('A' for Active; 'I' for Inactive)
REMARK    1  A    between atoms: C_2  and  N_3
REMARK    2  A    between atoms: C_2  and  N_12
REMARK    3  A    between atoms: N_3  and  C_4
REMARK    4  A    between atoms: C_15  and  C_16
REMARK                            x       y       z     vdW  Elec       q    Type
REMARK                         _______ _______ _______ _____ _____    ______ ____
ROOT
ATOM      1  S   UNL     1       7.827   5.747  19.237  0.00  0.00    +0.000 S 
ATOM      2  C   UNL     1       6.413   5.107  18.577  0.00  0.00    +0.000 C 
ENDROOT
BRANCH   2   3
ATOM      3  N   UNL     1       6.054   5.292  17.238  0.00  0.00    +0.000 N 
ATOM      4  C   UNL     1       5.294   6.435  16.748  0.00  0.00    +0.000 C 
ATOM      5  C   UNL     1       5.315   6.289  15.254  0.00  0.00    +0.000 C 
ATOM      6  C   UNL     1       5.911   4.913  15.121  0.00  0.00    +0.000 C 
ATOM      7  N   UNL     1       6.367   4.393  16.228  0.00  0.00    +0.000 NA
BRANCH   6   8
ATOM      8  C   UNL     1       5.967   4.269  13.780  0.00  0.00    +0.000 A 
ATOM      9  C   UNL     1       7.200   3.961  13.199  0.00  0.00    +0.000 A 
ATOM     10  C   UNL     1       7.252   3.330  11.949  0.00  0.00    +0.000 A 
ATOM     11  C   UNL     1       6.074   2.998  11.278  0.00  0.00    +0.000 A 
ATOM     12  C   UNL     1       4.847   3.300  11.857  0.00  0.00    +0.000 A 
ATOM     13 CL   UNL     1       3.389   2.889  11.039  0.00  0.00    +0.000 Cl
ATOM     14  C   UNL     1       4.786   3.931  13.100  0.00  0.00    +0.000 A 
ENDBRANCH   6   8
ENDBRANCH   2   3
BRANCH   2  15
ATOM     15  N   UNL     1       5.511   4.334  19.289  0.00  0.00    +0.000 N 
ATOM     16  H   UNL     1       5.662   4.403  20.292  0.00  0.00    +0.000 HD
BRANCH  15  17
ATOM     17  C   UNL     1       4.188   3.906  18.791  0.00  0.00    +0.000 C 
ATOM     18  C   UNL     1       3.884   2.468  19.220  0.00  0.00    +0.000 C 
ATOM     19  C   UNL     1       2.689   1.832  18.504  0.00  0.00    +0.000 C 
ATOM     20  C   UNL     1       1.296   2.396  18.795  0.00  0.00    +0.000 C 
ATOM     21  C   UNL     1       1.021   2.726  20.261  0.00  0.00    +0.000 C 
ATOM     22  C   UNL     1       1.129   4.212  20.608  0.00  0.00    +0.000 C 
ATOM     23  C   UNL     1       2.524   4.844  20.561  0.00  0.00    +0.000 C 
ATOM     24  C   UNL     1       3.127   4.964  19.160  0.00  0.00    +0.000 C 
ENDBRANCH  15  17
ENDBRANCH   2  15
TORSDOF 4
ENDMDL
MODEL 3
REMARK VINA RESULT:      -8.1      1.732      2.102
REMARK  Name = 
REMARK  4 active torsions:
REMARK  status: ('A' for Active; 'I' for Inactive)
REMARK    1  A    between atoms: C_2  and  N_3
REMARK    2  A    between atoms: C_2  and  N_12
REMARK    3  A    between atoms: N_3  and  C_4
REMARK    4  A    between atoms: C_15  and  C_16
REMARK                            x       y       z     vdW  Elec       q    Type
REMARK                         _______ _______ _______ _____ _____    ______ ____
ROOT
ATOM      1  S   UNL     1       7.102   5.621  19.408  0.00  0.00    +0.000 S 
ATOM      2  C   UNL     1       6.139   4.621  18.450  0.00  0.00    +0.000 C 
ENDROOT
BRANCH   2   3
ATOM      3  N   UNL     1       5.860   4.903  17.109  0.00  0.00    +0.000 N 
ATOM      4  C   UNL     1       5.258   6.147  16.646  0.00  0.00    +0.000 C 
ATOM      5  C   UNL     1       5.323   6.061  15.148  0.00  0.00    +0.000 C 
ATOM      6  C   UNL     1       5.760   4.632  14.973  0.00  0.00    +0.000 C 
ATOM      7  N   UNL     1       6.107   4.016  16.070  0.00  0.00    +0.000 NA
BRANCH   6   8
ATOM      8  C   UNL     1       5.796   4.041  13.607  0.00  0.00    +0.000 A 
ATOM      9  C   UNL     1       7.018   3.711  13.015  0.00  0.00    +0.000 A 
ATOM     10  C   UNL     1       7.050   3.131  11.740  0.00  0.00    +0.000 A 
ATOM     11  C   UNL     1       5.862   2.871  11.054  0.00  0.00    +0.000 A 
ATOM     12  C   UNL     1       4.645   3.196  11.644  0.00  0.00    +0.000 A 
ATOM     13 CL   UNL     1       3.175   2.874  10.808  0.00  0.00    +0.000 Cl
ATOM     14  C   UNL     1       4.604   3.776  12.912  0.00  0.00    +0.000 A 
ENDBRANCH   6   8
ENDBRANCH   2   3
BRANCH   2  15
ATOM     15  N   UNL     1       5.572   3.440  18.897  0.00  0.00    +0.000 N 
ATOM     16  H   UNL     1       6.243   2.678  18.911  0.00  0.00    +0.000 HD
BRANCH  15  17
ATOM     17  C   UNL     1       4.369   3.351  19.752  0.00  0.00    +0.000 C 
ATOM     18  C   UNL     1       3.531   4.628  19.646  0.00  0.00    +0.000 C 
ATOM     19  C   UNL     1       2.441   4.761  20.714  0.00  0.00    +0.000 C 
ATOM     20  C   UNL     1       1.267   3.780  20.666  0.00  0.00    +0.000 C 
ATOM     21  C   UNL     1       0.718   3.490  19.271  0.00  0.00    +0.000 C 
ATOM     22  C   UNL     1       1.181   2.161  18.669  0.00  0.00    +0.000 C 
ATOM     23  C   UNL     1       2.660   2.041  18.288  0.00  0.00    +0.000 C 
ATOM     24  C   UNL     1       3.629   2.027  19.472  0.00  0.00    +0.000 C 
ENDBRANCH  15  17
ENDBRANCH   2  15
TORSDOF 4
ENDMDL
MODEL 4
REMARK VINA RESULT:      -8.0      4.637      5.943
REMARK  Name = 
REMARK  4 active torsions:
REMARK  status: ('A' for Active; 'I' for Inactive)
REMARK    1  A    between atoms: C_2  and  N_3
REMARK    2  A    between atoms: C_2  and  N_12
REMARK    3  A    between atoms: N_3  and  C_4
REMARK    4  A    between atoms: C_15  and  C_16
REMARK                            x       y       z     vdW  Elec       q    Type
REMARK                         _______ _______ _______ _____ _____    ______ ____
ROOT
ATOM      1  S   UNL     1       6.961   4.782  15.416  0.00  0.00    +0.000 S 
ATOM      2  C   UNL     1       6.289   5.803  16.579  0.00  0.00    +0.000 C 
ENDROOT
BRANCH   2   3
ATOM      3  N   UNL     1       7.065   6.636  17.390  0.00  0.00    +0.000 N 
ATOM      4  C   UNL     1       7.710   6.203  18.623  0.00  0.00    +0.000 C 
ATOM      5  C   UNL     1       8.561   7.370  19.033  0.00  0.00    +0.000 C 
ATOM      6  C   UNL     1       8.081   8.414  18.061  0.00  0.00    +0.000 C 
ATOM      7  N   UNL     1       7.290   7.979  17.120  0.00  0.00    +0.000 NA
BRANCH   6   8
ATOM      8  C   UNL     1       8.546   9.821  18.213  0.00  0.00    +0.000 A 
ATOM      9  C   UNL     1       7.961  10.840  17.456  0.00  0.00    +0.000 A 
ATOM     10  C   UNL     1       8.380  12.167  17.618  0.00  0.00    +0.000 A 
ATOM     11  C   UNL     1       9.378  12.483  18.541  0.00  0.00    +0.000 A 
ATOM     12  C   UNL     1       9.957  11.471  19.297  0.00  0.00    +0.000 A 
ATOM     13 CL   UNL     1      11.185  11.852  20.443  0.00  0.00    +0.000 Cl
ATOM     14  C   UNL     1       9.549  10.146  19.141  0.00  0.00    +0.000 A 
ENDBRANCH   6   8
ENDBRANCH   2   3
BRANCH   2  15
ATOM     15  N   UNL     1       4.929   5.917  16.808  0.00  0.00    +0.000 N 
ATOM     16  H   UNL     1       4.407   6.032  15.945  0.00  0.00    +0.000 HD
BRANCH  15  17
ATOM     17  C   UNL     1       4.229   5.410  18.007  0.00  0.00    +0.000 C 
ATOM     18  C   UNL     1       2.834   6.029  18.125  0.00  0.00    +0.000 C 
ATOM     19  C   UNL     1       2.155   5.808  19.480  0.00  0.00    +0.000 C 
ATOM     20  C   UNL     1       1.741   4.382  19.850  0.00  0.00    +0.000 C 
ATOM     21  C   UNL     1       1.115   3.571  18.717  0.00  0.00    +0.000 C 
ATOM     22  C   UNL     1       2.063   2.571  18.053  0.00  0.00    +0.000 C 
ATOM     23  C   UNL     1       3.216   3.143  17.222  0.00  0.00    +0.000 C 
ATOM     24  C   UNL     1       4.292   3.869  18.031  0.00  0.00    +0.000 C 
ENDBRANCH  15  17
ENDBRANCH   2  15
TORSDOF 4
ENDMDL
MODEL 5
REMARK VINA RESULT:      -7.9      1.292      1.466
REMARK  Name = 
REMARK  4 active torsions:
REMARK  status: ('A' for Active; 'I' for Inactive)
REMARK    1  A    between atoms: C_2  and  N_3
REMARK    2  A    between atoms: C_2  and  N_12
REMARK    3  A    between atoms: N_3  and  C_4
REMARK    4  A    between atoms: C_15  and  C_16
REMARK                            x       y       z     vdW  Elec       q    Type
REMARK                         _______ _______ _______ _____ _____    ______ ____
ROOT
ATOM      1  S   UNL     1       7.242   5.243  19.659  0.00  0.00    +0.000 S 
ATOM      2  C   UNL     1       5.747   5.571  18.950  0.00  0.00    +0.000 C 
ENDROOT
BRANCH   2   3
ATOM      3  N   UNL     1       5.585   5.731  17.570  0.00  0.00    +0.000 N 
ATOM      4  C   UNL     1       4.633   6.652  16.962  0.00  0.00    +0.000 C 
ATOM      5  C   UNL     1       4.949   6.605  15.495  0.00  0.00    +0.000 C 
ATOM      6  C   UNL     1       5.916   5.452  15.458  0.00  0.00    +0.000 C 
ATOM      7  N   UNL     1       6.302   5.011  16.624  0.00  0.00    +0.000 NA
BRANCH   6   8
ATOM      8  C   UNL     1       6.377   4.927  14.143  0.00  0.00    +0.000 A 
ATOM      9  C   UNL     1       7.507   5.469  13.527  0.00  0.00    +0.000 A 
ATOM     10  C   UNL     1       7.956   4.957  12.302  0.00  0.00    +0.000 A 
ATOM     11  C   UNL     1       7.282   3.898  11.693  0.00  0.00    +0.000 A 
ATOM     12  C   UNL     1       6.160   3.355  12.307  0.00  0.00    +0.000 A 
ATOM     13 CL   UNL     1       5.326   2.044  11.566  0.00  0.00    +0.000 Cl
ATOM     14  C   UNL     1       5.704   3.860  13.525  0.00  0.00    +0.000 A 
ENDBRANCH   6   8
ENDBRANCH   2   3
BRANCH   2  15
ATOM     15  N   UNL     1       4.565   5.684  19.662  0.00  0.00    +0.000 N 
ATOM     16  H   UNL     1       4.136   6.597  19.542  0.00  0.00    +0.000 HD
BRANCH  15  17
ATOM     17  C   UNL     1       3.722   4.547  20.087  0.00  0.00    +0.000 C 
ATOM     18  C   UNL     1       2.244   4.944  20.109  0.00  0.00    +0.000 C 
ATOM     19  C   UNL     1       1.330   3.944  20.823  0.00  0.00    +0.000 C 
ATOM     20  C   UNL     1       1.129   2.570  20.179  0.00  0.00    +0.000 C 
ATOM     21  C   UNL     1       0.949   2.583  18.662  0.00  0.00    +0.000 C 
ATOM     22  C   UNL     1       2.200   2.197  17.871  0.00  0.00    +0.000 C 
ATOM     23  C   UNL     1       3.378   3.176  17.900  0.00  0.00    +0.000 C 
ATOM     24  C   UNL     1       4.078   3.298  19.255  0.00  0.00    +0.000 C 
ENDBRANCH  15  17
ENDBRANCH   2  15
TORSDOF 4
ENDMDL
MODEL 6
REMARK VINA RESULT:      -7.7      4.188      5.491
REMARK  Name = 
REMARK  4 active torsions:
REMARK  status: ('A' for Active; 'I' for Inactive)
REMARK    1  A    between atoms: C_2  and  N_3
REMARK    2  A    between atoms: C_2  and  N_12
REMARK    3  A    between atoms: N_3  and  C_4
REMARK    4  A    between atoms: C_15  and  C_16
REMARK                            x       y       z     vdW  Elec       q    Type
REMARK                         _______ _______ _______ _____ _____    ______ ____
ROOT
ATOM      1  S   UNL     1       5.717   5.206  15.008  0.00  0.00    +0.000 S 
ATOM      2  C   UNL     1       5.405   5.972  16.478  0.00  0.00    +0.000 C 
ENDROOT
BRANCH   2   3
ATOM      3  N   UNL     1       6.402   6.612  17.221  0.00  0.00    +0.000 N 
ATOM      4  C   UNL     1       7.246   5.939  18.202  0.00  0.00    +0.000 C 
ATOM      5  C   UNL     1       8.262   6.972  18.594  0.00  0.00    +0.000 C 
ATOM      6  C   UNL     1       7.687   8.192  17.925  0.00  0.00    +0.000 C 
ATOM      7  N   UNL     1       6.684   7.967  17.122  0.00  0.00    +0.000 NA
BRANCH   6   8
ATOM      8  C   UNL     1       8.296   9.525  18.190  0.00  0.00    +0.000 A 
ATOM      9  C   UNL     1       9.383   9.641  19.060  0.00  0.00    +0.000 A 
ATOM     10  C   UNL     1       9.972  10.892  19.289  0.00  0.00    +0.000 A 
ATOM     11  C   UNL     1       9.483  12.029  18.645  0.00  0.00    +0.000 A 
ATOM     12  C   UNL     1       8.403  11.914  17.776  0.00  0.00    +0.000 A 
ATOM     13 CL   UNL     1       7.797  13.311  16.973  0.00  0.00    +0.000 Cl
ATOM     14  C   UNL     1       7.809  10.673  17.545  0.00  0.00    +0.000 A 
ENDBRANCH   6   8
ENDBRANCH   2   3
BRANCH   2  15
ATOM     15  N   UNL     1       4.149   6.052  17.054  0.00  0.00    +0.000 N 
ATOM     16  H   UNL     1       3.435   6.296  16.374  0.00  0.00    +0.000 HD
BRANCH  15  17
ATOM     17  C   UNL     1       3.747   5.369  18.301  0.00  0.00    +0.000 C 
ATOM     18  C   UNL     1       2.326   5.769  18.706  0.00  0.00    +0.000 C 
ATOM     19  C   UNL     1       1.934   5.362  20.130  0.00  0.00    +0.000 C 
ATOM     20  C   UNL     1       1.786   3.870  20.434  0.00  0.00    +0.000 C 
ATOM     21  C   UNL     1       1.081   3.052  19.353  0.00  0.00    +0.000 C 
ATOM     22  C   UNL     1       2.019   2.247  18.452  0.00  0.00    +0.000 C 
ATOM     23  C   UNL     1       2.920   3.035  17.495  0.00  0.00    +0.000 C 
ATOM     24  C   UNL     1       4.018   3.856  18.176  0.00  0.00    +0.000 C 
ENDBRANCH  15  17
ENDBRANCH   2  15
TORSDOF 4
ENDMDL
MODEL 7
REMARK VINA RESULT:      -7.7      5.020      8.069
REMARK  Name = 
REMARK  4 active torsions:
REMARK  status: ('A' for Active; 'I' for Inactive)
REMARK    1  A    between atoms: C_2  and  N_3
REMARK    2  A    between atoms: C_2  and  N_12
REMARK    3  A    between atoms: N_3  and  C_4
REMARK    4  A    between atoms: C_15  and  C_16
REMARK                            x       y       z     vdW  Elec       q    Type
REMARK                         _______ _______ _______ _____ _____    ______ ____
ROOT
ATOM      1  S   UNL     1       4.142   6.576  17.098  0.00  0.00    +0.000 S 
ATOM      2  C   UNL     1       3.441   6.861  18.606  0.00  0.00    +0.000 C 
ENDROOT
BRANCH   2   3
ATOM      3  N   UNL     1       2.497   7.870  18.820  0.00  0.00    +0.000 N 
ATOM      4  C   UNL     1       2.026   8.779  17.782  0.00  0.00    +0.000 C 
ATOM      5  C   UNL     1       0.911   9.546  18.432  0.00  0.00    +0.000 C 
ATOM      6  C   UNL     1       1.070   9.103  19.862  0.00  0.00    +0.000 C 
ATOM      7  N   UNL     1       1.919   8.132  20.054  0.00  0.00    +0.000 NA
BRANCH   6   8
ATOM      8  C   UNL     1       0.256   9.758  20.923  0.00  0.00    +0.000 A 
ATOM      9  C   UNL     1       0.285   9.270  22.232  0.00  0.00    +0.000 A 
ATOM     10  C   UNL     1      -0.460   9.902  23.237  0.00  0.00    +0.000 A 
ATOM     11  C   UNL     1      -1.231  11.028  22.939  0.00  0.00    +0.000 A 
ATOM     12  C   UNL     1      -1.257  11.516  21.638  0.00  0.00    +0.000 A 
ATOM     13 CL   UNL     1      -2.201  12.906  21.263  0.00  0.00    +0.000 Cl
ATOM     14  C   UNL     1      -0.521  10.891  20.631  0.00  0.00    +0.000 A 
ENDBRANCH   6   8
ENDBRANCH   2   3
BRANCH   2  15
ATOM     15  N   UNL     1       3.719   6.114  19.738  0.00  0.00    +0.000 N 
ATOM     16  H   UNL     1       4.044   6.695  20.505  0.00  0.00    +0.000 HD
BRANCH  15  17
ATOM     17  C   UNL     1       3.138   4.788  20.039  0.00  0.00    +0.000 C 
ATOM     18  C   UNL     1       1.721   4.674  19.473  0.00  0.00    +0.000 C 
ATOM     19  C   UNL     1       0.927   3.470  19.990  0.00  0.00    +0.000 C 
ATOM     20  C   UNL     1       1.392   2.072  19.575  0.00  0.00    +0.000 C 
ATOM     21  C   UNL     1       1.819   1.936  18.115  0.00  0.00    +0.000 C 
ATOM     22  C   UNL     1       3.333   1.941  17.892  0.00  0.00    +0.000 C 
ATOM     23  C   UNL     1       4.076   3.255  18.154  0.00  0.00    +0.000 C 
ATOM     24  C   UNL     1       4.129   3.681  19.623  0.00  0.00    +0.000 C 
ENDBRANCH  15  17
ENDBRANCH   2  15
TORSDOF 4
ENDMDL
MODEL 8
REMARK VINA RESULT:      -7.6      4.001      6.145
REMARK  Name = 
REMARK  4 active torsions:
REMARK  status: ('A' for Active; 'I' for Inactive)
REMARK    1  A    between atoms: C_2  and  N_3
REMARK    2  A    between atoms: C_2  and  N_12
REMARK    3  A    between atoms: N_3  and  C_4
REMARK    4  A    between atoms: C_15  and  C_16
REMARK                            x       y       z     vdW  Elec       q    Type
REMARK                         _______ _______ _______ _____ _____    ______ ____
ROOT
ATOM      1  S   UNL     1       7.205   5.186  19.238  0.00  0.00    +0.000 S 
ATOM      2  C   UNL     1       5.741   4.853  18.470  0.00  0.00    +0.000 C 
ENDROOT
BRANCH   2   3
ATOM      3  N   UNL     1       4.852   5.857  18.072  0.00  0.00    +0.000 N 
ATOM      4  C   UNL     1       4.809   6.422  16.729  0.00  0.00    +0.000 C 
ATOM      5  C   UNL     1       3.600   7.312  16.735  0.00  0.00    +0.000 C 
ATOM      6  C   UNL     1       3.254   7.297  18.200  0.00  0.00    +0.000 C 
ATOM      7  N   UNL     1       3.924   6.442  18.923  0.00  0.00    +0.000 NA
BRANCH   6   8
ATOM      8  C   UNL     1       2.188   8.204  18.708  0.00  0.00    +0.000 A 
ATOM      9  C   UNL     1       1.550   9.094  17.840  0.00  0.00    +0.000 A 
ATOM     10  C   UNL     1       0.529   9.930  18.312  0.00  0.00    +0.000 A 
ATOM     11  C   UNL     1       0.135   9.873  19.650  0.00  0.00    +0.000 A 
ATOM     12  C   UNL     1       0.766   8.984  20.513  0.00  0.00    +0.000 A 
ATOM     13 CL   UNL     1       0.283   8.904  22.164  0.00  0.00    +0.000 Cl
ATOM     14  C   UNL     1       1.786   8.151  20.052  0.00  0.00    +0.000 A 
ENDBRANCH   6   8
ENDBRANCH   2   3
BRANCH   2  15
ATOM     15  N   UNL     1       5.312   3.576  18.151  0.00  0.00    +0.000 N 
ATOM     16  H   UNL     1       6.024   3.050  17.651  0.00  0.00    +0.000 HD
BRANCH  15  17
ATOM     17  C   UNL     1       4.246   2.841  18.862  0.00  0.00    +0.000 C 
ATOM     18  C   UNL     1       3.878   3.546  20.170  0.00  0.00    +0.000 C 
ATOM     19  C   UNL     1       3.014   2.710  21.120  0.00  0.00    +0.000 C 
ATOM     20  C   UNL     1       1.581   2.389  20.689  0.00  0.00    +0.000 C 
ATOM     21  C   UNL     1       0.824   3.543  20.035  0.00  0.00    +0.000 C 
ATOM     22  C   UNL     1       0.749   3.470  18.508  0.00  0.00    +0.000 C 
ATOM     23  C   UNL     1       2.053   3.674  17.731  0.00  0.00    +0.000 C 
ATOM     24  C   UNL     1       3.080   2.551  17.895  0.00  0.00    +0.000 C 
ENDBRANCH  15  17
ENDBRANCH   2  15
TORSDOF 4
ENDMDL
MODEL 9
REMARK VINA RESULT:      -7.6      5.921      7.472
REMARK  Name = 
REMARK  4 active torsions:
REMARK  status: ('A' for Active; 'I' for Inactive)
REMARK    1  A    between atoms: C_2  and  N_3
REMARK    2  A    between atoms: C_2  and  N_12
REMARK    3  A    between atoms: N_3  and  C_4
REMARK    4  A    between atoms: C_15  and  C_16
REMARK                            x       y       z     vdW  Elec       q    Type
REMARK                         _______ _______ _______ _____ _____    ______ ____
ROOT
ATOM      1  S   UNL     1       1.561  11.792  18.799  0.00  0.00    +0.000 S 
ATOM      2  C   UNL     1       0.704  10.358  19.031  0.00  0.00    +0.000 C 
ENDROOT
BRANCH   2   3
ATOM      3  N   UNL     1       1.335   9.126  19.229  0.00  0.00    +0.000 N 
ATOM      4  C   UNL     1       1.508   8.498  20.533  0.00  0.00    +0.000 C 
ATOM      5  C   UNL     1       2.060   7.137  20.225  0.00  0.00    +0.000 C 
ATOM      6  C   UNL     1       2.343   7.281  18.753  0.00  0.00    +0.000 C 
ATOM      7  N   UNL     1       1.886   8.372  18.202  0.00  0.00    +0.000 NA
BRANCH   6   8
ATOM      8  C   UNL     1       3.075   6.198  18.040  0.00  0.00    +0.000 A 
ATOM      9  C   UNL     1       4.264   6.481  17.363  0.00  0.00    +0.000 A 
ATOM     10  C   UNL     1       4.967   5.456  16.715  0.00  0.00    +0.000 A 
ATOM     11  C   UNL     1       4.489   4.146  16.746  0.00  0.00    +0.000 A 
ATOM     12  C   UNL     1       3.308   3.863  17.423  0.00  0.00    +0.000 A 
ATOM     13 CL   UNL     1       2.714   2.247  17.471  0.00  0.00    +0.000 Cl
ATOM     14  C   UNL     1       2.601   4.877  18.069  0.00  0.00    +0.000 A 
ENDBRANCH   6   8
ENDBRANCH   2   3
BRANCH   2  15
ATOM     15  N   UNL     1      -0.678  10.285  19.070  0.00  0.00    +0.000 N 
ATOM     16  H   UNL     1      -1.025  10.161  20.016  0.00  0.00    +0.000 HD
BRANCH  15  17
ATOM     17  C   UNL     1      -1.582  10.841  18.042  0.00  0.00    +0.000 C 
ATOM     18  C   UNL     1      -2.549   9.770  17.530  0.00  0.00    +0.000 C 
ATOM     19  C   UNL     1      -3.311  10.159  16.259  0.00  0.00    +0.000 C 
ATOM     20  C   UNL     1      -4.341  11.287  16.358  0.00  0.00    +0.000 C 
ATOM     21  C   UNL     1      -5.218  11.260  17.608  0.00  0.00    +0.000 C 
ATOM     22  C   UNL     1      -4.798  12.246  18.700  0.00  0.00    +0.000 C 
ATOM     23  C   UNL     1      -3.477  11.970  19.425  0.00  0.00    +0.000 C 
ATOM     24  C   UNL     1      -2.224  12.143  18.564  0.00  0.00    +0.000 C 
ENDBRANCH  15  17
ENDBRANCH   2  15
TORSDOF 4
ENDMDL
