MODEL 1
REMARK VINA RESULT:      -6.0      0.000      0.000
REMARK  Name = 
REMARK  13 active torsions:
REMARK  status: ('A' for Active; 'I' for Inactive)
REMARK    1  A    between atoms: C_1  and  C_2
REMARK    2  A    between atoms: C_2  and  C_3
REMARK    3  A    between atoms: C_3  and  C_4
REMARK    4  A    between atoms: C_4  and  C_5
REMARK    5  A    between atoms: C_5  and  C_6
REMARK    6  A    between atoms: C_6  and  O_7
REMARK    7  A    between atoms: C_6  and  C_8
REMARK    8  A    between atoms: C_9  and  C_10
REMARK    9  A    between atoms: C_11  and  C_12
REMARK   10  A    between atoms: C_12  and  O_13
REMARK   11  A    between atoms: C_12  and  C_14
REMARK   12  A    between atoms: C_14  and  C_15
REMARK   13  A    between atoms: C_15  and  C_16
REMARK                            x       y       z     vdW  Elec       q    Type
REMARK                         _______ _______ _______ _____ _____    ______ ____
ROOT
ATOM      1  C   UNL     1       5.294   4.567  16.042  0.00  0.00    +0.000 C 
ATOM      2  C   UNL     1       4.512   3.964  16.720  0.00  0.00    +0.000 C 
ENDROOT
BRANCH   2   3
ATOM      3  C   UNL     1       3.504   3.243  17.607  0.00  0.00    +0.000 C 
ATOM      4  C   UNL     1       2.673   2.691  18.269  0.00  0.00    +0.000 C 
BRANCH   4   5
ATOM      5  C   UNL     1       1.578   2.040  18.994  0.00  0.00    +0.000 C 
BRANCH   5   6
ATOM      6  O   UNL     1       0.350   2.286  18.318  0.00  0.00    +0.000 OA
ATOM      7  H   UNL     1      -0.352   2.287  18.990  0.00  0.00    +0.000 HD
ENDBRANCH   5   6
BRANCH   5   8
ATOM      8  C   UNL     1       1.518   2.596  20.420  0.00  0.00    +0.000 C 
BRANCH   8   9
ATOM      9  C   UNL     1       0.937   4.008  20.477  0.00  0.00    +0.000 C 
ATOM     10  C   UNL     1       2.010   5.019  20.852  0.00  0.00    +0.000 C 
ENDBRANCH   8   9
ENDBRANCH   5   8
ENDBRANCH   4   5
ENDBRANCH   2   3
BRANCH   1  11
ATOM     11  C   UNL     1       6.224   5.407  15.282  0.00  0.00    +0.000 C 
BRANCH  11  12
ATOM     12  O   UNL     1       7.280   5.828  16.139  0.00  0.00    +0.000 OA
ATOM     13  H   UNL     1       7.957   6.241  15.574  0.00  0.00    +0.000 HD
ENDBRANCH  11  12
BRANCH  11  14
ATOM     14  C   UNL     1       6.825   4.629  14.106  0.00  0.00    +0.000 C 
BRANCH  14  15
ATOM     15  C   UNL     1       5.753   4.009  13.206  0.00  0.00    +0.000 C 
BRANCH  15  16
ATOM     16  C   UNL     1       6.368   3.115  12.133  0.00  0.00    +0.000 C 
BRANCH  16  18
ATOM     17  C   UNL     1       4.039   3.197  11.188  0.00  0.00    +0.000 C 
ATOM     18  C   UNL     1       5.280   2.346  11.388  0.00  0.00    +0.000 C 
ENDBRANCH  16  18
ENDBRANCH  15  16
ENDBRANCH  14  15
ENDBRANCH  11  14
ENDBRANCH   1  11
TORSDOF 11
ENDMDL
MODEL 2
REMARK VINA RESULT:      -6.0      0.836      1.197
REMARK  Name = 
REMARK  13 active torsions:
REMARK  status: ('A' for Active; 'I' for Inactive)
REMARK    1  A    between atoms: C_1  and  C_2
REMARK    2  A    between atoms: C_2  and  C_3
REMARK    3  A    between atoms: C_3  and  C_4
REMARK    4  A    between atoms: C_4  and  C_5
REMARK    5  A    between atoms: C_5  and  C_6
REMARK    6  A    between atoms: C_6  and  O_7
REMARK    7  A    between atoms: C_6  and  C_8
REMARK    8  A    between atoms: C_9  and  C_10
REMARK    9  A    between atoms: C_11  and  C_12
REMARK   10  A    between atoms: C_12  and  O_13
REMARK   11  A    between atoms: C_12  and  C_14
REMARK   12  A    between atoms: C_14  and  C_15
REMARK   13  A    between atoms: C_15  and  C_16
REMARK                            x       y       z     vdW  Elec       q    Type
REMARK                         _______ _______ _______ _____ _____    ______ ____
ROOT
ATOM      1  C   UNL     1       5.252   4.701  16.039  0.00  0.00    +0.000 C 
ATOM      2  C   UNL     1       4.386   4.179  16.681  0.00  0.00    +0.000 C 
ENDROOT
BRANCH   2   3
ATOM      3  C   UNL     1       3.246   3.546  17.471  0.00  0.00    +0.000 C 
ATOM      4  C   UNL     1       2.385   3.040  18.132  0.00  0.00    +0.000 C 
BRANCH   4   5
ATOM      5  C   UNL     1       1.410   2.415  19.030  0.00  0.00    +0.000 C 
BRANCH   5   6
ATOM      6  O   UNL     1       0.309   1.930  18.270  0.00  0.00    +0.000 OA
ATOM      7  H   UNL     1      -0.500   2.272  18.686  0.00  0.00    +0.000 HD
ENDBRANCH   5   6
BRANCH   5   8
ATOM      8  C   UNL     1       0.932   3.449  20.053  0.00  0.00    +0.000 C 
BRANCH   8   9
ATOM      9  C   UNL     1       1.263   3.052  21.490  0.00  0.00    +0.000 C 
ATOM     10  C   UNL     1       2.709   2.595  21.607  0.00  0.00    +0.000 C 
ENDBRANCH   8   9
ENDBRANCH   5   8
ENDBRANCH   4   5
ENDBRANCH   2   3
BRANCH   1  11
ATOM     11  C   UNL     1       6.225   5.419  15.211  0.00  0.00    +0.000 C 
BRANCH  11  12
ATOM     12  O   UNL     1       7.287   5.886  16.037  0.00  0.00    +0.000 OA
ATOM     13  H   UNL     1       7.811   5.107  16.290  0.00  0.00    +0.000 HD
ENDBRANCH  11  12
BRANCH  11  14
ATOM     14  C   UNL     1       6.807   4.499  14.133  0.00  0.00    +0.000 C 
BRANCH  14  15
ATOM     15  C   UNL     1       5.724   3.717  13.384  0.00  0.00    +0.000 C 
BRANCH  15  16
ATOM     16  C   UNL     1       6.132   3.434  11.941  0.00  0.00    +0.000 C 
BRANCH  16  18
ATOM     17  C   UNL     1       6.753   1.202  10.963  0.00  0.00    +0.000 C 
ATOM     18  C   UNL     1       5.624   2.063  11.499  0.00  0.00    +0.000 C 
ENDBRANCH  16  18
ENDBRANCH  15  16
ENDBRANCH  14  15
ENDBRANCH  11  14
ENDBRANCH   1  11
TORSDOF 11
ENDMDL
MODEL 3
REMARK VINA RESULT:      -5.9      2.290      3.855
REMARK  Name = 
REMARK  13 active torsions:
REMARK  status: ('A' for Active; 'I' for Inactive)
REMARK    1  A    between atoms: C_1  and  C_2
REMARK    2  A    between atoms: C_2  and  C_3
REMARK    3  A    between atoms: C_3  and  C_4
REMARK    4  A    between atoms: C_4  and  C_5
REMARK    5  A    between atoms: C_5  and  C_6
REMARK    6  A    between atoms: C_6  and  O_7
REMARK    7  A    between atoms: C_6  and  C_8
REMARK    8  A    between atoms: C_9  and  C_10
REMARK    9  A    between atoms: C_11  and  C_12
REMARK   10  A    between atoms: C_12  and  O_13
REMARK   11  A    between atoms: C_12  and  C_14
REMARK   12  A    between atoms: C_14  and  C_15
REMARK   13  A    between atoms: C_15  and  C_16
REMARK                            x       y       z     vdW  Elec       q    Type
REMARK                         _______ _______ _______ _____ _____    ______ ____
ROOT
ATOM      1  C   UNL     1       5.969   3.767  13.266  0.00  0.00    +0.000 C 
ATOM      2  C   UNL     1       5.796   4.065  14.413  0.00  0.00    +0.000 C 
ENDROOT
BRANCH   2   3
ATOM      3  C   UNL     1       5.608   4.400  15.888  0.00  0.00    +0.000 C 
ATOM      4  C   UNL     1       5.429   4.619  17.052  0.00  0.00    +0.000 C 
BRANCH   4   5
ATOM      5  C   UNL     1       5.152   4.784  18.482  0.00  0.00    +0.000 C 
BRANCH   5   6
ATOM      6  O   UNL     1       6.238   4.260  19.238  0.00  0.00    +0.000 OA
ATOM      7  H   UNL     1       6.504   4.947  19.872  0.00  0.00    +0.000 HD
ENDBRANCH   5   6
BRANCH   5   8
ATOM      8  C   UNL     1       3.858   4.046  18.832  0.00  0.00    +0.000 C 
BRANCH   8   9
ATOM      9  C   UNL     1       2.642   4.610  18.101  0.00  0.00    +0.000 C 
ATOM     10  C   UNL     1       1.385   3.832  18.461  0.00  0.00    +0.000 C 
ENDBRANCH   8   9
ENDBRANCH   5   8
ENDBRANCH   4   5
ENDBRANCH   2   3
BRANCH   1  11
ATOM     11  C   UNL     1       6.234   3.297  11.903  0.00  0.00    +0.000 C 
BRANCH  11  12
ATOM     12  O   UNL     1       7.298   2.351  11.934  0.00  0.00    +0.000 OA
ATOM     13  H   UNL     1       7.854   2.524  11.155  0.00  0.00    +0.000 HD
ENDBRANCH  11  12
BRANCH  11  14
ATOM     14  C   UNL     1       4.993   2.625  11.307  0.00  0.00    +0.000 C 
BRANCH  14  15
ATOM     15  C   UNL     1       3.789   3.567  11.245  0.00  0.00    +0.000 C 
BRANCH  15  16
ATOM     16  C   UNL     1       2.909   3.278  10.032  0.00  0.00    +0.000 C 
BRANCH  16  18
ATOM     17  C   UNL     1       1.928   5.229   8.787  0.00  0.00    +0.000 C 
ATOM     18  C   UNL     1       3.136   4.323   8.943  0.00  0.00    +0.000 C 
ENDBRANCH  16  18
ENDBRANCH  15  16
ENDBRANCH  14  15
ENDBRANCH  11  14
ENDBRANCH   1  11
TORSDOF 11
ENDMDL
MODEL 4
REMARK VINA RESULT:      -5.9      1.810      7.061
REMARK  Name = 
REMARK  13 active torsions:
REMARK  status: ('A' for Active; 'I' for Inactive)
REMARK    1  A    between atoms: C_1  and  C_2
REMARK    2  A    between atoms: C_2  and  C_3
REMARK    3  A    between atoms: C_3  and  C_4
REMARK    4  A    between atoms: C_4  and  C_5
REMARK    5  A    between atoms: C_5  and  C_6
REMARK    6  A    between atoms: C_6  and  O_7
REMARK    7  A    between atoms: C_6  and  C_8
REMARK    8  A    between atoms: C_9  and  C_10
REMARK    9  A    between atoms: C_11  and  C_12
REMARK   10  A    between atoms: C_12  and  O_13
REMARK   11  A    between atoms: C_12  and  C_14
REMARK   12  A    between atoms: C_14  and  C_15
REMARK   13  A    between atoms: C_15  and  C_16
REMARK                            x       y       z     vdW  Elec       q    Type
REMARK                         _______ _______ _______ _____ _____    ______ ____
ROOT
ATOM      1  C   UNL     1       3.254   5.087  20.003  0.00  0.00    +0.000 C 
ATOM      2  C   UNL     1       4.133   5.039  19.191  0.00  0.00    +0.000 C 
ENDROOT
BRANCH   2   3
ATOM      3  C   UNL     1       5.219   5.007  18.122  0.00  0.00    +0.000 C 
ATOM      4  C   UNL     1       6.075   4.928  17.287  0.00  0.00    +0.000 C 
BRANCH   4   5
ATOM      5  C   UNL     1       7.115   4.714  16.278  0.00  0.00    +0.000 C 
BRANCH   5   6
ATOM      6  O   UNL     1       7.423   5.951  15.645  0.00  0.00    +0.000 OA
ATOM      7  H   UNL     1       6.942   5.967  14.800  0.00  0.00    +0.000 HD
ENDBRANCH   5   6
BRANCH   5   8
ATOM      8  C   UNL     1       6.614   3.700  15.245  0.00  0.00    +0.000 C 
BRANCH   8   9
ATOM      9  C   UNL     1       5.816   4.353  14.119  0.00  0.00    +0.000 C 
ATOM     10  C   UNL     1       6.012   3.602  12.811  0.00  0.00    +0.000 C 
ENDBRANCH   8   9
ENDBRANCH   5   8
ENDBRANCH   4   5
ENDBRANCH   2   3
BRANCH   1  11
ATOM     11  C   UNL     1       2.108   5.200  20.910  0.00  0.00    +0.000 C 
BRANCH  11  12
ATOM     12  O   UNL     1       1.657   6.551  20.927  0.00  0.00    +0.000 OA
ATOM     13  H   UNL     1       2.280   7.064  20.384  0.00  0.00    +0.000 HD
ENDBRANCH  11  12
BRANCH  11  14
ATOM     14  C   UNL     1       0.956   4.302  20.446  0.00  0.00    +0.000 C 
BRANCH  14  15
ATOM     15  C   UNL     1       1.408   2.865  20.172  0.00  0.00    +0.000 C 
BRANCH  15  16
ATOM     16  C   UNL     1       0.969   2.391  18.790  0.00  0.00    +0.000 C 
BRANCH  16  18
ATOM     17  C   UNL     1       3.334   1.579  18.530  0.00  0.00    +0.000 C 
ATOM     18  C   UNL     1       2.170   2.281  17.854  0.00  0.00    +0.000 C 
ENDBRANCH  16  18
ENDBRANCH  15  16
ENDBRANCH  14  15
ENDBRANCH  11  14
ENDBRANCH   1  11
TORSDOF 11
ENDMDL
MODEL 5
REMARK VINA RESULT:      -5.8      2.085      7.674
REMARK  Name = 
REMARK  13 active torsions:
REMARK  status: ('A' for Active; 'I' for Inactive)
REMARK    1  A    between atoms: C_1  and  C_2
REMARK    2  A    between atoms: C_2  and  C_3
REMARK    3  A    between atoms: C_3  and  C_4
REMARK    4  A    between atoms: C_4  and  C_5
REMARK    5  A    between atoms: C_5  and  C_6
REMARK    6  A    between atoms: C_6  and  O_7
REMARK    7  A    between atoms: C_6  and  C_8
REMARK    8  A    between atoms: C_9  and  C_10
REMARK    9  A    between atoms: C_11  and  C_12
REMARK   10  A    between atoms: C_12  and  O_13
REMARK   11  A    between atoms: C_12  and  C_14
REMARK   12  A    between atoms: C_14  and  C_15
REMARK   13  A    between atoms: C_15  and  C_16
REMARK                            x       y       z     vdW  Elec       q    Type
REMARK                         _______ _______ _______ _____ _____    ______ ____
ROOT
ATOM      1  C   UNL     1       4.752   3.984  17.367  0.00  0.00    +0.000 C 
ATOM      2  C   UNL     1       5.133   3.935  16.232  0.00  0.00    +0.000 C 
ENDROOT
BRANCH   2   3
ATOM      3  C   UNL     1       5.650   3.830  14.802  0.00  0.00    +0.000 C 
ATOM      4  C   UNL     1       6.080   3.700  13.692  0.00  0.00    +0.000 C 
BRANCH   4   5
ATOM      5  C   UNL     1       6.650   3.438  12.367  0.00  0.00    +0.000 C 
BRANCH   5   6
ATOM      6  O   UNL     1       7.118   4.657  11.803  0.00  0.00    +0.000 OA
ATOM      7  H   UNL     1       6.737   5.381  12.328  0.00  0.00    +0.000 HD
ENDBRANCH   5   6
BRANCH   5   8
ATOM      8  C   UNL     1       5.574   2.817  11.471  0.00  0.00    +0.000 C 
BRANCH   8   9
ATOM      9  C   UNL     1       4.208   3.476  11.650  0.00  0.00    +0.000 C 
ATOM     10  C   UNL     1       3.460   3.538  10.327  0.00  0.00    +0.000 C 
ENDBRANCH   8   9
ENDBRANCH   5   8
ENDBRANCH   4   5
ENDBRANCH   2   3
BRANCH   1  11
ATOM     11  C   UNL     1       4.371   3.955  18.782  0.00  0.00    +0.000 C 
BRANCH  11  12
ATOM     12  O   UNL     1       5.417   3.352  19.536  0.00  0.00    +0.000 OA
ATOM     13  H   UNL     1       6.151   3.185  18.918  0.00  0.00    +0.000 HD
ENDBRANCH  11  12
BRANCH  11  14
ATOM     14  C   UNL     1       4.137   5.374  19.312  0.00  0.00    +0.000 C 
BRANCH  14  15
ATOM     15  C   UNL     1       2.665   5.789  19.245  0.00  0.00    +0.000 C 
BRANCH  15  16
ATOM     16  C   UNL     1       1.923   5.439  20.532  0.00  0.00    +0.000 C 
BRANCH  16  18
ATOM     17  C   UNL     1       1.562   3.050  21.228  0.00  0.00    +0.000 C 
ATOM     18  C   UNL     1       1.079   4.182  20.339  0.00  0.00    +0.000 C 
ENDBRANCH  16  18
ENDBRANCH  15  16
ENDBRANCH  14  15
ENDBRANCH  11  14
ENDBRANCH   1  11
TORSDOF 11
ENDMDL
MODEL 6
REMARK VINA RESULT:      -5.8      1.836      2.122
REMARK  Name = 
REMARK  13 active torsions:
REMARK  status: ('A' for Active; 'I' for Inactive)
REMARK    1  A    between atoms: C_1  and  C_2
REMARK    2  A    between atoms: C_2  and  C_3
REMARK    3  A    between atoms: C_3  and  C_4
REMARK    4  A    between atoms: C_4  and  C_5
REMARK    5  A    between atoms: C_5  and  C_6
REMARK    6  A    between atoms: C_6  and  O_7
REMARK    7  A    between atoms: C_6  and  C_8
REMARK    8  A    between atoms: C_9  and  C_10
REMARK    9  A    between atoms: C_11  and  C_12
REMARK   10  A    between atoms: C_12  and  O_13
REMARK   11  A    between atoms: C_12  and  C_14
REMARK   12  A    between atoms: C_14  and  C_15
REMARK   13  A    between atoms: C_15  and  C_16
REMARK                            x       y       z     vdW  Elec       q    Type
REMARK                         _______ _______ _______ _____ _____    ______ ____
ROOT
ATOM      1  C   UNL     1       5.147   5.195  16.038  0.00  0.00    +0.000 C 
ATOM      2  C   UNL     1       4.360   5.280  16.936  0.00  0.00    +0.000 C 
ENDROOT
BRANCH   2   3
ATOM      3  C   UNL     1       3.326   5.421  18.047  0.00  0.00    +0.000 C 
ATOM      4  C   UNL     1       2.521   5.480  18.932  0.00  0.00    +0.000 C 
BRANCH   4   5
ATOM      5  C   UNL     1       1.563   5.439  20.041  0.00  0.00    +0.000 C 
BRANCH   5   6
ATOM      6  O   UNL     1       2.166   5.986  21.208  0.00  0.00    +0.000 OA
ATOM      7  H   UNL     1       1.488   5.995  21.904  0.00  0.00    +0.000 HD
ENDBRANCH   5   6
BRANCH   5   8
ATOM      8  C   UNL     1       1.145   3.988  20.291  0.00  0.00    +0.000 C 
BRANCH   8   9
ATOM      9  C   UNL     1       1.881   3.358  21.471  0.00  0.00    +0.000 C 
ATOM     10  C   UNL     1       3.074   2.545  20.993  0.00  0.00    +0.000 C 
ENDBRANCH   8   9
ENDBRANCH   5   8
ENDBRANCH   4   5
ENDBRANCH   2   3
BRANCH   1  11
ATOM     11  C   UNL     1       6.044   5.177  14.877  0.00  0.00    +0.000 C 
BRANCH  11  12
ATOM     12  O   UNL     1       7.366   5.490  15.304  0.00  0.00    +0.000 OA
ATOM     13  H   UNL     1       7.408   6.457  15.407  0.00  0.00    +0.000 HD
ENDBRANCH  11  12
BRANCH  11  14
ATOM     14  C   UNL     1       6.053   3.793  14.218  0.00  0.00    +0.000 C 
BRANCH  14  15
ATOM     15  C   UNL     1       6.577   3.833  12.780  0.00  0.00    +0.000 C 
BRANCH  15  16
ATOM     16  C   UNL     1       5.713   2.994  11.843  0.00  0.00    +0.000 C 
BRANCH  16  18
ATOM     17  C   UNL     1       3.559   3.211  10.565  0.00  0.00    +0.000 C 
ATOM     18  C   UNL     1       4.261   3.465  11.887  0.00  0.00    +0.000 C 
ENDBRANCH  16  18
ENDBRANCH  15  16
ENDBRANCH  14  15
ENDBRANCH  11  14
ENDBRANCH   1  11
TORSDOF 11
ENDMDL
MODEL 7
REMARK VINA RESULT:      -5.8      0.996      7.629
REMARK  Name = 
REMARK  13 active torsions:
REMARK  status: ('A' for Active; 'I' for Inactive)
REMARK    1  A    between atoms: C_1  and  C_2
REMARK    2  A    between atoms: C_2  and  C_3
REMARK    3  A    between atoms: C_3  and  C_4
REMARK    4  A    between atoms: C_4  and  C_5
REMARK    5  A    between atoms: C_5  and  C_6
REMARK    6  A    between atoms: C_6  and  O_7
REMARK    7  A    between atoms: C_6  and  C_8
REMARK    8  A    between atoms: C_9  and  C_10
REMARK    9  A    between atoms: C_11  and  C_12
REMARK   10  A    between atoms: C_12  and  O_13
REMARK   11  A    between atoms: C_12  and  C_14
REMARK   12  A    between atoms: C_14  and  C_15
REMARK   13  A    between atoms: C_15  and  C_16
REMARK                            x       y       z     vdW  Elec       q    Type
REMARK                         _______ _______ _______ _____ _____    ______ ____
ROOT
ATOM      1  C   UNL     1       2.207   3.340  17.794  0.00  0.00    +0.000 C 
ATOM      2  C   UNL     1       3.201   3.713  17.240  0.00  0.00    +0.000 C 
ENDROOT
BRANCH   2   3
ATOM      3  C   UNL     1       4.487   4.135  16.539  0.00  0.00    +0.000 C 
ATOM      4  C   UNL     1       5.518   4.418  15.999  0.00  0.00    +0.000 C 
BRANCH   4   5
ATOM      5  C   UNL     1       6.814   4.653  15.357  0.00  0.00    +0.000 C 
BRANCH   5   6
ATOM      6  O   UNL     1       7.380   5.859  15.859  0.00  0.00    +0.000 OA
ATOM      7  H   UNL     1       8.318   5.681  16.041  0.00  0.00    +0.000 HD
ENDBRANCH   5   6
BRANCH   5   8
ATOM      8  C   UNL     1       6.615   4.751  13.842  0.00  0.00    +0.000 C 
BRANCH   8   9
ATOM      9  C   UNL     1       6.305   3.400  13.200  0.00  0.00    +0.000 C 
ATOM     10  C   UNL     1       5.161   3.524  12.207  0.00  0.00    +0.000 C 
ENDBRANCH   8   9
ENDBRANCH   5   8
ENDBRANCH   4   5
ENDBRANCH   2   3
BRANCH   1  11
ATOM     11  C   UNL     1       1.048   2.775  18.493  0.00  0.00    +0.000 C 
BRANCH  11  12
ATOM     12  O   UNL     1       1.262   1.383  18.701  0.00  0.00    +0.000 OA
ATOM     13  H   UNL     1       2.032   1.300  19.290  0.00  0.00    +0.000 HD
ENDBRANCH  11  12
BRANCH  11  14
ATOM     14  C   UNL     1       0.849   3.453  19.852  0.00  0.00    +0.000 C 
BRANCH  14  15
ATOM     15  C   UNL     1       2.125   3.458  20.697  0.00  0.00    +0.000 C 
BRANCH  15  16
ATOM     16  C   UNL     1       2.395   4.833  21.301  0.00  0.00    +0.000 C 
BRANCH  16  18
ATOM     17  C   UNL     1       2.860   6.536  19.511  0.00  0.00    +0.000 C 
ATOM     18  C   UNL     1       1.805   5.932  20.420  0.00  0.00    +0.000 C 
ENDBRANCH  16  18
ENDBRANCH  15  16
ENDBRANCH  14  15
ENDBRANCH  11  14
ENDBRANCH   1  11
TORSDOF 11
ENDMDL
MODEL 8
REMARK VINA RESULT:      -5.8      0.862      1.120
REMARK  Name = 
REMARK  13 active torsions:
REMARK  status: ('A' for Active; 'I' for Inactive)
REMARK    1  A    between atoms: C_1  and  C_2
REMARK    2  A    between atoms: C_2  and  C_3
REMARK    3  A    between atoms: C_3  and  C_4
REMARK    4  A    between atoms: C_4  and  C_5
REMARK    5  A    between atoms: C_5  and  C_6
REMARK    6  A    between atoms: C_6  and  O_7
REMARK    7  A    between atoms: C_6  and  C_8
REMARK    8  A    between atoms: C_9  and  C_10
REMARK    9  A    between atoms: C_11  and  C_12
REMARK   10  A    between atoms: C_12  and  O_13
REMARK   11  A    between atoms: C_12  and  C_14
REMARK   12  A    between atoms: C_14  and  C_15
REMARK   13  A    between atoms: C_15  and  C_16
REMARK                            x       y       z     vdW  Elec       q    Type
REMARK                         _______ _______ _______ _____ _____    ______ ____
ROOT
ATOM      1  C   UNL     1       5.767   4.241  17.134  0.00  0.00    +0.000 C 
ATOM      2  C   UNL     1       4.782   3.704  17.552  0.00  0.00    +0.000 C 
ENDROOT
BRANCH   2   3
ATOM      3  C   UNL     1       3.520   3.064  18.120  0.00  0.00    +0.000 C 
ATOM      4  C   UNL     1       2.551   2.565  18.615  0.00  0.00    +0.000 C 
BRANCH   4   5
ATOM      5  C   UNL     1       1.413   1.975  19.327  0.00  0.00    +0.000 C 
BRANCH   5   6
ATOM      6  O   UNL     1       0.278   1.952  18.469  0.00  0.00    +0.000 OA
ATOM      7  H   UNL     1      -0.223   2.768  18.635  0.00  0.00    +0.000 HD
ENDBRANCH   5   6
BRANCH   5   8
ATOM      8  C   UNL     1       1.116   2.806  20.577  0.00  0.00    +0.000 C 
BRANCH   8   9
ATOM      9  C   UNL     1       0.906   4.286  20.264  0.00  0.00    +0.000 C 
ATOM     10  C   UNL     1       2.019   5.130  20.867  0.00  0.00    +0.000 C 
ENDBRANCH   8   9
ENDBRANCH   5   8
ENDBRANCH   4   5
ENDBRANCH   2   3
BRANCH   1  11
ATOM     11  C   UNL     1       6.960   4.983  16.712  0.00  0.00    +0.000 C 
BRANCH  11  12
ATOM     12  O   UNL     1       8.111   4.168  16.909  0.00  0.00    +0.000 OA
ATOM     13  H   UNL     1       8.207   4.042  17.869  0.00  0.00    +0.000 HD
ENDBRANCH  11  12
BRANCH  11  14
ATOM     14  C   UNL     1       6.871   5.359  15.229  0.00  0.00    +0.000 C 
BRANCH  14  15
ATOM     15  C   UNL     1       6.826   4.133  14.315  0.00  0.00    +0.000 C 
BRANCH  15  16
ATOM     16  C   UNL     1       5.499   4.035  13.568  0.00  0.00    +0.000 C 
BRANCH  16  18
ATOM     17  C   UNL     1       4.398   3.270  11.441  0.00  0.00    +0.000 C 
ATOM     18  C   UNL     1       5.672   3.255  12.267  0.00  0.00    +0.000 C 
ENDBRANCH  16  18
ENDBRANCH  15  16
ENDBRANCH  14  15
ENDBRANCH  11  14
ENDBRANCH   1  11
TORSDOF 11
ENDMDL
MODEL 9
REMARK VINA RESULT:      -5.8      4.065      6.815
REMARK  Name = 
REMARK  13 active torsions:
REMARK  status: ('A' for Active; 'I' for Inactive)
REMARK    1  A    between atoms: C_1  and  C_2
REMARK    2  A    between atoms: C_2  and  C_3
REMARK    3  A    between atoms: C_3  and  C_4
REMARK    4  A    between atoms: C_4  and  C_5
REMARK    5  A    between atoms: C_5  and  C_6
REMARK    6  A    between atoms: C_6  and  O_7
REMARK    7  A    between atoms: C_6  and  C_8
REMARK    8  A    between atoms: C_9  and  C_10
REMARK    9  A    between atoms: C_11  and  C_12
REMARK   10  A    between atoms: C_12  and  O_13
REMARK   11  A    between atoms: C_12  and  C_14
REMARK   12  A    between atoms: C_14  and  C_15
REMARK   13  A    between atoms: C_15  and  C_16
REMARK                            x       y       z     vdW  Elec       q    Type
REMARK                         _______ _______ _______ _____ _____    ______ ____
ROOT
ATOM      1  C   UNL     1       3.764   4.889  18.026  0.00  0.00    +0.000 C 
ATOM      2  C   UNL     1       3.254   5.973  17.996  0.00  0.00    +0.000 C 
ENDROOT
BRANCH   2   3
ATOM      3  C   UNL     1       2.596   7.345  17.902  0.00  0.00    +0.000 C 
ATOM      4  C   UNL     1       2.055   8.413  17.877  0.00  0.00    +0.000 C 
BRANCH   4   5
ATOM      5  C   UNL     1       1.350   9.696  17.953  0.00  0.00    +0.000 C 
BRANCH   5   6
ATOM      6  O   UNL     1       2.282  10.758  17.788  0.00  0.00    +0.000 OA
ATOM      7  H   UNL     1       2.833  10.783  18.588  0.00  0.00    +0.000 HD
ENDBRANCH   5   6
BRANCH   5   8
ATOM      8  C   UNL     1       0.654   9.807  19.311  0.00  0.00    +0.000 C 
BRANCH   8   9
ATOM      9  C   UNL     1      -0.815  10.208  19.189  0.00  0.00    +0.000 C 
ATOM     10  C   UNL     1      -1.284  10.111  17.745  0.00  0.00    +0.000 C 
ENDBRANCH   8   9
ENDBRANCH   5   8
ENDBRANCH   4   5
ENDBRANCH   2   3
BRANCH   1  11
ATOM     11  C   UNL     1       4.379   3.561  17.938  0.00  0.00    +0.000 C 
BRANCH  11  12
ATOM     12  O   UNL     1       5.089   3.295  19.143  0.00  0.00    +0.000 OA
ATOM     13  H   UNL     1       6.014   3.554  18.989  0.00  0.00    +0.000 HD
ENDBRANCH  11  12
BRANCH  11  14
ATOM     14  C   UNL     1       3.311   2.479  17.746  0.00  0.00    +0.000 C 
BRANCH  14  15
ATOM     15  C   UNL     1       2.593   2.127  19.051  0.00  0.00    +0.000 C 
BRANCH  15  16
ATOM     16  C   UNL     1       1.211   2.772  19.124  0.00  0.00    +0.000 C 
BRANCH  16  18
ATOM     17  C   UNL     1       2.058   3.017  21.479  0.00  0.00    +0.000 C 
ATOM     18  C   UNL     1       1.012   3.460  20.472  0.00  0.00    +0.000 C 
ENDBRANCH  16  18
ENDBRANCH  15  16
ENDBRANCH  14  15
ENDBRANCH  11  14
ENDBRANCH   1  11
TORSDOF 11
ENDMDL
