MODEL 1
REMARK VINA RESULT:      -8.4      0.000      0.000
REMARK  Name = 
REMARK  4 active torsions:
REMARK  status: ('A' for Active; 'I' for Inactive)
REMARK    1  A    between atoms: C_1  and  S_2
REMARK    2  A    between atoms: S_2  and  C_3
REMARK    3  A    between atoms: C_6  and  C_7
REMARK    4  A    between atoms: C_13  and  C_14
REMARK                            x       y       z     vdW  Elec       q    Type
REMARK                         _______ _______ _______ _____ _____    ______ ____
ROOT
ATOM      1  C   UNL     1       8.535   9.436  18.352  0.00  0.00    +0.000 C 
ATOM      2  O   UNL     1       7.788   9.508  17.384  0.00  0.00    +0.000 OA
ATOM      3  N   UNL     1       8.762   8.298  19.083  0.00  0.00    +0.000 N 
ATOM      4  C   UNL     1       8.218   7.093  18.745  0.00  0.00    +0.000 A 
ATOM      5  N   UNL     1       8.223   6.022  19.506  0.00  0.00    +0.000 NA
ATOM      6  N   UNL     1       7.594   5.036  18.788  0.00  0.00    +0.000 NA
ATOM      7  C   UNL     1       7.292   5.557  17.612  0.00  0.00    +0.000 A 
ATOM      8  O   UNL     1       7.660   6.871  17.512  0.00  0.00    +0.000 OA
ATOM      9  H   UNL     1       9.229   8.307  19.975  0.00  0.00    +0.000 HD
ENDROOT
BRANCH   7  10
ATOM     10  C   UNL     1       6.638   4.914  16.483  0.00  0.00    +0.000 A 
ATOM     11  C   UNL     1       5.393   4.288  16.539  0.00  0.00    +0.000 A 
ATOM     12  C   UNL     1       4.808   3.769  15.369  0.00  0.00    +0.000 A 
ATOM     13  C   UNL     1       5.467   3.848  14.125  0.00  0.00    +0.000 A 
ATOM     14  C   UNL     1       6.720   4.454  14.070  0.00  0.00    +0.000 A 
ATOM     15  C   UNL     1       7.282   4.982  15.242  0.00  0.00    +0.000 A 
ATOM     16  C   UNL     1       7.461   4.669  12.787  0.00  0.00    +0.000 C 
ATOM     17  C   UNL     1       7.047   3.787  11.623  0.00  0.00    +0.000 C 
ATOM     18  C   UNL     1       5.608   3.291  11.594  0.00  0.00    +0.000 C 
ATOM     19  C   UNL     1       4.784   3.348  12.884  0.00  0.00    +0.000 C 
ENDBRANCH   7  10
BRANCH   1  23
ATOM     20  C   UNL     1      10.505  13.109  19.474  0.00  0.00    +0.000 A 
ATOM     21  C   UNL     1       9.723  13.021  18.325  0.00  0.00    +0.000 A 
ATOM     22  C   UNL     1       9.084  11.823  18.000  0.00  0.00    +0.000 A 
ATOM     23  C   UNL     1       9.225  10.685  18.808  0.00  0.00    +0.000 A 
ATOM     24  C   UNL     1      10.025  10.767  19.953  0.00  0.00    +0.000 A 
ATOM     25  C   UNL     1      10.659  11.979  20.280  0.00  0.00    +0.000 A 
BRANCH  20  27
ATOM     26  C   UNL     1      10.691  15.722  18.630  0.00  0.00    +0.000 C 
ATOM     27  S   UNL     1      11.363  14.613  19.897  0.00  0.00    +0.000 S 
ENDBRANCH  20  27
ENDBRANCH   1  23
TORSDOF 3
ENDMDL
MODEL 2
REMARK VINA RESULT:      -8.3      5.925      6.797
REMARK  Name = 
REMARK  4 active torsions:
REMARK  status: ('A' for Active; 'I' for Inactive)
REMARK    1  A    between atoms: C_1  and  S_2
REMARK    2  A    between atoms: S_2  and  C_3
REMARK    3  A    between atoms: C_6  and  C_7
REMARK    4  A    between atoms: C_13  and  C_14
REMARK                            x       y       z     vdW  Elec       q    Type
REMARK                         _______ _______ _______ _____ _____    ______ ____
ROOT
ATOM      1  C   UNL     1       1.981   7.879  19.626  0.00  0.00    +0.000 C 
ATOM      2  O   UNL     1       2.134   8.223  18.460  0.00  0.00    +0.000 OA
ATOM      3  N   UNL     1       2.498   6.735  20.178  0.00  0.00    +0.000 N 
ATOM      4  C   UNL     1       3.313   5.891  19.481  0.00  0.00    +0.000 A 
ATOM      5  N   UNL     1       3.669   4.689  19.873  0.00  0.00    +0.000 NA
ATOM      6  N   UNL     1       4.497   4.194  18.896  0.00  0.00    +0.000 NA
ATOM      7  C   UNL     1       4.632   5.150  17.994  0.00  0.00    +0.000 A 
ATOM      8  O   UNL     1       3.902   6.266  18.300  0.00  0.00    +0.000 OA
ATOM      9  H   UNL     1       2.208   6.383  21.076  0.00  0.00    +0.000 HD
ENDROOT
BRANCH   7  10
ATOM     10  C   UNL     1       5.427   5.131  16.776  0.00  0.00    +0.000 A 
ATOM     11  C   UNL     1       6.675   5.735  16.634  0.00  0.00    +0.000 A 
ATOM     12  C   UNL     1       7.403   5.586  15.439  0.00  0.00    +0.000 A 
ATOM     13  C   UNL     1       6.884   4.849  14.355  0.00  0.00    +0.000 A 
ATOM     14  C   UNL     1       5.627   4.263  14.485  0.00  0.00    +0.000 A 
ATOM     15  C   UNL     1       4.923   4.405  15.690  0.00  0.00    +0.000 A 
ATOM     16  C   UNL     1       5.028   3.386  13.430  0.00  0.00    +0.000 C 
ATOM     17  C   UNL     1       5.595   3.545  12.031  0.00  0.00    +0.000 C 
ATOM     18  C   UNL     1       7.043   4.000  11.907  0.00  0.00    +0.000 C 
ATOM     19  C   UNL     1       7.715   4.651  13.119  0.00  0.00    +0.000 C 
ENDBRANCH   7  10
BRANCH   1  23
ATOM     20  C   UNL     1      -0.469  10.497  22.031  0.00  0.00    +0.000 A 
ATOM     21  C   UNL     1      -0.397  10.630  20.646  0.00  0.00    +0.000 A 
ATOM     22  C   UNL     1       0.390   9.755  19.895  0.00  0.00    +0.000 A 
ATOM     23  C   UNL     1       1.134   8.739  20.513  0.00  0.00    +0.000 A 
ATOM     24  C   UNL     1       1.078   8.615  21.906  0.00  0.00    +0.000 A 
ATOM     25  C   UNL     1       0.276   9.494  22.656  0.00  0.00    +0.000 A 
BRANCH  20  27
ATOM     26  C   UNL     1      -0.770  13.202  22.434  0.00  0.00    +0.000 C 
ATOM     27  S   UNL     1      -1.435  11.620  23.021  0.00  0.00    +0.000 S 
ENDBRANCH  20  27
ENDBRANCH   1  23
TORSDOF 3
ENDMDL
MODEL 3
REMARK VINA RESULT:      -8.3      8.601      9.530
REMARK  Name = 
REMARK  4 active torsions:
REMARK  status: ('A' for Active; 'I' for Inactive)
REMARK    1  A    between atoms: C_1  and  S_2
REMARK    2  A    between atoms: S_2  and  C_3
REMARK    3  A    between atoms: C_6  and  C_7
REMARK    4  A    between atoms: C_13  and  C_14
REMARK                            x       y       z     vdW  Elec       q    Type
REMARK                         _______ _______ _______ _____ _____    ______ ____
ROOT
ATOM      1  C   UNL     1       0.200  11.019  21.487  0.00  0.00    +0.000 C 
ATOM      2  O   UNL     1       0.811  10.170  22.126  0.00  0.00    +0.000 OA
ATOM      3  N   UNL     1       0.234  11.148  20.122  0.00  0.00    +0.000 N 
ATOM      4  C   UNL     1       0.911  10.271  19.324  0.00  0.00    +0.000 A 
ATOM      5  N   UNL     1       1.156  10.450  18.046  0.00  0.00    +0.000 NA
ATOM      6  N   UNL     1       1.840   9.336  17.625  0.00  0.00    +0.000 NA
ATOM      7  C   UNL     1       1.921   8.526  18.666  0.00  0.00    +0.000 A 
ATOM      8  O   UNL     1       1.350   9.058  19.789  0.00  0.00    +0.000 OA
ATOM      9  H   UNL     1      -0.122  11.957  19.641  0.00  0.00    +0.000 HD
ENDROOT
BRANCH   7  10
ATOM     10  C   UNL     1       2.529   7.206  18.734  0.00  0.00    +0.000 A 
ATOM     11  C   UNL     1       3.509   6.738  17.860  0.00  0.00    +0.000 A 
ATOM     12  C   UNL     1       4.096   5.476  18.064  0.00  0.00    +0.000 A 
ATOM     13  C   UNL     1       3.698   4.649  19.134  0.00  0.00    +0.000 A 
ATOM     14  C   UNL     1       2.705   5.105  19.997  0.00  0.00    +0.000 A 
ATOM     15  C   UNL     1       2.142   6.373  19.791  0.00  0.00    +0.000 A 
ATOM     16  C   UNL     1       2.276   4.345  21.215  0.00  0.00    +0.000 C 
ATOM     17  C   UNL     1       2.594   2.861  21.218  0.00  0.00    +0.000 C 
ATOM     18  C   UNL     1       3.808   2.399  20.424  0.00  0.00    +0.000 C 
ATOM     19  C   UNL     1       4.393   3.337  19.364  0.00  0.00    +0.000 C 
ENDBRANCH   7  10
BRANCH   1  23
ATOM     20  C   UNL     1      -2.306  13.791  23.649  0.00  0.00    +0.000 A 
ATOM     21  C   UNL     1      -2.653  12.449  23.507  0.00  0.00    +0.000 A 
ATOM     22  C   UNL     1      -1.810  11.574  22.818  0.00  0.00    +0.000 A 
ATOM     23  C   UNL     1      -0.613  12.025  22.243  0.00  0.00    +0.000 A 
ATOM     24  C   UNL     1      -0.273  13.377  22.368  0.00  0.00    +0.000 A 
ATOM     25  C   UNL     1      -1.121  14.251  23.071  0.00  0.00    +0.000 A 
BRANCH  20  27
ATOM     26  C   UNL     1      -2.151  15.841  25.478  0.00  0.00    +0.000 C 
ATOM     27  S   UNL     1      -3.377  14.941  24.490  0.00  0.00    +0.000 S 
ENDBRANCH  20  27
ENDBRANCH   1  23
TORSDOF 3
ENDMDL
MODEL 4
REMARK VINA RESULT:      -8.2      6.106      7.032
REMARK  Name = 
REMARK  4 active torsions:
REMARK  status: ('A' for Active; 'I' for Inactive)
REMARK    1  A    between atoms: C_1  and  S_2
REMARK    2  A    between atoms: S_2  and  C_3
REMARK    3  A    between atoms: C_6  and  C_7
REMARK    4  A    between atoms: C_13  and  C_14
REMARK                            x       y       z     vdW  Elec       q    Type
REMARK                         _______ _______ _______ _____ _____    ______ ____
ROOT
ATOM      1  C   UNL     1       1.893   8.148  19.502  0.00  0.00    +0.000 C 
ATOM      2  O   UNL     1       2.092   8.479  18.340  0.00  0.00    +0.000 OA
ATOM      3  N   UNL     1       2.353   6.991  20.077  0.00  0.00    +0.000 N 
ATOM      4  C   UNL     1       3.160   6.116  19.410  0.00  0.00    +0.000 A 
ATOM      5  N   UNL     1       3.463   4.906  19.820  0.00  0.00    +0.000 NA
ATOM      6  N   UNL     1       4.303   4.376  18.872  0.00  0.00    +0.000 NA
ATOM      7  C   UNL     1       4.498   5.320  17.969  0.00  0.00    +0.000 A 
ATOM      8  O   UNL     1       3.797   6.462  18.246  0.00  0.00    +0.000 OA
ATOM      9  H   UNL     1       2.025   6.656  20.968  0.00  0.00    +0.000 HD
ENDROOT
BRANCH   7  10
ATOM     10  C   UNL     1       5.328   5.267  16.776  0.00  0.00    +0.000 A 
ATOM     11  C   UNL     1       6.582   5.866  16.654  0.00  0.00    +0.000 A 
ATOM     12  C   UNL     1       7.344   5.682  15.485  0.00  0.00    +0.000 A 
ATOM     13  C   UNL     1       6.856   4.914  14.408  0.00  0.00    +0.000 A 
ATOM     14  C   UNL     1       5.596   4.332  14.518  0.00  0.00    +0.000 A 
ATOM     15  C   UNL     1       4.856   4.509  15.697  0.00  0.00    +0.000 A 
ATOM     16  C   UNL     1       5.027   3.425  13.471  0.00  0.00    +0.000 C 
ATOM     17  C   UNL     1       5.635   3.545  12.086  0.00  0.00    +0.000 C 
ATOM     18  C   UNL     1       7.086   3.996  11.991  0.00  0.00    +0.000 C 
ATOM     19  C   UNL     1       7.724   4.681  13.204  0.00  0.00    +0.000 C 
ENDBRANCH   7  10
BRANCH   1  23
ATOM     20  C   UNL     1      -0.562  10.566  22.103  0.00  0.00    +0.000 A 
ATOM     21  C   UNL     1       0.066   9.409  22.559  0.00  0.00    +0.000 A 
ATOM     22  C   UNL     1       0.869   8.659  21.696  0.00  0.00    +0.000 A 
ATOM     23  C   UNL     1       1.048   9.042  20.358  0.00  0.00    +0.000 A 
ATOM     24  C   UNL     1       0.402  10.193  19.895  0.00  0.00    +0.000 A 
ATOM     25  C   UNL     1      -0.397  10.949  20.770  0.00  0.00    +0.000 A 
BRANCH  20  27
ATOM     26  C   UNL     1      -2.506  12.506  21.926  0.00  0.00    +0.000 C 
ATOM     27  S   UNL     1      -1.622  11.524  23.168  0.00  0.00    +0.000 S 
ENDBRANCH  20  27
ENDBRANCH   1  23
TORSDOF 3
ENDMDL
MODEL 5
REMARK VINA RESULT:      -8.1      8.577      9.465
REMARK  Name = 
REMARK  4 active torsions:
REMARK  status: ('A' for Active; 'I' for Inactive)
REMARK    1  A    between atoms: C_1  and  S_2
REMARK    2  A    between atoms: S_2  and  C_3
REMARK    3  A    between atoms: C_6  and  C_7
REMARK    4  A    between atoms: C_13  and  C_14
REMARK                            x       y       z     vdW  Elec       q    Type
REMARK                         _______ _______ _______ _____ _____    ______ ____
ROOT
ATOM      1  C   UNL     1      -0.212  10.405  20.849  0.00  0.00    +0.000 C 
ATOM      2  O   UNL     1       0.074   9.311  21.322  0.00  0.00    +0.000 OA
ATOM      3  N   UNL     1       0.339  10.934  19.710  0.00  0.00    +0.000 N 
ATOM      4  C   UNL     1       1.225  10.240  18.937  0.00  0.00    +0.000 A 
ATOM      5  N   UNL     1       1.941  10.753  17.963  0.00  0.00    +0.000 NA
ATOM      6  N   UNL     1       2.680   9.720  17.442  0.00  0.00    +0.000 NA
ATOM      7  C   UNL     1       2.326   8.631  18.101  0.00  0.00    +0.000 A 
ATOM      8  O   UNL     1       1.400   8.886  19.075  0.00  0.00    +0.000 OA
ATOM      9  H   UNL     1       0.227  11.899  19.447  0.00  0.00    +0.000 HD
ENDROOT
BRANCH   7  10
ATOM     10  C   UNL     1       2.802   7.270  17.912  0.00  0.00    +0.000 A 
ATOM     11  C   UNL     1       4.059   6.932  17.412  0.00  0.00    +0.000 A 
ATOM     12  C   UNL     1       4.457   5.583  17.348  0.00  0.00    +0.000 A 
ATOM     13  C   UNL     1       3.595   4.547  17.762  0.00  0.00    +0.000 A 
ATOM     14  C   UNL     1       2.331   4.880  18.241  0.00  0.00    +0.000 A 
ATOM     15  C   UNL     1       1.957   6.230  18.317  0.00  0.00    +0.000 A 
ATOM     16  C   UNL     1       1.377   3.863  18.790  0.00  0.00    +0.000 C 
ATOM     17  C   UNL     1       1.619   2.427  18.365  0.00  0.00    +0.000 C 
ATOM     18  C   UNL     1       3.050   2.024  18.032  0.00  0.00    +0.000 C 
ATOM     19  C   UNL     1       4.076   3.124  17.746  0.00  0.00    +0.000 C 
ENDBRANCH   7  10
BRANCH   1  23
ATOM     20  C   UNL     1      -3.058  12.995  22.806  0.00  0.00    +0.000 A 
ATOM     21  C   UNL     1      -2.803  13.089  21.439  0.00  0.00    +0.000 A 
ATOM     22  C   UNL     1      -1.890  12.223  20.833  0.00  0.00    +0.000 A 
ATOM     23  C   UNL     1      -1.202  11.256  21.583  0.00  0.00    +0.000 A 
ATOM     24  C   UNL     1      -1.443  11.174  22.958  0.00  0.00    +0.000 A 
ATOM     25  C   UNL     1      -2.370  12.042  23.561  0.00  0.00    +0.000 A 
BRANCH  20  27
ATOM     26  C   UNL     1      -5.577  12.981  23.911  0.00  0.00    +0.000 C 
ATOM     27  S   UNL     1      -4.189  14.109  23.615  0.00  0.00    +0.000 S 
ENDBRANCH  20  27
ENDBRANCH   1  23
TORSDOF 3
ENDMDL
MODEL 6
REMARK VINA RESULT:      -8.1      8.599      9.503
REMARK  Name = 
REMARK  4 active torsions:
REMARK  status: ('A' for Active; 'I' for Inactive)
REMARK    1  A    between atoms: C_1  and  S_2
REMARK    2  A    between atoms: S_2  and  C_3
REMARK    3  A    between atoms: C_6  and  C_7
REMARK    4  A    between atoms: C_13  and  C_14
REMARK                            x       y       z     vdW  Elec       q    Type
REMARK                         _______ _______ _______ _____ _____    ______ ____
ROOT
ATOM      1  C   UNL     1       0.059  10.969  21.504  0.00  0.00    +0.000 C 
ATOM      2  O   UNL     1       0.636  10.095  22.138  0.00  0.00    +0.000 OA
ATOM      3  N   UNL     1       0.169  11.156  20.149  0.00  0.00    +0.000 N 
ATOM      4  C   UNL     1       0.893  10.316  19.353  0.00  0.00    +0.000 A 
ATOM      5  N   UNL     1       1.209  10.549  18.100  0.00  0.00    +0.000 NA
ATOM      6  N   UNL     1       1.919   9.455  17.671  0.00  0.00    +0.000 NA
ATOM      7  C   UNL     1       1.944   8.601  18.680  0.00  0.00    +0.000 A 
ATOM      8  O   UNL     1       1.309   9.085  19.791  0.00  0.00    +0.000 OA
ATOM      9  H   UNL     1      -0.163  11.985  19.684  0.00  0.00    +0.000 HD
ENDROOT
BRANCH   7  10
ATOM     10  C   UNL     1       2.553   7.281  18.726  0.00  0.00    +0.000 A 
ATOM     11  C   UNL     1       3.538   6.830  17.848  0.00  0.00    +0.000 A 
ATOM     12  C   UNL     1       4.124   5.564  18.031  0.00  0.00    +0.000 A 
ATOM     13  C   UNL     1       3.719   4.716  19.082  0.00  0.00    +0.000 A 
ATOM     14  C   UNL     1       2.721   5.155  19.948  0.00  0.00    +0.000 A 
ATOM     15  C   UNL     1       2.159   6.427  19.764  0.00  0.00    +0.000 A 
ATOM     16  C   UNL     1       2.285   4.370  21.147  0.00  0.00    +0.000 C 
ATOM     17  C   UNL     1       2.603   2.887  21.123  0.00  0.00    +0.000 C 
ATOM     18  C   UNL     1       3.823   2.441  20.328  0.00  0.00    +0.000 C 
ATOM     19  C   UNL     1       4.414   3.400  19.291  0.00  0.00    +0.000 C 
ENDBRANCH   7  10
BRANCH   1  23
ATOM     20  C   UNL     1      -2.252  13.900  23.673  0.00  0.00    +0.000 A 
ATOM     21  C   UNL     1      -1.088  14.247  22.990  0.00  0.00    +0.000 A 
ATOM     22  C   UNL     1      -0.374  13.278  22.281  0.00  0.00    +0.000 A 
ATOM     23  C   UNL     1      -0.799  11.941  22.255  0.00  0.00    +0.000 A 
ATOM     24  C   UNL     1      -1.956  11.588  22.957  0.00  0.00    +0.000 A 
ATOM     25  C   UNL     1      -2.677  12.570  23.660  0.00  0.00    +0.000 A 
BRANCH  20  27
ATOM     26  C   UNL     1      -2.310  16.618  24.099  0.00  0.00    +0.000 C 
ATOM     27  S   UNL     1      -3.166  15.106  24.616  0.00  0.00    +0.000 S 
ENDBRANCH  20  27
ENDBRANCH   1  23
TORSDOF 3
ENDMDL
MODEL 7
REMARK VINA RESULT:      -8.1      9.703     12.059
REMARK  Name = 
REMARK  4 active torsions:
REMARK  status: ('A' for Active; 'I' for Inactive)
REMARK    1  A    between atoms: C_1  and  S_2
REMARK    2  A    between atoms: S_2  and  C_3
REMARK    3  A    between atoms: C_6  and  C_7
REMARK    4  A    between atoms: C_13  and  C_14
REMARK                            x       y       z     vdW  Elec       q    Type
REMARK                         _______ _______ _______ _____ _____    ______ ____
ROOT
ATOM      1  C   UNL     1       1.944   8.112  19.294  0.00  0.00    +0.000 C 
ATOM      2  O   UNL     1       1.401   8.973  18.611  0.00  0.00    +0.000 OA
ATOM      3  N   UNL     1       1.921   8.070  20.665  0.00  0.00    +0.000 N 
ATOM      4  C   UNL     1       1.210   8.965  21.411  0.00  0.00    +0.000 A 
ATOM      5  N   UNL     1       1.309   9.111  22.712  0.00  0.00    +0.000 NA
ATOM      6  N   UNL     1       0.417  10.096  23.059  0.00  0.00    +0.000 NA
ATOM      7  C   UNL     1      -0.205  10.451  21.949  0.00  0.00    +0.000 A 
ATOM      8  O   UNL     1       0.250   9.771  20.853  0.00  0.00    +0.000 OA
ATOM      9  H   UNL     1       2.523   7.468  21.203  0.00  0.00    +0.000 HD
ENDROOT
BRANCH   7  10
ATOM     10  C   UNL     1      -1.259  11.441  21.785  0.00  0.00    +0.000 A 
ATOM     11  C   UNL     1      -1.565  12.081  20.586  0.00  0.00    +0.000 A 
ATOM     12  C   UNL     1      -2.662  12.961  20.513  0.00  0.00    +0.000 A 
ATOM     13  C   UNL     1      -3.457  13.233  21.644  0.00  0.00    +0.000 A 
ATOM     14  C   UNL     1      -3.140  12.611  22.849  0.00  0.00    +0.000 A 
ATOM     15  C   UNL     1      -2.056  11.722  22.901  0.00  0.00    +0.000 A 
ATOM     16  C   UNL     1      -3.975  12.761  24.084  0.00  0.00    +0.000 C 
ATOM     17  C   UNL     1      -4.882  13.977  24.129  0.00  0.00    +0.000 C 
ATOM     18  C   UNL     1      -5.384  14.530  22.802  0.00  0.00    +0.000 C 
ATOM     19  C   UNL     1      -4.661  14.122  21.515  0.00  0.00    +0.000 C 
ENDBRANCH   7  10
BRANCH   1  23
ATOM     20  C   UNL     1       4.270   5.182  17.140  0.00  0.00    +0.000 A 
ATOM     21  C   UNL     1       4.476   6.549  16.968  0.00  0.00    +0.000 A 
ATOM     22  C   UNL     1       3.719   7.471  17.694  0.00  0.00    +0.000 A 
ATOM     23  C   UNL     1       2.732   7.046  18.596  0.00  0.00    +0.000 A 
ATOM     24  C   UNL     1       2.511   5.674  18.756  0.00  0.00    +0.000 A 
ATOM     25  C   UNL     1       3.283   4.750  18.029  0.00  0.00    +0.000 A 
BRANCH  20  27
ATOM     26  C   UNL     1       6.882   4.536  16.563  0.00  0.00    +0.000 C 
ATOM     27  S   UNL     1       5.194   3.981  16.202  0.00  0.00    +0.000 S 
ENDBRANCH  20  27
ENDBRANCH   1  23
TORSDOF 3
ENDMDL
MODEL 8
REMARK VINA RESULT:      -8.1      8.905      9.972
REMARK  Name = 
REMARK  4 active torsions:
REMARK  status: ('A' for Active; 'I' for Inactive)
REMARK    1  A    between atoms: C_1  and  S_2
REMARK    2  A    between atoms: S_2  and  C_3
REMARK    3  A    between atoms: C_6  and  C_7
REMARK    4  A    between atoms: C_13  and  C_14
REMARK                            x       y       z     vdW  Elec       q    Type
REMARK                         _______ _______ _______ _____ _____    ______ ____
ROOT
ATOM      1  C   UNL     1      -0.409  10.703  20.915  0.00  0.00    +0.000 C 
ATOM      2  O   UNL     1       0.014   9.799  21.627  0.00  0.00    +0.000 OA
ATOM      3  N   UNL     1       0.006  10.947  19.631  0.00  0.00    +0.000 N 
ATOM      4  C   UNL     1       0.897  10.139  18.985  0.00  0.00    +0.000 A 
ATOM      5  N   UNL     1       1.489  10.424  17.848  0.00  0.00    +0.000 NA
ATOM      6  N   UNL     1       2.285   9.347  17.547  0.00  0.00    +0.000 NA
ATOM      7  C   UNL     1       2.086   8.452  18.497  0.00  0.00    +0.000 A 
ATOM      8  O   UNL     1       1.211   8.889  19.454  0.00  0.00    +0.000 OA
ATOM      9  H   UNL     1      -0.217  11.796  19.137  0.00  0.00    +0.000 HD
ENDROOT
BRANCH   7  10
ATOM     10  C   UNL     1       2.677   7.128  18.625  0.00  0.00    +0.000 A 
ATOM     11  C   UNL     1       3.693   6.632  17.810  0.00  0.00    +0.000 A 
ATOM     12  C   UNL     1       4.257   5.369  18.071  0.00  0.00    +0.000 A 
ATOM     13  C   UNL     1       3.798   4.570  19.138  0.00  0.00    +0.000 A 
ATOM     14  C   UNL     1       2.768   5.054  19.940  0.00  0.00    +0.000 A 
ATOM     15  C   UNL     1       2.229   6.323  19.679  0.00  0.00    +0.000 A 
ATOM     16  C   UNL     1       2.272   4.325  21.151  0.00  0.00    +0.000 C 
ATOM     17  C   UNL     1       2.573   2.839  21.202  0.00  0.00    +0.000 C 
ATOM     18  C   UNL     1       3.821   2.349  20.480  0.00  0.00    +0.000 C 
ATOM     19  C   UNL     1       4.468   3.258  19.431  0.00  0.00    +0.000 C 
ENDBRANCH   7  10
BRANCH   1  23
ATOM     20  C   UNL     1      -3.343  13.289  22.741  0.00  0.00    +0.000 A 
ATOM     21  C   UNL     1      -2.633  12.350  23.485  0.00  0.00    +0.000 A 
ATOM     22  C   UNL     1      -1.677  11.541  22.867  0.00  0.00    +0.000 A 
ATOM     23  C   UNL     1      -1.422  11.644  21.492  0.00  0.00    +0.000 A 
ATOM     24  C   UNL     1      -2.148  12.574  20.740  0.00  0.00    +0.000 A 
ATOM     25  C   UNL     1      -3.102  13.392  21.369  0.00  0.00    +0.000 A 
BRANCH  20  27
ATOM     26  C   UNL     1      -5.838  13.047  23.876  0.00  0.00    +0.000 C 
ATOM     27  S   UNL     1      -4.596  14.311  23.493  0.00  0.00    +0.000 S 
ENDBRANCH  20  27
ENDBRANCH   1  23
TORSDOF 3
ENDMDL
MODEL 9
REMARK VINA RESULT:      -8.0      8.024      8.844
REMARK  Name = 
REMARK  4 active torsions:
REMARK  status: ('A' for Active; 'I' for Inactive)
REMARK    1  A    between atoms: C_1  and  S_2
REMARK    2  A    between atoms: S_2  and  C_3
REMARK    3  A    between atoms: C_6  and  C_7
REMARK    4  A    between atoms: C_13  and  C_14
REMARK                            x       y       z     vdW  Elec       q    Type
REMARK                         _______ _______ _______ _____ _____    ______ ____
ROOT
ATOM      1  C   UNL     1       0.499  10.519  21.058  0.00  0.00    +0.000 C 
ATOM      2  O   UNL     1       0.923   9.515  21.617  0.00  0.00    +0.000 OA
ATOM      3  N   UNL     1       0.743  10.848  19.749  0.00  0.00    +0.000 N 
ATOM      4  C   UNL     1       1.437  10.028  18.907  0.00  0.00    +0.000 A 
ATOM      5  N   UNL     1       1.881  10.367  17.719  0.00  0.00    +0.000 NA
ATOM      6  N   UNL     1       2.502   9.254  17.208  0.00  0.00    +0.000 NA
ATOM      7  C   UNL     1       2.351   8.292  18.100  0.00  0.00    +0.000 A 
ATOM      8  O   UNL     1       1.680   8.714  19.215  0.00  0.00    +0.000 OA
ATOM      9  H   UNL     1       0.542  11.759  19.368  0.00  0.00    +0.000 HD
ENDROOT
BRANCH   7  10
ATOM     10  C   UNL     1       2.808   6.913  18.024  0.00  0.00    +0.000 A 
ATOM     11  C   UNL     1       4.078   6.521  17.603  0.00  0.00    +0.000 A 
ATOM     12  C   UNL     1       4.451   5.165  17.647  0.00  0.00    +0.000 A 
ATOM     13  C   UNL     1       3.552   4.174  18.092  0.00  0.00    +0.000 A 
ATOM     14  C   UNL     1       2.276   4.560  18.492  0.00  0.00    +0.000 A 
ATOM     15  C   UNL     1       1.926   5.918  18.460  0.00  0.00    +0.000 A 
ATOM     16  C   UNL     1       1.280   3.599  19.065  0.00  0.00    +0.000 C 
ATOM     17  C   UNL     1       1.512   2.133  18.748  0.00  0.00    +0.000 C 
ATOM     18  C   UNL     1       2.946   1.684  18.506  0.00  0.00    +0.000 C 
ATOM     19  C   UNL     1       4.005   2.745  18.192  0.00  0.00    +0.000 C 
ENDBRANCH   7  10
BRANCH   1  23
ATOM     20  C   UNL     1      -1.682  13.459  23.346  0.00  0.00    +0.000 A 
ATOM     21  C   UNL     1      -0.667  13.825  22.465  0.00  0.00    +0.000 A 
ATOM     22  C   UNL     1       0.007  12.850  21.725  0.00  0.00    +0.000 A 
ATOM     23  C   UNL     1      -0.309  11.490  21.862  0.00  0.00    +0.000 A 
ATOM     24  C   UNL     1      -1.316  11.120  22.761  0.00  0.00    +0.000 A 
ATOM     25  C   UNL     1      -1.997  12.107  23.496  0.00  0.00    +0.000 A 
BRANCH  20  27
ATOM     26  C   UNL     1      -2.498  16.083  23.189  0.00  0.00    +0.000 C 
ATOM     27  S   UNL     1      -2.536  14.675  24.331  0.00  0.00    +0.000 S 
ENDBRANCH  20  27
ENDBRANCH   1  23
TORSDOF 3
ENDMDL
