MODEL 1
REMARK VINA RESULT:      -9.0      0.000      0.000
REMARK  Name = 
REMARK  11 active torsions:
REMARK  status: ('A' for Active; 'I' for Inactive)
REMARK    1  A    between atoms: C_1  and  C_2
REMARK    2  A    between atoms: C_2  and  C_31
REMARK    3  A    between atoms: N_3  and  O_4
REMARK    4  A    between atoms: O_4  and  C_5
REMARK    5  A    between atoms: C_5  and  C_6
REMARK    6  A    between atoms: C_6  and  C_7
REMARK    7  A    between atoms: C_6  and  C_25
REMARK    8  A    between atoms: C_10  and  O_11
REMARK    9  A    between atoms: O_11  and  C_12
REMARK   10  A    between atoms: C_12  and  C_13
REMARK   11  A    between atoms: C_31  and  O_33
REMARK                            x       y       z     vdW  Elec       q    Type
REMARK                         _______ _______ _______ _____ _____    ______ ____
ROOT
ATOM      1  C   UNL     1       3.223   5.986  18.623  0.00  0.00    +0.000 A 
ATOM      2  C   UNL     1       2.782   6.238  19.938  0.00  0.00    +0.000 A 
ATOM      3  C   UNL     1       2.023   7.365  20.293  0.00  0.00    +0.000 A 
ATOM      4  C   UNL     1       1.729   8.348  19.363  0.00  0.00    +0.000 A 
ATOM      5  C   UNL     1       2.161   8.139  18.048  0.00  0.00    +0.000 A 
ATOM      6  C   UNL     1       2.878   6.969  17.678  0.00  0.00    +0.000 A 
ENDROOT
BRANCH   1   7
ATOM      7  C   UNL     1       3.868   4.620  18.223  0.00  0.00    +0.000 C 
BRANCH   7   8
ATOM      8  C   UNL     1       2.928   3.338  18.130  0.00  0.00    +0.000 C 
ATOM      9  C   UNL     1       3.321   2.203  19.120  0.00  0.00    +0.000 C 
ATOM     10  C   UNL     1       3.002   2.556  20.568  0.00  0.00    +0.000 C 
ATOM     11  C   UNL     1       1.507   2.738  20.767  0.00  0.00    +0.000 C 
ATOM     12  C   UNL     1       0.829   3.592  19.696  0.00  0.00    +0.000 C 
ATOM     13  C   UNL     1       1.400   3.499  18.274  0.00  0.00    +0.000 C 
ENDBRANCH   7   8
BRANCH   7  14
ATOM     14  C   UNL     1       4.625   4.747  16.842  0.00  0.00    +0.000 C 
BRANCH  14  15
ATOM     15  O   UNL     1       6.046   4.683  17.008  0.00  0.00    +0.000 OA
BRANCH  15  18
ATOM     16  C   UNL     1       7.285   5.551  19.252  0.00  0.00    +0.000 C 
ATOM     17  C   UNL     1       7.195   6.342  17.974  0.00  0.00    +0.000 C 
ATOM     18  N   UNL     1       6.597   5.972  16.873  0.00  0.00    +0.000 NA
BRANCH  17  19
ATOM     19  C   UNL     1       7.893   7.695  17.989  0.00  0.00    +0.000 C 
ATOM     20  O   UNL     1       7.711   8.557  17.147  0.00  0.00    +0.000 OA
BRANCH  19  21
ATOM     21  O   UNL     1       8.734   7.810  19.035  0.00  0.00    +0.000 OA
ATOM     22  H   UNL     1       9.265   6.981  19.099  0.00  0.00    +0.000 HD
ENDBRANCH  19  21
ENDBRANCH  17  19
ENDBRANCH  15  18
ENDBRANCH  14  15
ENDBRANCH   7  14
ENDBRANCH   1   7
BRANCH   4  23
ATOM     23  O   UNL     1       1.038   9.505  19.643  0.00  0.00    +0.000 OA
BRANCH  23  24
ATOM     24  C   UNL     1       0.741  10.359  18.511  0.00  0.00    +0.000 C 
BRANCH  24  25
ATOM     25  C   UNL     1      -0.740  10.671  18.334  0.00  0.00    +0.000 A 
ATOM     26  C   UNL     1      -1.504   9.982  17.406  0.00  0.00    +0.000 A 
ATOM     27  C   UNL     1      -2.852  10.298  17.277  0.00  0.00    +0.000 A 
ATOM     28  C   UNL     1      -3.446  11.202  18.158  0.00  0.00    +0.000 A 
ATOM     29  C   UNL     1      -4.832  11.429  18.123  0.00  0.00    +0.000 A 
ATOM     30  C   UNL     1      -5.441  12.210  19.099  0.00  0.00    +0.000 A 
ATOM     31  C   UNL     1      -4.656  12.817  20.072  0.00  0.00    +0.000 A 
ATOM     32  C   UNL     1      -3.264  12.644  20.058  0.00  0.00    +0.000 A 
ATOM     33  C   UNL     1      -2.630  11.821  19.125  0.00  0.00    +0.000 A 
ATOM     34  N   UNL     1      -1.295  11.589  19.185  0.00  0.00    +0.000 NA
ENDBRANCH  24  25
ENDBRANCH  23  24
ENDBRANCH   4  23
TORSDOF 10
ENDMDL
MODEL 2
REMARK VINA RESULT:      -8.8      1.134      1.556
REMARK  Name = 
REMARK  11 active torsions:
REMARK  status: ('A' for Active; 'I' for Inactive)
REMARK    1  A    between atoms: C_1  and  C_2
REMARK    2  A    between atoms: C_2  and  C_31
REMARK    3  A    between atoms: N_3  and  O_4
REMARK    4  A    between atoms: O_4  and  C_5
REMARK    5  A    between atoms: C_5  and  C_6
REMARK    6  A    between atoms: C_6  and  C_7
REMARK    7  A    between atoms: C_6  and  C_25
REMARK    8  A    between atoms: C_10  and  O_11
REMARK    9  A    between atoms: O_11  and  C_12
REMARK   10  A    between atoms: C_12  and  C_13
REMARK   11  A    between atoms: C_31  and  O_33
REMARK                            x       y       z     vdW  Elec       q    Type
REMARK                         _______ _______ _______ _____ _____    ______ ____
ROOT
ATOM      1  C   UNL     1       2.438   6.879  19.166  0.00  0.00    +0.000 A 
ATOM      2  C   UNL     1       1.927   7.233  20.432  0.00  0.00    +0.000 A 
ATOM      3  C   UNL     1       1.255   8.441  20.680  0.00  0.00    +0.000 A 
ATOM      4  C   UNL     1       1.127   9.401  19.690  0.00  0.00    +0.000 A 
ATOM      5  C   UNL     1       1.634   9.091  18.423  0.00  0.00    +0.000 A 
ATOM      6  C   UNL     1       2.262   7.842  18.159  0.00  0.00    +0.000 A 
ENDROOT
BRANCH   1   7
ATOM      7  C   UNL     1       2.977   5.441  18.875  0.00  0.00    +0.000 C 
BRANCH   7   8
ATOM      8  C   UNL     1       1.969   4.214  19.001  0.00  0.00    +0.000 C 
ATOM      9  C   UNL     1       2.663   2.825  18.905  0.00  0.00    +0.000 C 
ATOM     10  C   UNL     1       3.497   2.502  20.139  0.00  0.00    +0.000 C 
ATOM     11  C   UNL     1       2.622   2.408  21.378  0.00  0.00    +0.000 C 
ATOM     12  C   UNL     1       1.611   3.545  21.521  0.00  0.00    +0.000 C 
ATOM     13  C   UNL     1       1.030   4.121  20.222  0.00  0.00    +0.000 C 
ENDBRANCH   7   8
BRANCH   7  14
ATOM     14  C   UNL     1       3.620   5.371  17.433  0.00  0.00    +0.000 C 
BRANCH  14  15
ATOM     15  O   UNL     1       4.844   4.629  17.433  0.00  0.00    +0.000 OA
BRANCH  15  18
ATOM     16  C   UNL     1       7.325   5.520  16.820  0.00  0.00    +0.000 C 
ATOM     17  C   UNL     1       6.788   5.407  18.221  0.00  0.00    +0.000 C 
ATOM     18  N   UNL     1       5.606   4.970  18.567  0.00  0.00    +0.000 NA
BRANCH  17  19
ATOM     19  C   UNL     1       7.729   5.870  19.325  0.00  0.00    +0.000 C 
ATOM     20  O   UNL     1       7.854   5.294  20.391  0.00  0.00    +0.000 OA
BRANCH  19  21
ATOM     21  O   UNL     1       8.391   6.991  18.976  0.00  0.00    +0.000 OA
ATOM     22  H   UNL     1       9.148   6.738  18.396  0.00  0.00    +0.000 HD
ENDBRANCH  19  21
ENDBRANCH  17  19
ENDBRANCH  15  18
ENDBRANCH  14  15
ENDBRANCH   7  14
ENDBRANCH   1   7
BRANCH   4  23
ATOM     23  O   UNL     1       0.532  10.629  19.868  0.00  0.00    +0.000 OA
BRANCH  23  24
ATOM     24  C   UNL     1       0.108  11.311  18.663  0.00  0.00    +0.000 C 
BRANCH  24  25
ATOM     25  C   UNL     1      -1.386  11.208  18.378  0.00  0.00    +0.000 A 
ATOM     26  C   UNL     1      -1.872  10.282  17.470  0.00  0.00    +0.000 A 
ATOM     27  C   UNL     1      -3.242  10.220  17.239  0.00  0.00    +0.000 A 
ATOM     28  C   UNL     1      -4.115  10.992  18.007  0.00  0.00    +0.000 A 
ATOM     29  C   UNL     1      -5.506  10.842  17.875  0.00  0.00    +0.000 A 
ATOM     30  C   UNL     1      -6.369  11.498  18.746  0.00  0.00    +0.000 A 
ATOM     31  C   UNL     1      -5.845  12.354  19.707  0.00  0.00    +0.000 A 
ATOM     32  C   UNL     1      -4.458  12.555  19.785  0.00  0.00    +0.000 A 
ATOM     33  C   UNL     1      -3.564  11.868  18.962  0.00  0.00    +0.000 A 
ATOM     34  N   UNL     1      -2.223  12.001  19.115  0.00  0.00    +0.000 NA
ENDBRANCH  24  25
ENDBRANCH  23  24
ENDBRANCH   4  23
TORSDOF 10
ENDMDL
MODEL 3
REMARK VINA RESULT:      -8.8      2.029      2.880
REMARK  Name = 
REMARK  11 active torsions:
REMARK  status: ('A' for Active; 'I' for Inactive)
REMARK    1  A    between atoms: C_1  and  C_2
REMARK    2  A    between atoms: C_2  and  C_31
REMARK    3  A    between atoms: N_3  and  O_4
REMARK    4  A    between atoms: O_4  and  C_5
REMARK    5  A    between atoms: C_5  and  C_6
REMARK    6  A    between atoms: C_6  and  C_7
REMARK    7  A    between atoms: C_6  and  C_25
REMARK    8  A    between atoms: C_10  and  O_11
REMARK    9  A    between atoms: O_11  and  C_12
REMARK   10  A    between atoms: C_12  and  C_13
REMARK   11  A    between atoms: C_31  and  O_33
REMARK                            x       y       z     vdW  Elec       q    Type
REMARK                         _______ _______ _______ _____ _____    ______ ____
ROOT
ATOM      1  C   UNL     1       4.130   5.764  18.392  0.00  0.00    +0.000 A 
ATOM      2  C   UNL     1       3.206   6.147  19.385  0.00  0.00    +0.000 A 
ATOM      3  C   UNL     1       2.410   7.301  19.291  0.00  0.00    +0.000 A 
ATOM      4  C   UNL     1       2.552   8.180  18.232  0.00  0.00    +0.000 A 
ATOM      5  C   UNL     1       3.470   7.839  17.231  0.00  0.00    +0.000 A 
ATOM      6  C   UNL     1       4.232   6.641  17.300  0.00  0.00    +0.000 A 
ENDROOT
BRANCH   1   7
ATOM      7  C   UNL     1       4.831   4.367  18.423  0.00  0.00    +0.000 C 
BRANCH   7   8
ATOM      8  C   UNL     1       3.982   3.085  18.009  0.00  0.00    +0.000 C 
ATOM      9  C   UNL     1       3.699   2.116  19.194  0.00  0.00    +0.000 C 
ATOM     10  C   UNL     1       2.692   2.687  20.186  0.00  0.00    +0.000 C 
ATOM     11  C   UNL     1       1.338   2.895  19.530  0.00  0.00    +0.000 C 
ATOM     12  C   UNL     1       1.401   3.574  18.161  0.00  0.00    +0.000 C 
ATOM     13  C   UNL     1       2.627   3.265  17.292  0.00  0.00    +0.000 C 
ENDBRANCH   7   8
BRANCH   7  14
ATOM     14  C   UNL     1       6.130   4.379  17.523  0.00  0.00    +0.000 C 
BRANCH  14  15
ATOM     15  O   UNL     1       5.813   4.247  16.132  0.00  0.00    +0.000 OA
BRANCH  15  18
ATOM     16  C   UNL     1       5.592   3.681  13.495  0.00  0.00    +0.000 C 
ATOM     17  C   UNL     1       6.686   4.527  14.091  0.00  0.00    +0.000 C 
ATOM     18  N   UNL     1       6.842   4.815  15.356  0.00  0.00    +0.000 NA
BRANCH  17  19
ATOM     19  C   UNL     1       7.685   5.104  13.099  0.00  0.00    +0.000 C 
ATOM     20  O   UNL     1       7.641   4.897  11.899  0.00  0.00    +0.000 OA
BRANCH  19  21
ATOM     21  O   UNL     1       8.618   5.858  13.714  0.00  0.00    +0.000 OA
ATOM     22  H   UNL     1       8.354   5.969  14.658  0.00  0.00    +0.000 HD
ENDBRANCH  19  21
ENDBRANCH  17  19
ENDBRANCH  15  18
ENDBRANCH  14  15
ENDBRANCH   7  14
ENDBRANCH   1   7
BRANCH   4  23
ATOM     23  O   UNL     1       1.850   9.356  18.095  0.00  0.00    +0.000 OA
BRANCH  23  24
ATOM     24  C   UNL     1       1.090   9.782  19.252  0.00  0.00    +0.000 C 
BRANCH  24  25
ATOM     25  C   UNL     1      -0.314  10.281  18.930  0.00  0.00    +0.000 A 
ATOM     26  C   UNL     1      -0.938  11.214  19.741  0.00  0.00    +0.000 A 
ATOM     27  C   UNL     1      -2.219  11.643  19.412  0.00  0.00    +0.000 A 
ATOM     28  C   UNL     1      -2.807  11.233  18.215  0.00  0.00    +0.000 A 
ATOM     29  C   UNL     1      -4.043  11.763  17.808  0.00  0.00    +0.000 A 
ATOM     30  C   UNL     1      -4.551  11.471  16.547  0.00  0.00    +0.000 A 
ATOM     31  C   UNL     1      -3.855  10.599  15.718  0.00  0.00    +0.000 A 
ATOM     32  C   UNL     1      -2.657  10.017  16.160  0.00  0.00    +0.000 A 
ATOM     33  C   UNL     1      -2.094  10.334  17.398  0.00  0.00    +0.000 A 
ATOM     34  N   UNL     1      -0.888   9.838  17.770  0.00  0.00    +0.000 NA
ENDBRANCH  24  25
ENDBRANCH  23  24
ENDBRANCH   4  23
TORSDOF 10
ENDMDL
MODEL 4
REMARK VINA RESULT:      -8.7      1.960      3.009
REMARK  Name = 
REMARK  11 active torsions:
REMARK  status: ('A' for Active; 'I' for Inactive)
REMARK    1  A    between atoms: C_1  and  C_2
REMARK    2  A    between atoms: C_2  and  C_31
REMARK    3  A    between atoms: N_3  and  O_4
REMARK    4  A    between atoms: O_4  and  C_5
REMARK    5  A    between atoms: C_5  and  C_6
REMARK    6  A    between atoms: C_6  and  C_7
REMARK    7  A    between atoms: C_6  and  C_25
REMARK    8  A    between atoms: C_10  and  O_11
REMARK    9  A    between atoms: O_11  and  C_12
REMARK   10  A    between atoms: C_12  and  C_13
REMARK   11  A    between atoms: C_31  and  O_33
REMARK                            x       y       z     vdW  Elec       q    Type
REMARK                         _______ _______ _______ _____ _____    ______ ____
ROOT
ATOM      1  C   UNL     1       2.993   6.448  18.738  0.00  0.00    +0.000 A 
ATOM      2  C   UNL     1       2.688   7.671  18.107  0.00  0.00    +0.000 A 
ATOM      3  C   UNL     1       1.999   8.716  18.745  0.00  0.00    +0.000 A 
ATOM      4  C   UNL     1       1.506   8.564  20.030  0.00  0.00    +0.000 A 
ATOM      5  C   UNL     1       1.778   7.357  20.685  0.00  0.00    +0.000 A 
ATOM      6  C   UNL     1       2.527   6.324  20.058  0.00  0.00    +0.000 A 
ENDROOT
BRANCH   1   7
ATOM      7  C   UNL     1       3.950   5.403  18.079  0.00  0.00    +0.000 C 
BRANCH   7   8
ATOM      8  C   UNL     1       3.310   4.105  17.413  0.00  0.00    +0.000 C 
ATOM      9  C   UNL     1       3.903   2.771  17.953  0.00  0.00    +0.000 C 
ATOM     10  C   UNL     1       3.466   2.475  19.382  0.00  0.00    +0.000 C 
ATOM     11  C   UNL     1       1.961   2.286  19.464  0.00  0.00    +0.000 C 
ATOM     12  C   UNL     1       1.153   3.345  18.714  0.00  0.00    +0.000 C 
ATOM     13  C   UNL     1       1.779   3.913  17.433  0.00  0.00    +0.000 C 
ENDBRANCH   7   8
BRANCH   7  14
ATOM     14  C   UNL     1       4.855   6.094  16.983  0.00  0.00    +0.000 C 
BRANCH  14  15
ATOM     15  O   UNL     1       5.001   5.271  15.820  0.00  0.00    +0.000 OA
BRANCH  15  18
ATOM     16  C   UNL     1       5.409   3.808  13.579  0.00  0.00    +0.000 C 
ATOM     17  C   UNL     1       6.355   4.863  14.086  0.00  0.00    +0.000 C 
ATOM     18  N   UNL     1       6.209   5.583  15.167  0.00  0.00    +0.000 NA
BRANCH  17  19
ATOM     19  C   UNL     1       7.588   5.107  13.227  0.00  0.00    +0.000 C 
ATOM     20  O   UNL     1       8.515   5.821  13.565  0.00  0.00    +0.000 OA
BRANCH  19  21
ATOM     21  O   UNL     1       7.516   4.447  12.054  0.00  0.00    +0.000 OA
ATOM     22  H   UNL     1       8.373   3.980  11.908  0.00  0.00    +0.000 HD
ENDBRANCH  19  21
ENDBRANCH  17  19
ENDBRANCH  15  18
ENDBRANCH  14  15
ENDBRANCH   7  14
ENDBRANCH   1   7
BRANCH   4  23
ATOM     23  O   UNL     1       0.776   9.517  20.703  0.00  0.00    +0.000 OA
BRANCH  23  24
ATOM     24  C   UNL     1       0.631  10.795  20.036  0.00  0.00    +0.000 C 
BRANCH  24  25
ATOM     25  C   UNL     1      -0.741  11.024  19.414  0.00  0.00    +0.000 A 
ATOM     26  C   UNL     1      -1.639  11.913  19.983  0.00  0.00    +0.000 A 
ATOM     27  C   UNL     1      -2.880  12.093  19.384  0.00  0.00    +0.000 A 
ATOM     28  C   UNL     1      -3.160  11.484  18.160  0.00  0.00    +0.000 A 
ATOM     29  C   UNL     1      -4.357  11.764  17.480  0.00  0.00    +0.000 A 
ATOM     30  C   UNL     1      -4.565  11.277  16.193  0.00  0.00    +0.000 A 
ATOM     31  C   UNL     1      -3.603  10.460  15.612  0.00  0.00    +0.000 A 
ATOM     32  C   UNL     1      -2.442  10.126  16.326  0.00  0.00    +0.000 A 
ATOM     33  C   UNL     1      -2.180  10.643  17.596  0.00  0.00    +0.000 A 
ATOM     34  N   UNL     1      -1.010  10.388  18.232  0.00  0.00    +0.000 NA
ENDBRANCH  24  25
ENDBRANCH  23  24
ENDBRANCH   4  23
TORSDOF 10
ENDMDL
MODEL 5
REMARK VINA RESULT:      -8.6      2.793      4.019
REMARK  Name = 
REMARK  11 active torsions:
REMARK  status: ('A' for Active; 'I' for Inactive)
REMARK    1  A    between atoms: C_1  and  C_2
REMARK    2  A    between atoms: C_2  and  C_31
REMARK    3  A    between atoms: N_3  and  O_4
REMARK    4  A    between atoms: O_4  and  C_5
REMARK    5  A    between atoms: C_5  and  C_6
REMARK    6  A    between atoms: C_6  and  C_7
REMARK    7  A    between atoms: C_6  and  C_25
REMARK    8  A    between atoms: C_10  and  O_11
REMARK    9  A    between atoms: O_11  and  C_12
REMARK   10  A    between atoms: C_12  and  C_13
REMARK   11  A    between atoms: C_31  and  O_33
REMARK                            x       y       z     vdW  Elec       q    Type
REMARK                         _______ _______ _______ _____ _____    ______ ____
ROOT
ATOM      1  C   UNL     1       3.190   6.305  19.209  0.00  0.00    +0.000 A 
ATOM      2  C   UNL     1       3.458   6.892  17.956  0.00  0.00    +0.000 A 
ATOM      3  C   UNL     1       2.873   8.095  17.528  0.00  0.00    +0.000 A 
ATOM      4  C   UNL     1       1.922   8.739  18.302  0.00  0.00    +0.000 A 
ATOM      5  C   UNL     1       1.620   8.179  19.549  0.00  0.00    +0.000 A 
ATOM      6  C   UNL     1       2.257   6.993  20.004  0.00  0.00    +0.000 A 
ENDROOT
BRANCH   1   7
ATOM      7  C   UNL     1       4.023   5.094  19.741  0.00  0.00    +0.000 C 
BRANCH   7   8
ATOM      8  C   UNL     1       3.523   3.622  19.398  0.00  0.00    +0.000 C 
ATOM      9  C   UNL     1       3.514   2.665  20.625  0.00  0.00    +0.000 C 
ATOM     10  C   UNL     1       2.411   3.003  21.621  0.00  0.00    +0.000 C 
ATOM     11  C   UNL     1       1.038   2.832  20.992  0.00  0.00    +0.000 C 
ATOM     12  C   UNL     1       0.905   3.445  19.598  0.00  0.00    +0.000 C 
ATOM     13  C   UNL     1       2.156   3.421  18.709  0.00  0.00    +0.000 C 
ENDBRANCH   7   8
BRANCH   7  14
ATOM     14  C   UNL     1       5.525   5.202  19.262  0.00  0.00    +0.000 C 
BRANCH  14  15
ATOM     15  O   UNL     1       5.926   4.051  18.509  0.00  0.00    +0.000 OA
BRANCH  15  18
ATOM     16  C   UNL     1       4.745   3.970  16.076  0.00  0.00    +0.000 C 
ATOM     17  C   UNL     1       6.167   4.402  16.313  0.00  0.00    +0.000 C 
ATOM     18  N   UNL     1       6.784   4.444  17.465  0.00  0.00    +0.000 NA
BRANCH  17  19
ATOM     19  C   UNL     1       6.935   4.844  15.075  0.00  0.00    +0.000 C 
ATOM     20  O   UNL     1       7.756   5.745  15.076  0.00  0.00    +0.000 OA
BRANCH  19  21
ATOM     21  O   UNL     1       6.585   4.126  13.990  0.00  0.00    +0.000 OA
ATOM     22  H   UNL     1       6.788   4.661  13.185  0.00  0.00    +0.000 HD
ENDBRANCH  19  21
ENDBRANCH  17  19
ENDBRANCH  15  18
ENDBRANCH  14  15
ENDBRANCH   7  14
ENDBRANCH   1   7
BRANCH   4  23
ATOM     23  O   UNL     1       1.264   9.890  17.930  0.00  0.00    +0.000 OA
BRANCH  23  24
ATOM     24  C   UNL     1       0.514  10.559  18.973  0.00  0.00    +0.000 C 
BRANCH  24  25
ATOM     25  C   UNL     1       0.621  12.078  18.946  0.00  0.00    +0.000 A 
ATOM     26  C   UNL     1      -0.333  12.868  19.565  0.00  0.00    +0.000 A 
ATOM     27  C   UNL     1      -0.198  14.251  19.517  0.00  0.00    +0.000 A 
ATOM     28  C   UNL     1       0.948  14.822  18.963  0.00  0.00    +0.000 A 
ATOM     29  C   UNL     1       1.158  16.210  19.027  0.00  0.00    +0.000 A 
ATOM     30  C   UNL     1       2.368  16.757  18.614  0.00  0.00    +0.000 A 
ATOM     31  C   UNL     1       3.344  15.925  18.078  0.00  0.00    +0.000 A 
ATOM     32  C   UNL     1       3.099  14.549  17.951  0.00  0.00    +0.000 A 
ATOM     33  C   UNL     1       1.917  13.963  18.407  0.00  0.00    +0.000 A 
ATOM     34  N   UNL     1       1.736  12.620  18.365  0.00  0.00    +0.000 NA
ENDBRANCH  24  25
ENDBRANCH  23  24
ENDBRANCH   4  23
TORSDOF 10
ENDMDL
MODEL 6
REMARK VINA RESULT:      -8.6      1.786      2.782
REMARK  Name = 
REMARK  11 active torsions:
REMARK  status: ('A' for Active; 'I' for Inactive)
REMARK    1  A    between atoms: C_1  and  C_2
REMARK    2  A    between atoms: C_2  and  C_31
REMARK    3  A    between atoms: N_3  and  O_4
REMARK    4  A    between atoms: O_4  and  C_5
REMARK    5  A    between atoms: C_5  and  C_6
REMARK    6  A    between atoms: C_6  and  C_7
REMARK    7  A    between atoms: C_6  and  C_25
REMARK    8  A    between atoms: C_10  and  O_11
REMARK    9  A    between atoms: O_11  and  C_12
REMARK   10  A    between atoms: C_12  and  C_13
REMARK   11  A    between atoms: C_31  and  O_33
REMARK                            x       y       z     vdW  Elec       q    Type
REMARK                         _______ _______ _______ _____ _____    ______ ____
ROOT
ATOM      1  C   UNL     1       3.380   6.236  19.161  0.00  0.00    +0.000 A 
ATOM      2  C   UNL     1       3.626   6.846  17.913  0.00  0.00    +0.000 A 
ATOM      3  C   UNL     1       3.011   8.041  17.506  0.00  0.00    +0.000 A 
ATOM      4  C   UNL     1       2.051   8.653  18.294  0.00  0.00    +0.000 A 
ATOM      5  C   UNL     1       1.770   8.070  19.535  0.00  0.00    +0.000 A 
ATOM      6  C   UNL     1       2.437   6.892  19.971  0.00  0.00    +0.000 A 
ENDROOT
BRANCH   1   7
ATOM      7  C   UNL     1       4.243   5.038  19.670  0.00  0.00    +0.000 C 
BRANCH   7   8
ATOM      8  C   UNL     1       3.779   3.559  19.302  0.00  0.00    +0.000 C 
ATOM      9  C   UNL     1       3.545   2.652  20.545  0.00  0.00    +0.000 C 
ATOM     10  C   UNL     1       2.296   3.044  21.326  0.00  0.00    +0.000 C 
ATOM     11  C   UNL     1       1.047   2.867  20.481  0.00  0.00    +0.000 C 
ATOM     12  C   UNL     1       1.163   3.426  19.063  0.00  0.00    +0.000 C 
ATOM     13  C   UNL     1       2.545   3.349  18.400  0.00  0.00    +0.000 C 
ENDBRANCH   7   8
BRANCH   7  14
ATOM     14  C   UNL     1       5.742   5.191  19.192  0.00  0.00    +0.000 C 
BRANCH  14  15
ATOM     15  O   UNL     1       6.128   4.132  18.309  0.00  0.00    +0.000 OA
BRANCH  15  18
ATOM     16  C   UNL     1       5.125   3.409  15.901  0.00  0.00    +0.000 C 
ATOM     17  C   UNL     1       6.327   4.296  16.086  0.00  0.00    +0.000 C 
ATOM     18  N   UNL     1       6.855   4.660  17.225  0.00  0.00    +0.000 NA
BRANCH  17  19
ATOM     19  C   UNL     1       6.960   4.821  14.806  0.00  0.00    +0.000 C 
ATOM     20  O   UNL     1       7.840   5.664  14.784  0.00  0.00    +0.000 OA
BRANCH  19  21
ATOM     21  O   UNL     1       6.421   4.246  13.712  0.00  0.00    +0.000 OA
ATOM     22  H   UNL     1       5.468   4.063  13.895  0.00  0.00    +0.000 HD
ENDBRANCH  19  21
ENDBRANCH  17  19
ENDBRANCH  15  18
ENDBRANCH  14  15
ENDBRANCH   7  14
ENDBRANCH   1   7
BRANCH   4  23
ATOM     23  O   UNL     1       1.365   9.793  17.943  0.00  0.00    +0.000 OA
BRANCH  23  24
ATOM     24  C   UNL     1      -0.078   9.675  17.884  0.00  0.00    +0.000 C 
BRANCH  24  25
ATOM     25  C   UNL     1      -0.824  10.673  18.761  0.00  0.00    +0.000 A 
ATOM     26  C   UNL     1      -1.981  11.287  18.310  0.00  0.00    +0.000 A 
ATOM     27  C   UNL     1      -2.632  12.191  19.142  0.00  0.00    +0.000 A 
ATOM     28  C   UNL     1      -2.194  12.373  20.454  0.00  0.00    +0.000 A 
ATOM     29  C   UNL     1      -2.920  13.181  21.345  0.00  0.00    +0.000 A 
ATOM     30  C   UNL     1      -2.568  13.238  22.689  0.00  0.00    +0.000 A 
ATOM     31  C   UNL     1      -1.452  12.537  23.130  0.00  0.00    +0.000 A 
ATOM     32  C   UNL     1      -0.690  11.789  22.221  0.00  0.00    +0.000 A 
ATOM     33  C   UNL     1      -1.049  11.669  20.877  0.00  0.00    +0.000 A 
ATOM     34  N   UNL     1      -0.356  10.865  20.033  0.00  0.00    +0.000 NA
ENDBRANCH  24  25
ENDBRANCH  23  24
ENDBRANCH   4  23
TORSDOF 10
ENDMDL
MODEL 7
REMARK VINA RESULT:      -8.6      1.710      2.808
REMARK  Name = 
REMARK  11 active torsions:
REMARK  status: ('A' for Active; 'I' for Inactive)
REMARK    1  A    between atoms: C_1  and  C_2
REMARK    2  A    between atoms: C_2  and  C_31
REMARK    3  A    between atoms: N_3  and  O_4
REMARK    4  A    between atoms: O_4  and  C_5
REMARK    5  A    between atoms: C_5  and  C_6
REMARK    6  A    between atoms: C_6  and  C_7
REMARK    7  A    between atoms: C_6  and  C_25
REMARK    8  A    between atoms: C_10  and  O_11
REMARK    9  A    between atoms: O_11  and  C_12
REMARK   10  A    between atoms: C_12  and  C_13
REMARK   11  A    between atoms: C_31  and  O_33
REMARK                            x       y       z     vdW  Elec       q    Type
REMARK                         _______ _______ _______ _____ _____    ______ ____
ROOT
ATOM      1  C   UNL     1       2.602   7.270  18.603  0.00  0.00    +0.000 A 
ATOM      2  C   UNL     1       2.217   8.244  17.660  0.00  0.00    +0.000 A 
ATOM      3  C   UNL     1       1.432   9.362  17.985  0.00  0.00    +0.000 A 
ATOM      4  C   UNL     1       0.920   9.527  19.260  0.00  0.00    +0.000 A 
ATOM      5  C   UNL     1       1.270   8.572  20.223  0.00  0.00    +0.000 A 
ATOM      6  C   UNL     1       2.114   7.473  19.905  0.00  0.00    +0.000 A 
ENDROOT
BRANCH   1   7
ATOM      7  C   UNL     1       3.655   6.168  18.259  0.00  0.00    +0.000 C 
BRANCH   7   8
ATOM      8  C   UNL     1       3.130   4.737  17.797  0.00  0.00    +0.000 C 
ATOM      9  C   UNL     1       3.859   3.551  18.492  0.00  0.00    +0.000 C 
ATOM     10  C   UNL     1       3.483   3.415  19.962  0.00  0.00    +0.000 C 
ATOM     11  C   UNL     1       2.005   3.101  20.119  0.00  0.00    +0.000 C 
ATOM     12  C   UNL     1       1.083   3.967  19.260  0.00  0.00    +0.000 C 
ATOM     13  C   UNL     1       1.625   4.408  17.894  0.00  0.00    +0.000 C 
ENDBRANCH   7   8
BRANCH   7  14
ATOM     14  C   UNL     1       4.653   6.682  17.146  0.00  0.00    +0.000 C 
BRANCH  14  15
ATOM     15  O   UNL     1       5.856   5.906  17.113  0.00  0.00    +0.000 OA
BRANCH  15  18
ATOM     16  C   UNL     1       6.015   3.565  15.765  0.00  0.00    +0.000 C 
ATOM     17  C   UNL     1       6.509   4.883  15.234  0.00  0.00    +0.000 C 
ATOM     18  N   UNL     1       6.468   6.035  15.851  0.00  0.00    +0.000 NA
BRANCH  17  19
ATOM     19  C   UNL     1       7.096   4.847  13.830  0.00  0.00    +0.000 C 
ATOM     20  O   UNL     1       6.668   4.137  12.937  0.00  0.00    +0.000 OA
BRANCH  19  21
ATOM     21  O   UNL     1       8.143   5.687  13.706  0.00  0.00    +0.000 OA
ATOM     22  H   UNL     1       8.808   5.268  13.109  0.00  0.00    +0.000 HD
ENDBRANCH  19  21
ENDBRANCH  17  19
ENDBRANCH  15  18
ENDBRANCH  14  15
ENDBRANCH   7  14
ENDBRANCH   1   7
BRANCH   4  23
ATOM     23  O   UNL     1       0.100  10.564  19.644  0.00  0.00    +0.000 OA
BRANCH  23  24
ATOM     24  C   UNL     1      -0.680  11.181  18.590  0.00  0.00    +0.000 C 
BRANCH  24  25
ATOM     25  C   UNL     1      -2.085  11.593  19.011  0.00  0.00    +0.000 A 
ATOM     26  C   UNL     1      -2.284  12.432  20.095  0.00  0.00    +0.000 A 
ATOM     27  C   UNL     1      -3.583  12.783  20.446  0.00  0.00    +0.000 A 
ATOM     28  C   UNL     1      -4.653  12.399  19.637  0.00  0.00    +0.000 A 
ATOM     29  C   UNL     1      -5.953  12.858  19.907  0.00  0.00    +0.000 A 
ATOM     30  C   UNL     1      -6.988  12.600  19.014  0.00  0.00    +0.000 A 
ATOM     31  C   UNL     1      -6.737  11.829  17.885  0.00  0.00    +0.000 A 
ATOM     32  C   UNL     1      -5.452  11.313  17.661  0.00  0.00    +0.000 A 
ATOM     33  C   UNL     1      -4.380  11.601  18.509  0.00  0.00    +0.000 A 
ATOM     34  N   UNL     1      -3.125  11.174  18.225  0.00  0.00    +0.000 NA
ENDBRANCH  24  25
ENDBRANCH  23  24
ENDBRANCH   4  23
TORSDOF 10
ENDMDL
MODEL 8
REMARK VINA RESULT:      -8.6      0.964      1.386
REMARK  Name = 
REMARK  11 active torsions:
REMARK  status: ('A' for Active; 'I' for Inactive)
REMARK    1  A    between atoms: C_1  and  C_2
REMARK    2  A    between atoms: C_2  and  C_31
REMARK    3  A    between atoms: N_3  and  O_4
REMARK    4  A    between atoms: O_4  and  C_5
REMARK    5  A    between atoms: C_5  and  C_6
REMARK    6  A    between atoms: C_6  and  C_7
REMARK    7  A    between atoms: C_6  and  C_25
REMARK    8  A    between atoms: C_10  and  O_11
REMARK    9  A    between atoms: O_11  and  C_12
REMARK   10  A    between atoms: C_12  and  C_13
REMARK   11  A    between atoms: C_31  and  O_33
REMARK                            x       y       z     vdW  Elec       q    Type
REMARK                         _______ _______ _______ _____ _____    ______ ____
ROOT
ATOM      1  C   UNL     1       3.115   5.990  18.700  0.00  0.00    +0.000 A 
ATOM      2  C   UNL     1       2.657   6.307  19.995  0.00  0.00    +0.000 A 
ATOM      3  C   UNL     1       1.962   7.489  20.298  0.00  0.00    +0.000 A 
ATOM      4  C   UNL     1       1.755   8.460  19.334  0.00  0.00    +0.000 A 
ATOM      5  C   UNL     1       2.206   8.187  18.037  0.00  0.00    +0.000 A 
ATOM      6  C   UNL     1       2.858   6.964  17.720  0.00  0.00    +0.000 A 
ENDROOT
BRANCH   1   7
ATOM      7  C   UNL     1       3.683   4.575  18.356  0.00  0.00    +0.000 C 
BRANCH   7   8
ATOM      8  C   UNL     1       2.696   3.327  18.422  0.00  0.00    +0.000 C 
ATOM      9  C   UNL     1       3.127   2.246  19.456  0.00  0.00    +0.000 C 
ATOM     10  C   UNL     1       2.933   2.706  20.896  0.00  0.00    +0.000 C 
ATOM     11  C   UNL     1       1.465   2.958  21.195  0.00  0.00    +0.000 C 
ATOM     12  C   UNL     1       0.735   3.765  20.121  0.00  0.00    +0.000 C 
ATOM     13  C   UNL     1       1.190   3.556  18.670  0.00  0.00    +0.000 C 
ENDBRANCH   7   8
BRANCH   7  14
ATOM     14  C   UNL     1       4.341   4.576  16.919  0.00  0.00    +0.000 C 
BRANCH  14  15
ATOM     15  O   UNL     1       5.668   4.038  16.943  0.00  0.00    +0.000 OA
BRANCH  15  18
ATOM     16  C   UNL     1       7.349   6.154  16.792  0.00  0.00    +0.000 C 
ATOM     17  C   UNL     1       7.072   5.381  18.053  0.00  0.00    +0.000 C 
ATOM     18  N   UNL     1       6.282   4.347  18.173  0.00  0.00    +0.000 NA
BRANCH  17  19
ATOM     19  C   UNL     1       7.781   5.885  19.302  0.00  0.00    +0.000 C 
ATOM     20  O   UNL     1       7.735   5.318  20.380  0.00  0.00    +0.000 OA
BRANCH  19  21
ATOM     21  O   UNL     1       8.452   7.030  19.066  0.00  0.00    +0.000 OA
ATOM     22  H   UNL     1       8.402   7.225  18.099  0.00  0.00    +0.000 HD
ENDBRANCH  19  21
ENDBRANCH  17  19
ENDBRANCH  15  18
ENDBRANCH  14  15
ENDBRANCH   7  14
ENDBRANCH   1   7
BRANCH   4  23
ATOM     23  O   UNL     1       1.131   9.666  19.563  0.00  0.00    +0.000 OA
BRANCH  23  24
ATOM     24  C   UNL     1       0.516  10.294  18.411  0.00  0.00    +0.000 C 
BRANCH  24  25
ATOM     25  C   UNL     1      -0.833  10.941  18.697  0.00  0.00    +0.000 A 
ATOM     26  C   UNL     1      -1.877  10.834  17.792  0.00  0.00    +0.000 A 
ATOM     27  C   UNL     1      -3.092  11.439  18.091  0.00  0.00    +0.000 A 
ATOM     28  C   UNL     1      -3.290  12.030  19.339  0.00  0.00    +0.000 A 
ATOM     29  C   UNL     1      -4.553  12.527  19.703  0.00  0.00    +0.000 A 
ATOM     30  C   UNL     1      -4.785  12.974  20.999  0.00  0.00    +0.000 A 
ATOM     31  C   UNL     1      -3.738  12.984  21.913  0.00  0.00    +0.000 A 
ATOM     32  C   UNL     1      -2.462  12.555  21.521  0.00  0.00    +0.000 A 
ATOM     33  C   UNL     1      -2.211  12.049  20.244  0.00  0.00    +0.000 A 
ATOM     34  N   UNL     1      -0.995  11.548  19.913  0.00  0.00    +0.000 NA
ENDBRANCH  24  25
ENDBRANCH  23  24
ENDBRANCH   4  23
TORSDOF 10
ENDMDL
MODEL 9
REMARK VINA RESULT:      -8.6      1.959      2.914
REMARK  Name = 
REMARK  11 active torsions:
REMARK  status: ('A' for Active; 'I' for Inactive)
REMARK    1  A    between atoms: C_1  and  C_2
REMARK    2  A    between atoms: C_2  and  C_31
REMARK    3  A    between atoms: N_3  and  O_4
REMARK    4  A    between atoms: O_4  and  C_5
REMARK    5  A    between atoms: C_5  and  C_6
REMARK    6  A    between atoms: C_6  and  C_7
REMARK    7  A    between atoms: C_6  and  C_25
REMARK    8  A    between atoms: C_10  and  O_11
REMARK    9  A    between atoms: O_11  and  C_12
REMARK   10  A    between atoms: C_12  and  C_13
REMARK   11  A    between atoms: C_31  and  O_33
REMARK                            x       y       z     vdW  Elec       q    Type
REMARK                         _______ _______ _______ _____ _____    ______ ____
ROOT
ATOM      1  C   UNL     1       3.276   6.250  18.898  0.00  0.00    +0.000 A 
ATOM      2  C   UNL     1       2.629   6.044  20.133  0.00  0.00    +0.000 A 
ATOM      3  C   UNL     1       1.731   6.967  20.695  0.00  0.00    +0.000 A 
ATOM      4  C   UNL     1       1.491   8.188  20.088  0.00  0.00    +0.000 A 
ATOM      5  C   UNL     1       2.126   8.435  18.865  0.00  0.00    +0.000 A 
ATOM      6  C   UNL     1       2.989   7.474  18.270  0.00  0.00    +0.000 A 
ENDROOT
BRANCH   1   7
ATOM      7  C   UNL     1       4.088   5.113  18.200  0.00  0.00    +0.000 C 
BRANCH   7   8
ATOM      8  C   UNL     1       3.294   4.035  17.337  0.00  0.00    +0.000 C 
ATOM      9  C   UNL     1       3.733   2.568  17.614  0.00  0.00    +0.000 C 
ATOM     10  C   UNL     1       3.282   2.072  18.982  0.00  0.00    +0.000 C 
ATOM     11  C   UNL     1       1.766   2.042  19.078  0.00  0.00    +0.000 C 
ATOM     12  C   UNL     1       1.078   3.302  18.553  0.00  0.00    +0.000 C 
ATOM     13  C   UNL     1       1.751   4.016  17.372  0.00  0.00    +0.000 C 
ENDBRANCH   7   8
BRANCH   7  14
ATOM     14  C   UNL     1       5.210   5.723  17.269  0.00  0.00    +0.000 C 
BRANCH  14  15
ATOM     15  O   UNL     1       5.032   5.337  15.901  0.00  0.00    +0.000 OA
BRANCH  15  18
ATOM     16  C   UNL     1       5.391   3.713  13.766  0.00  0.00    +0.000 C 
ATOM     17  C   UNL     1       6.321   4.835  14.143  0.00  0.00    +0.000 C 
ATOM     18  N   UNL     1       6.198   5.634  15.169  0.00  0.00    +0.000 NA
BRANCH  17  19
ATOM     19  C   UNL     1       7.505   5.048  13.210  0.00  0.00    +0.000 C 
ATOM     20  O   UNL     1       7.570   4.585  12.085  0.00  0.00    +0.000 OA
BRANCH  19  21
ATOM     21  O   UNL     1       8.465   5.797  13.788  0.00  0.00    +0.000 OA
ATOM     22  H   UNL     1       8.104   6.172  14.627  0.00  0.00    +0.000 HD
ENDBRANCH  19  21
ENDBRANCH  17  19
ENDBRANCH  15  18
ENDBRANCH  14  15
ENDBRANCH   7  14
ENDBRANCH   1   7
BRANCH   4  23
ATOM     23  O   UNL     1       0.670   9.166  20.602  0.00  0.00    +0.000 OA
BRANCH  23  24
ATOM     24  C   UNL     1       0.644  10.420  19.877  0.00  0.00    +0.000 C 
BRANCH  24  25
ATOM     25  C   UNL     1      -0.679  10.713  19.180  0.00  0.00    +0.000 A 
ATOM     26  C   UNL     1      -1.542  11.678  19.672  0.00  0.00    +0.000 A 
ATOM     27  C   UNL     1      -2.739  11.915  19.005  0.00  0.00    +0.000 A 
ATOM     28  C   UNL     1      -3.000  11.278  17.791  0.00  0.00    +0.000 A 
ATOM     29  C   UNL     1      -4.143  11.607  17.043  0.00  0.00    +0.000 A 
ATOM     30  C   UNL     1      -4.320  11.086  15.766  0.00  0.00    +0.000 A 
ATOM     31  C   UNL     1      -3.388  10.186  15.263  0.00  0.00    +0.000 A 
ATOM     32  C   UNL     1      -2.287   9.806  16.045  0.00  0.00    +0.000 A 
ATOM     33  C   UNL     1      -2.052  10.355  17.307  0.00  0.00    +0.000 A 
ATOM     34  N   UNL     1      -0.933  10.050  18.010  0.00  0.00    +0.000 NA
ENDBRANCH  24  25
ENDBRANCH  23  24
ENDBRANCH   4  23
TORSDOF 10
ENDMDL
