MODEL 1
REMARK VINA RESULT:      -4.9      0.000      0.000
REMARK  Name = 
REMARK  9 active torsions:
REMARK  status: ('A' for Active; 'I' for Inactive)
REMARK    1  A    between atoms: C_2  and  C_3
REMARK    2  A    between atoms: C_3  and  N_4
REMARK    3  A    between atoms: N_4  and  C_5
REMARK    4  A    between atoms: N_4  and  C_6
REMARK    5  A    between atoms: N_4  and  N_7
REMARK    6  A    between atoms: N_7  and  C_8
REMARK    7  A    between atoms: C_8  and  C_9
REMARK    8  A    between atoms: C_9  and  C_10
REMARK    9  A    between atoms: C_10  and  O_12
REMARK                            x       y       z     vdW  Elec       q    Type
REMARK                         _______ _______ _______ _____ _____    ______ ____
ROOT
ATOM      1  N   UNL     1       5.588   3.618  18.759  0.00  0.00    +0.000 NA
ATOM      2  H   UNL     1       5.756   3.436  17.750  0.00  0.00    +0.000 HD
ENDROOT
BRANCH   1   3
ATOM      3  N   UNL     1       4.204   3.196  19.165  0.00  0.00    +0.000 N 
ATOM      4  C   UNL     1       4.290   2.200  20.318  0.00  0.00    +0.000 C 
ATOM      5  C   UNL     1       3.482   2.635  17.944  0.00  0.00    +0.000 C 
BRANCH   3   6
ATOM      6  C   UNL     1       3.487   4.501  19.638  0.00  0.00    +0.000 C 
BRANCH   6   8
ATOM      7  C   UNL     1       0.962   3.965  20.328  0.00  0.00    +0.000 C 
ATOM      8  C   UNL     1       2.094   4.227  20.018  0.00  0.00    +0.000 C 
ENDBRANCH   6   8
ENDBRANCH   3   6
ENDBRANCH   1   3
BRANCH   1   9
ATOM      9  C   UNL     1       5.907   5.052  18.986  0.00  0.00    +0.000 C 
BRANCH   9  10
ATOM     10  C   UNL     1       6.563   5.705  17.760  0.00  0.00    +0.000 C 
BRANCH  10  11
ATOM     11  C   UNL     1       7.536   4.763  17.105  0.00  0.00    +0.000 C 
ATOM     12  O   UNL     1       8.344   4.094  17.741  0.00  0.00    +0.000 OA
BRANCH  11  13
ATOM     13  O   UNL     1       7.474   4.760  15.763  0.00  0.00    +0.000 OA
ATOM     14  H   UNL     1       7.221   5.608  15.344  0.00  0.00    +0.000 HD
ENDBRANCH  11  13
ENDBRANCH  10  11
ENDBRANCH   9  10
ENDBRANCH   1   9
TORSDOF 7
ENDMDL
MODEL 2
REMARK VINA RESULT:      -4.9      0.910      1.814
REMARK  Name = 
REMARK  9 active torsions:
REMARK  status: ('A' for Active; 'I' for Inactive)
REMARK    1  A    between atoms: C_2  and  C_3
REMARK    2  A    between atoms: C_3  and  N_4
REMARK    3  A    between atoms: N_4  and  C_5
REMARK    4  A    between atoms: N_4  and  C_6
REMARK    5  A    between atoms: N_4  and  N_7
REMARK    6  A    between atoms: N_7  and  C_8
REMARK    7  A    between atoms: C_8  and  C_9
REMARK    8  A    between atoms: C_9  and  C_10
REMARK    9  A    between atoms: C_10  and  O_12
REMARK                            x       y       z     vdW  Elec       q    Type
REMARK                         _______ _______ _______ _____ _____    ______ ____
ROOT
ATOM      1  N   UNL     1       5.529   3.687  18.873  0.00  0.00    +0.000 NA
ATOM      2  H   UNL     1       5.755   3.170  18.001  0.00  0.00    +0.000 HD
ENDROOT
BRANCH   1   3
ATOM      3  N   UNL     1       4.059   3.622  19.178  0.00  0.00    +0.000 N 
ATOM      4  C   UNL     1       3.298   3.159  17.939  0.00  0.00    +0.000 C 
ATOM      5  C   UNL     1       3.600   4.984  19.686  0.00  0.00    +0.000 C 
BRANCH   3   6
ATOM      6  C   UNL     1       3.913   2.565  20.320  0.00  0.00    +0.000 C 
BRANCH   6   8
ATOM      7  C   UNL     1       1.549   2.762  21.550  0.00  0.00    +0.000 C 
ATOM      8  C   UNL     1       2.604   2.679  20.978  0.00  0.00    +0.000 C 
ENDBRANCH   6   8
ENDBRANCH   3   6
ENDBRANCH   1   3
BRANCH   1   9
ATOM      9  C   UNL     1       6.083   5.056  18.705  0.00  0.00    +0.000 C 
BRANCH   9  10
ATOM     10  C   UNL     1       6.063   5.518  17.240  0.00  0.00    +0.000 C 
BRANCH  10  11
ATOM     11  C   UNL     1       7.282   5.030  16.505  0.00  0.00    +0.000 C 
ATOM     12  O   UNL     1       7.543   5.366  15.355  0.00  0.00    +0.000 OA
BRANCH  11  13
ATOM     13  O   UNL     1       8.025   4.156  17.203  0.00  0.00    +0.000 OA
ATOM     14  H   UNL     1       8.593   4.537  17.904  0.00  0.00    +0.000 HD
ENDBRANCH  11  13
ENDBRANCH  10  11
ENDBRANCH   9  10
ENDBRANCH   1   9
TORSDOF 7
ENDMDL
MODEL 3
REMARK VINA RESULT:      -4.9      1.582      2.306
REMARK  Name = 
REMARK  9 active torsions:
REMARK  status: ('A' for Active; 'I' for Inactive)
REMARK    1  A    between atoms: C_2  and  C_3
REMARK    2  A    between atoms: C_3  and  N_4
REMARK    3  A    between atoms: N_4  and  C_5
REMARK    4  A    between atoms: N_4  and  C_6
REMARK    5  A    between atoms: N_4  and  N_7
REMARK    6  A    between atoms: N_7  and  C_8
REMARK    7  A    between atoms: C_8  and  C_9
REMARK    8  A    between atoms: C_9  and  C_10
REMARK    9  A    between atoms: C_10  and  O_12
REMARK                            x       y       z     vdW  Elec       q    Type
REMARK                         _______ _______ _______ _____ _____    ______ ____
ROOT
ATOM      1  N   UNL     1       5.229   3.321  17.095  0.00  0.00    +0.000 NA
ATOM      2  H   UNL     1       5.182   2.397  16.623  0.00  0.00    +0.000 HD
ENDROOT
BRANCH   1   3
ATOM      3  N   UNL     1       4.033   3.543  17.976  0.00  0.00    +0.000 N 
ATOM      4  C   UNL     1       3.465   4.938  17.728  0.00  0.00    +0.000 C 
ATOM      5  C   UNL     1       4.439   3.314  19.428  0.00  0.00    +0.000 C 
BRANCH   3   6
ATOM      6  C   UNL     1       2.990   2.459  17.551  0.00  0.00    +0.000 C 
BRANCH   6   8
ATOM      7  C   UNL     1       0.780   2.620  19.044  0.00  0.00    +0.000 C 
ATOM      8  C   UNL     1       1.766   2.562  18.359  0.00  0.00    +0.000 C 
ENDBRANCH   6   8
ENDBRANCH   3   6
ENDBRANCH   1   3
BRANCH   1   9
ATOM      9  C   UNL     1       5.426   4.331  16.023  0.00  0.00    +0.000 C 
BRANCH   9  10
ATOM     10  C   UNL     1       6.807   5.000  16.099  0.00  0.00    +0.000 C 
BRANCH  10  11
ATOM     11  C   UNL     1       7.352   4.951  17.500  0.00  0.00    +0.000 C 
ATOM     12  O   UNL     1       6.999   5.732  18.378  0.00  0.00    +0.000 OA
BRANCH  11  13
ATOM     13  O   UNL     1       8.294   4.012  17.686  0.00  0.00    +0.000 OA
ATOM     14  H   UNL     1       9.217   4.290  17.514  0.00  0.00    +0.000 HD
ENDBRANCH  11  13
ENDBRANCH  10  11
ENDBRANCH   9  10
ENDBRANCH   1   9
TORSDOF 7
ENDMDL
MODEL 4
REMARK VINA RESULT:      -4.9      1.116      1.756
REMARK  Name = 
REMARK  9 active torsions:
REMARK  status: ('A' for Active; 'I' for Inactive)
REMARK    1  A    between atoms: C_2  and  C_3
REMARK    2  A    between atoms: C_3  and  N_4
REMARK    3  A    between atoms: N_4  and  C_5
REMARK    4  A    between atoms: N_4  and  C_6
REMARK    5  A    between atoms: N_4  and  N_7
REMARK    6  A    between atoms: N_7  and  C_8
REMARK    7  A    between atoms: C_8  and  C_9
REMARK    8  A    between atoms: C_9  and  C_10
REMARK    9  A    between atoms: C_10  and  O_12
REMARK                            x       y       z     vdW  Elec       q    Type
REMARK                         _______ _______ _______ _____ _____    ______ ____
ROOT
ATOM      1  N   UNL     1       5.888   4.084  18.718  0.00  0.00    +0.000 NA
ATOM      2  H   UNL     1       6.182   4.034  17.723  0.00  0.00    +0.000 HD
ENDROOT
BRANCH   1   3
ATOM      3  N   UNL     1       4.393   4.015  18.848  0.00  0.00    +0.000 N 
ATOM      4  C   UNL     1       3.771   3.749  17.481  0.00  0.00    +0.000 C 
ATOM      5  C   UNL     1       3.894   5.305  19.489  0.00  0.00    +0.000 C 
BRANCH   3   6
ATOM      6  C   UNL     1       4.109   2.814  19.807  0.00  0.00    +0.000 C 
BRANCH   6   8
ATOM      7  C   UNL     1       1.514   2.723  20.439  0.00  0.00    +0.000 C 
ATOM      8  C   UNL     1       2.687   2.761  20.176  0.00  0.00    +0.000 C 
ENDBRANCH   6   8
ENDBRANCH   3   6
ENDBRANCH   1   3
BRANCH   1   9
ATOM      9  C   UNL     1       6.521   5.305  19.283  0.00  0.00    +0.000 C 
BRANCH   9  10
ATOM     10  C   UNL     1       7.463   5.990  18.281  0.00  0.00    +0.000 C 
BRANCH  10  11
ATOM     11  C   UNL     1       7.243   5.463  16.889  0.00  0.00    +0.000 C 
ATOM     12  O   UNL     1       7.868   4.512  16.432  0.00  0.00    +0.000 OA
BRANCH  11  13
ATOM     13  O   UNL     1       6.342   6.161  16.178  0.00  0.00    +0.000 OA
ATOM     14  H   UNL     1       5.992   5.719  15.378  0.00  0.00    +0.000 HD
ENDBRANCH  11  13
ENDBRANCH  10  11
ENDBRANCH   9  10
ENDBRANCH   1   9
TORSDOF 7
ENDMDL
MODEL 5
REMARK VINA RESULT:      -4.8      2.651      4.897
REMARK  Name = 
REMARK  9 active torsions:
REMARK  status: ('A' for Active; 'I' for Inactive)
REMARK    1  A    between atoms: C_2  and  C_3
REMARK    2  A    between atoms: C_3  and  N_4
REMARK    3  A    between atoms: N_4  and  C_5
REMARK    4  A    between atoms: N_4  and  C_6
REMARK    5  A    between atoms: N_4  and  N_7
REMARK    6  A    between atoms: N_7  and  C_8
REMARK    7  A    between atoms: C_8  and  C_9
REMARK    8  A    between atoms: C_9  and  C_10
REMARK    9  A    between atoms: C_10  and  O_12
REMARK                            x       y       z     vdW  Elec       q    Type
REMARK                         _______ _______ _______ _____ _____    ______ ____
ROOT
ATOM      1  N   UNL     1       5.112   3.491  17.367  0.00  0.00    +0.000 NA
ATOM      2  H   UNL     1       5.431   2.909  18.166  0.00  0.00    +0.000 HD
ENDROOT
BRANCH   1   3
ATOM      3  N   UNL     1       5.808   4.822  17.351  0.00  0.00    +0.000 N 
ATOM      4  C   UNL     1       6.345   5.137  18.744  0.00  0.00    +0.000 C 
ATOM      5  C   UNL     1       4.841   5.879  16.831  0.00  0.00    +0.000 C 
BRANCH   3   6
ATOM      6  C   UNL     1       6.995   4.663  16.345  0.00  0.00    +0.000 C 
BRANCH   6   8
ATOM      7  C   UNL     1       6.144   3.952  13.914  0.00  0.00    +0.000 C 
ATOM      8  C   UNL     1       6.506   4.276  15.014  0.00  0.00    +0.000 C 
ENDBRANCH   6   8
ENDBRANCH   3   6
ENDBRANCH   1   3
BRANCH   1   9
ATOM      9  C   UNL     1       3.629   3.551  17.456  0.00  0.00    +0.000 C 
BRANCH   9  10
ATOM     10  C   UNL     1       3.090   2.831  18.702  0.00  0.00    +0.000 C 
BRANCH  10  11
ATOM     11  C   UNL     1       4.120   1.890  19.267  0.00  0.00    +0.000 C 
ATOM     12  O   UNL     1       4.801   2.163  20.249  0.00  0.00    +0.000 OA
BRANCH  11  13
ATOM     13  O   UNL     1       4.260   0.752  18.568  0.00  0.00    +0.000 OA
ATOM     14  H   UNL     1       5.167   0.545  18.262  0.00  0.00    +0.000 HD
ENDBRANCH  11  13
ENDBRANCH  10  11
ENDBRANCH   9  10
ENDBRANCH   1   9
TORSDOF 7
ENDMDL
MODEL 6
REMARK VINA RESULT:      -4.8      1.274      1.348
REMARK  Name = 
REMARK  9 active torsions:
REMARK  status: ('A' for Active; 'I' for Inactive)
REMARK    1  A    between atoms: C_2  and  C_3
REMARK    2  A    between atoms: C_3  and  N_4
REMARK    3  A    between atoms: N_4  and  C_5
REMARK    4  A    between atoms: N_4  and  C_6
REMARK    5  A    between atoms: N_4  and  N_7
REMARK    6  A    between atoms: N_7  and  C_8
REMARK    7  A    between atoms: C_8  and  C_9
REMARK    8  A    between atoms: C_9  and  C_10
REMARK    9  A    between atoms: C_10  and  O_12
REMARK                            x       y       z     vdW  Elec       q    Type
REMARK                         _______ _______ _______ _____ _____    ______ ____
ROOT
ATOM      1  N   UNL     1       4.944   3.386  17.717  0.00  0.00    +0.000 NA
ATOM      2  H   UNL     1       5.058   2.968  16.772  0.00  0.00    +0.000 HD
ENDROOT
BRANCH   1   3
ATOM      3  N   UNL     1       3.611   3.030  18.311  0.00  0.00    +0.000 N 
ATOM      4  C   UNL     1       3.535   1.523  18.535  0.00  0.00    +0.000 C 
ATOM      5  C   UNL     1       2.508   3.554  17.398  0.00  0.00    +0.000 C 
BRANCH   3   6
ATOM      6  C   UNL     1       3.550   3.777  19.683  0.00  0.00    +0.000 C 
BRANCH   6   8
ATOM      7  C   UNL     1       1.303   3.164  20.993  0.00  0.00    +0.000 C 
ATOM      8  C   UNL     1       2.306   3.460  20.399  0.00  0.00    +0.000 C 
ENDBRANCH   6   8
ENDBRANCH   3   6
ENDBRANCH   1   3
BRANCH   1   9
ATOM      9  C   UNL     1       5.206   4.842  17.567  0.00  0.00    +0.000 C 
BRANCH   9  10
ATOM     10  C   UNL     1       5.653   5.210  16.144  0.00  0.00    +0.000 C 
BRANCH  10  11
ATOM     11  C   UNL     1       7.114   4.911  15.946  0.00  0.00    +0.000 C 
ATOM     12  O   UNL     1       7.813   4.403  16.816  0.00  0.00    +0.000 OA
BRANCH  11  13
ATOM     13  O   UNL     1       7.593   5.299  14.752  0.00  0.00    +0.000 OA
ATOM     14  H   UNL     1       7.884   6.232  14.689  0.00  0.00    +0.000 HD
ENDBRANCH  11  13
ENDBRANCH  10  11
ENDBRANCH   9  10
ENDBRANCH   1   9
TORSDOF 7
ENDMDL
MODEL 7
REMARK VINA RESULT:      -4.6      1.634      2.256
REMARK  Name = 
REMARK  9 active torsions:
REMARK  status: ('A' for Active; 'I' for Inactive)
REMARK    1  A    between atoms: C_2  and  C_3
REMARK    2  A    between atoms: C_3  and  N_4
REMARK    3  A    between atoms: N_4  and  C_5
REMARK    4  A    between atoms: N_4  and  C_6
REMARK    5  A    between atoms: N_4  and  N_7
REMARK    6  A    between atoms: N_7  and  C_8
REMARK    7  A    between atoms: C_8  and  C_9
REMARK    8  A    between atoms: C_9  and  C_10
REMARK    9  A    between atoms: C_10  and  O_12
REMARK                            x       y       z     vdW  Elec       q    Type
REMARK                         _______ _______ _______ _____ _____    ______ ____
ROOT
ATOM      1  N   UNL     1       5.929   4.131  18.816  0.00  0.00    +0.000 NA
ATOM      2  H   UNL     1       6.435   3.926  17.932  0.00  0.00    +0.000 HD
ENDROOT
BRANCH   1   3
ATOM      3  N   UNL     1       4.443   4.014  18.631  0.00  0.00    +0.000 N 
ATOM      4  C   UNL     1       4.110   4.013  17.142  0.00  0.00    +0.000 C 
ATOM      5  C   UNL     1       3.760   5.142  19.395  0.00  0.00    +0.000 C 
BRANCH   3   6
ATOM      6  C   UNL     1       4.048   2.642  19.267  0.00  0.00    +0.000 C 
BRANCH   6   8
ATOM      7  C   UNL     1       1.437   2.187  18.924  0.00  0.00    +0.000 C 
ATOM      8  C   UNL     1       2.614   2.371  19.084  0.00  0.00    +0.000 C 
ENDBRANCH   6   8
ENDBRANCH   3   6
ENDBRANCH   1   3
BRANCH   1   9
ATOM      9  C   UNL     1       6.410   5.460  19.277  0.00  0.00    +0.000 C 
BRANCH   9  10
ATOM     10  C   UNL     1       7.677   5.911  18.535  0.00  0.00    +0.000 C 
BRANCH  10  11
ATOM     11  C   UNL     1       7.327   6.694  17.299  0.00  0.00    +0.000 C 
ATOM     12  O   UNL     1       7.386   7.918  17.249  0.00  0.00    +0.000 OA
BRANCH  11  13
ATOM     13  O   UNL     1       6.896   5.936  16.277  0.00  0.00    +0.000 OA
ATOM     14  H   UNL     1       6.596   6.420  15.480  0.00  0.00    +0.000 HD
ENDBRANCH  11  13
ENDBRANCH  10  11
ENDBRANCH   9  10
ENDBRANCH   1   9
TORSDOF 7
ENDMDL
MODEL 8
REMARK VINA RESULT:      -4.6      1.090      1.463
REMARK  Name = 
REMARK  9 active torsions:
REMARK  status: ('A' for Active; 'I' for Inactive)
REMARK    1  A    between atoms: C_2  and  C_3
REMARK    2  A    between atoms: C_3  and  N_4
REMARK    3  A    between atoms: N_4  and  C_5
REMARK    4  A    between atoms: N_4  and  C_6
REMARK    5  A    between atoms: N_4  and  N_7
REMARK    6  A    between atoms: N_7  and  C_8
REMARK    7  A    between atoms: C_8  and  C_9
REMARK    8  A    between atoms: C_9  and  C_10
REMARK    9  A    between atoms: C_10  and  O_12
REMARK                            x       y       z     vdW  Elec       q    Type
REMARK                         _______ _______ _______ _____ _____    ______ ____
ROOT
ATOM      1  N   UNL     1       4.502   3.812  17.027  0.00  0.00    +0.000 NA
ATOM      2  H   UNL     1       4.069   3.659  16.095  0.00  0.00    +0.000 HD
ENDROOT
BRANCH   1   3
ATOM      3  N   UNL     1       3.590   3.360  18.132  0.00  0.00    +0.000 N 
ATOM      4  C   UNL     1       4.417   2.980  19.356  0.00  0.00    +0.000 C 
ATOM      5  C   UNL     1       2.723   2.216  17.618  0.00  0.00    +0.000 C 
BRANCH   3   6
ATOM      6  C   UNL     1       2.685   4.592  18.460  0.00  0.00    +0.000 C 
BRANCH   6   8
ATOM      7  C   UNL     1       0.965   4.045  20.430  0.00  0.00    +0.000 C 
ATOM      8  C   UNL     1       1.755   4.283  19.556  0.00  0.00    +0.000 C 
ENDBRANCH   6   8
ENDBRANCH   3   6
ENDBRANCH   1   3
BRANCH   1   9
ATOM      9  C   UNL     1       4.899   5.244  17.076  0.00  0.00    +0.000 C 
BRANCH   9  10
ATOM     10  C   UNL     1       6.294   5.441  17.688  0.00  0.00    +0.000 C 
BRANCH  10  11
ATOM     11  C   UNL     1       7.329   4.648  16.937  0.00  0.00    +0.000 C 
ATOM     12  O   UNL     1       7.321   4.535  15.716  0.00  0.00    +0.000 OA
BRANCH  11  13
ATOM     13  O   UNL     1       8.226   4.036  17.727  0.00  0.00    +0.000 OA
ATOM     14  H   UNL     1       7.912   3.235  18.194  0.00  0.00    +0.000 HD
ENDBRANCH  11  13
ENDBRANCH  10  11
ENDBRANCH   9  10
ENDBRANCH   1   9
TORSDOF 7
ENDMDL
MODEL 9
REMARK VINA RESULT:      -4.6      1.496      1.539
REMARK  Name = 
REMARK  9 active torsions:
REMARK  status: ('A' for Active; 'I' for Inactive)
REMARK    1  A    between atoms: C_2  and  C_3
REMARK    2  A    between atoms: C_3  and  N_4
REMARK    3  A    between atoms: N_4  and  C_5
REMARK    4  A    between atoms: N_4  and  C_6
REMARK    5  A    between atoms: N_4  and  N_7
REMARK    6  A    between atoms: N_7  and  C_8
REMARK    7  A    between atoms: C_8  and  C_9
REMARK    8  A    between atoms: C_9  and  C_10
REMARK    9  A    between atoms: C_10  and  O_12
REMARK                            x       y       z     vdW  Elec       q    Type
REMARK                         _______ _______ _______ _____ _____    ______ ____
ROOT
ATOM      1  N   UNL     1       4.541   5.448  18.478  0.00  0.00    +0.000 NA
ATOM      2  H   UNL     1       5.528   5.294  18.765  0.00  0.00    +0.000 HD
ENDROOT
BRANCH   1   3
ATOM      3  N   UNL     1       3.660   4.320  18.934  0.00  0.00    +0.000 N 
ATOM      4  C   UNL     1       4.523   3.166  19.436  0.00  0.00    +0.000 C 
ATOM      5  C   UNL     1       2.738   3.920  17.787  0.00  0.00    +0.000 C 
BRANCH   3   6
ATOM      6  C   UNL     1       2.807   4.900  20.108  0.00  0.00    +0.000 C 
BRANCH   6   8
ATOM      7  C   UNL     1       1.342   2.974  21.242  0.00  0.00    +0.000 C 
ATOM      8  C   UNL     1       2.011   3.844  20.751  0.00  0.00    +0.000 C 
ENDBRANCH   6   8
ENDBRANCH   3   6
ENDBRANCH   1   3
BRANCH   1   9
ATOM      9  C   UNL     1       4.562   5.686  17.011  0.00  0.00    +0.000 C 
BRANCH   9  10
ATOM     10  C   UNL     1       5.990   5.825  16.463  0.00  0.00    +0.000 C 
BRANCH  10  11
ATOM     11  C   UNL     1       6.721   4.512  16.527  0.00  0.00    +0.000 C 
ATOM     12  O   UNL     1       7.925   4.431  16.746  0.00  0.00    +0.000 OA
BRANCH  11  13
ATOM     13  O   UNL     1       5.947   3.444  16.270  0.00  0.00    +0.000 OA
ATOM     14  H   UNL     1       5.972   3.107  15.351  0.00  0.00    +0.000 HD
ENDBRANCH  11  13
ENDBRANCH  10  11
ENDBRANCH   9  10
ENDBRANCH   1   9
TORSDOF 7
ENDMDL
