MODEL 1
REMARK VINA RESULT:      -7.7      0.000      0.000
REMARK  Name = 
REMARK  5 active torsions:
REMARK  status: ('A' for Active; 'I' for Inactive)
REMARK    1  A    between atoms: C_1  and  C_2
REMARK    2  A    between atoms: C_2  and  C_4
REMARK    3  A    between atoms: N_6  and  C_7
REMARK    4  A    between atoms: C_11  and  C_12
REMARK    5  A    between atoms: N_17  and  C_18
REMARK                            x       y       z     vdW  Elec       q    Type
REMARK                         _______ _______ _______ _____ _____    ______ ____
ROOT
ATOM      1  C   UNL     1       6.216   4.189  15.685  0.00  0.00    +0.000 A 
ATOM      2  C   UNL     1       7.464   4.313  16.335  0.00  0.00    +0.000 A 
ATOM      3  C   UNL     1       7.544   4.762  17.647  0.00  0.00    +0.000 A 
ATOM      4  C   UNL     1       6.390   5.112  18.340  0.00  0.00    +0.000 A 
ATOM      5  C   UNL     1       5.133   5.043  17.719  0.00  0.00    +0.000 A 
ATOM      6  C   UNL     1       5.057   4.567  16.393  0.00  0.00    +0.000 A 
ENDROOT
BRANCH   5   7
ATOM      7  C   UNL     1       3.888   5.381  18.473  0.00  0.00    +0.000 C 
ATOM      8  O   UNL     1       3.566   6.562  18.491  0.00  0.00    +0.000 OA
ATOM      9  N   UNL     1       3.121   4.467  19.171  0.00  0.00    +0.000 N 
ATOM     10  C   UNL     1       1.898   4.915  19.838  0.00  0.00    +0.000 C 
ATOM     11  C   UNL     1       0.836   3.804  19.829  0.00  0.00    +0.000 C 
ATOM     12  N   UNL     1       1.360   2.532  20.368  0.00  0.00    +0.000 NA
ATOM     13  C   UNL     1       1.628   2.594  21.818  0.00  0.00    +0.000 C 
ATOM     14  C   UNL     1       2.531   2.095  19.581  0.00  0.00    +0.000 C 
ATOM     15  C   UNL     1       3.640   3.158  19.586  0.00  0.00    +0.000 C 
ENDBRANCH   5   7
BRANCH   1  18
ATOM     16  C   UNL     1       6.669   4.261  13.231  0.00  0.00    +0.000 C 
ATOM     17  O   UNL     1       7.425   5.214  13.326  0.00  0.00    +0.000 OA
ATOM     18  N   UNL     1       6.081   3.706  14.337  0.00  0.00    +0.000 N 
ATOM     19  H   UNL     1       5.532   2.842  14.199  0.00  0.00    +0.000 HD
BRANCH  16  21
ATOM     20  C   UNL     1       7.300   2.432  11.665  0.00  0.00    +0.000 C 
ATOM     21  C   UNL     1       6.442   3.679  11.860  0.00  0.00    +0.000 C 
ATOM     22 BR   UNL     1       4.562   3.211  11.671  0.00  0.00    +0.000 Br
ENDBRANCH  16  21
ENDBRANCH   1  18
TORSDOF 3
ENDMDL
MODEL 2
REMARK VINA RESULT:      -7.3      1.020      1.122
REMARK  Name = 
REMARK  5 active torsions:
REMARK  status: ('A' for Active; 'I' for Inactive)
REMARK    1  A    between atoms: C_1  and  C_2
REMARK    2  A    between atoms: C_2  and  C_4
REMARK    3  A    between atoms: N_6  and  C_7
REMARK    4  A    between atoms: C_11  and  C_12
REMARK    5  A    between atoms: N_17  and  C_18
REMARK                            x       y       z     vdW  Elec       q    Type
REMARK                         _______ _______ _______ _____ _____    ______ ____
ROOT
ATOM      1  C   UNL     1       6.357   4.289  16.514  0.00  0.00    +0.000 A 
ATOM      2  C   UNL     1       7.586   4.581  17.145  0.00  0.00    +0.000 A 
ATOM      3  C   UNL     1       7.621   5.158  18.408  0.00  0.00    +0.000 A 
ATOM      4  C   UNL     1       6.438   5.472  19.069  0.00  0.00    +0.000 A 
ATOM      5  C   UNL     1       5.194   5.237  18.461  0.00  0.00    +0.000 A 
ATOM      6  C   UNL     1       5.166   4.632  17.186  0.00  0.00    +0.000 A 
ENDROOT
BRANCH   5   7
ATOM      7  C   UNL     1       3.921   5.538  19.183  0.00  0.00    +0.000 C 
ATOM      8  O   UNL     1       3.645   6.721  19.330  0.00  0.00    +0.000 OA
ATOM      9  N   UNL     1       3.080   4.581  19.721  0.00  0.00    +0.000 N 
ATOM     10  C   UNL     1       1.838   5.001  20.372  0.00  0.00    +0.000 C 
ATOM     11  C   UNL     1       0.737   3.948  20.169  0.00  0.00    +0.000 C 
ATOM     12  N   UNL     1       1.178   2.598  20.574  0.00  0.00    +0.000 NA
ATOM     13  C   UNL     1       1.364   2.472  22.033  0.00  0.00    +0.000 C 
ATOM     14  C   UNL     1       2.376   2.207  19.803  0.00  0.00    +0.000 C 
ATOM     15  C   UNL     1       3.523   3.210  19.998  0.00  0.00    +0.000 C 
ENDBRANCH   5   7
BRANCH   1  18
ATOM     16  C   UNL     1       6.504   4.295  14.022  0.00  0.00    +0.000 C 
ATOM     17  O   UNL     1       6.870   5.458  13.975  0.00  0.00    +0.000 OA
ATOM     18  N   UNL     1       6.269   3.670  15.218  0.00  0.00    +0.000 N 
ATOM     19  H   UNL     1       6.059   2.660  15.192  0.00  0.00    +0.000 HD
BRANCH  16  21
ATOM     20  C   UNL     1       4.897   3.456  12.318  0.00  0.00    +0.000 C 
ATOM     21  C   UNL     1       6.365   3.551  12.720  0.00  0.00    +0.000 C 
ATOM     22 BR   UNL     1       7.357   4.497  11.337  0.00  0.00    +0.000 Br
ENDBRANCH  16  21
ENDBRANCH   1  18
TORSDOF 3
ENDMDL
MODEL 3
REMARK VINA RESULT:      -6.9      0.989      1.077
REMARK  Name = 
REMARK  5 active torsions:
REMARK  status: ('A' for Active; 'I' for Inactive)
REMARK    1  A    between atoms: C_1  and  C_2
REMARK    2  A    between atoms: C_2  and  C_4
REMARK    3  A    between atoms: N_6  and  C_7
REMARK    4  A    between atoms: C_11  and  C_12
REMARK    5  A    between atoms: N_17  and  C_18
REMARK                            x       y       z     vdW  Elec       q    Type
REMARK                         _______ _______ _______ _____ _____    ______ ____
ROOT
ATOM      1  C   UNL     1       5.846   4.224  15.609  0.00  0.00    +0.000 A 
ATOM      2  C   UNL     1       7.111   4.779  15.899  0.00  0.00    +0.000 A 
ATOM      3  C   UNL     1       7.296   5.592  17.011  0.00  0.00    +0.000 A 
ATOM      4  C   UNL     1       6.227   5.884  17.852  0.00  0.00    +0.000 A 
ATOM      5  C   UNL     1       4.944   5.387  17.577  0.00  0.00    +0.000 A 
ATOM      6  C   UNL     1       4.767   4.545  16.458  0.00  0.00    +0.000 A 
ENDROOT
BRANCH   5   7
ATOM      7  C   UNL     1       3.802   5.667  18.499  0.00  0.00    +0.000 C 
ATOM      8  O   UNL     1       3.501   6.844  18.651  0.00  0.00    +0.000 OA
ATOM      9  N   UNL     1       3.111   4.702  19.208  0.00  0.00    +0.000 N 
ATOM     10  C   UNL     1       1.982   5.099  20.051  0.00  0.00    +0.000 C 
ATOM     11  C   UNL     1       0.913   3.996  20.080  0.00  0.00    +0.000 C 
ATOM     12  N   UNL     1       1.480   2.683  20.449  0.00  0.00    +0.000 NA
ATOM     13  C   UNL     1       1.920   2.626  21.857  0.00  0.00    +0.000 C 
ATOM     14  C   UNL     1       2.543   2.308  19.495  0.00  0.00    +0.000 C 
ATOM     15  C   UNL     1       3.659   3.362  19.452  0.00  0.00    +0.000 C 
ENDBRANCH   5   7
BRANCH   1  18
ATOM     16  C   UNL     1       6.096   3.551  13.218  0.00  0.00    +0.000 C 
ATOM     17  O   UNL     1       6.837   4.484  12.958  0.00  0.00    +0.000 OA
ATOM     18  N   UNL     1       5.611   3.358  14.484  0.00  0.00    +0.000 N 
ATOM     19  H   UNL     1       5.071   2.495  14.659  0.00  0.00    +0.000 HD
BRANCH  16  21
ATOM     20  C   UNL     1       4.649   3.140  11.236  0.00  0.00    +0.000 C 
ATOM     21  C   UNL     1       5.770   2.584  12.109  0.00  0.00    +0.000 C 
ATOM     22 BR   UNL     1       7.361   2.303  11.023  0.00  0.00    +0.000 Br
ENDBRANCH  16  21
ENDBRANCH   1  18
TORSDOF 3
ENDMDL
MODEL 4
REMARK VINA RESULT:      -6.8      1.207      1.230
REMARK  Name = 
REMARK  5 active torsions:
REMARK  status: ('A' for Active; 'I' for Inactive)
REMARK    1  A    between atoms: C_1  and  C_2
REMARK    2  A    between atoms: C_2  and  C_4
REMARK    3  A    between atoms: N_6  and  C_7
REMARK    4  A    between atoms: C_11  and  C_12
REMARK    5  A    between atoms: N_17  and  C_18
REMARK                            x       y       z     vdW  Elec       q    Type
REMARK                         _______ _______ _______ _____ _____    ______ ____
ROOT
ATOM      1  C   UNL     1       6.313   5.492  16.274  0.00  0.00    +0.000 A 
ATOM      2  C   UNL     1       7.495   5.433  17.044  0.00  0.00    +0.000 A 
ATOM      3  C   UNL     1       7.446   5.489  18.432  0.00  0.00    +0.000 A 
ATOM      4  C   UNL     1       6.225   5.619  19.085  0.00  0.00    +0.000 A 
ATOM      5  C   UNL     1       5.030   5.722  18.357  0.00  0.00    +0.000 A 
ATOM      6  C   UNL     1       5.085   5.644  16.949  0.00  0.00    +0.000 A 
ENDROOT
BRANCH   5   7
ATOM      7  C   UNL     1       3.714   5.822  19.057  0.00  0.00    +0.000 C 
ATOM      8  O   UNL     1       3.254   6.948  19.194  0.00  0.00    +0.000 OA
ATOM      9  N   UNL     1       3.022   4.747  19.585  0.00  0.00    +0.000 N 
ATOM     10  C   UNL     1       1.720   4.969  20.214  0.00  0.00    +0.000 C 
ATOM     11  C   UNL     1       0.799   3.757  19.998  0.00  0.00    +0.000 C 
ATOM     12  N   UNL     1       1.438   2.493  20.415  0.00  0.00    +0.000 NA
ATOM     13  C   UNL     1       1.617   2.400  21.878  0.00  0.00    +0.000 C 
ATOM     14  C   UNL     1       2.695   2.292  19.666  0.00  0.00    +0.000 C 
ATOM     15  C   UNL     1       3.669   3.462  19.875  0.00  0.00    +0.000 C 
ENDBRANCH   5   7
BRANCH   1  18
ATOM     16  C   UNL     1       6.174   4.264  14.104  0.00  0.00    +0.000 C 
ATOM     17  O   UNL     1       5.983   3.187  14.644  0.00  0.00    +0.000 OA
ATOM     18  N   UNL     1       6.311   5.414  14.837  0.00  0.00    +0.000 N 
ATOM     19  H   UNL     1       6.370   6.304  14.316  0.00  0.00    +0.000 HD
BRANCH  16  21
ATOM     20  C   UNL     1       7.549   4.825  12.108  0.00  0.00    +0.000 C 
ATOM     21  C   UNL     1       6.204   4.299  12.598  0.00  0.00    +0.000 C 
ATOM     22 BR   UNL     1       5.921   2.498  11.916  0.00  0.00    +0.000 Br
ENDBRANCH  16  21
ENDBRANCH   1  18
TORSDOF 3
ENDMDL
MODEL 5
REMARK VINA RESULT:      -6.8      1.416      1.492
REMARK  Name = 
REMARK  5 active torsions:
REMARK  status: ('A' for Active; 'I' for Inactive)
REMARK    1  A    between atoms: C_1  and  C_2
REMARK    2  A    between atoms: C_2  and  C_4
REMARK    3  A    between atoms: N_6  and  C_7
REMARK    4  A    between atoms: C_11  and  C_12
REMARK    5  A    between atoms: N_17  and  C_18
REMARK                            x       y       z     vdW  Elec       q    Type
REMARK                         _______ _______ _______ _____ _____    ______ ____
ROOT
ATOM      1  C   UNL     1       6.192   5.594  16.022  0.00  0.00    +0.000 A 
ATOM      2  C   UNL     1       7.323   5.973  16.777  0.00  0.00    +0.000 A 
ATOM      3  C   UNL     1       7.201   6.325  18.116  0.00  0.00    +0.000 A 
ATOM      4  C   UNL     1       5.954   6.323  18.731  0.00  0.00    +0.000 A 
ATOM      5  C   UNL     1       4.798   5.992  18.007  0.00  0.00    +0.000 A 
ATOM      6  C   UNL     1       4.931   5.615  16.653  0.00  0.00    +0.000 A 
ENDROOT
BRANCH   5   7
ATOM      7  C   UNL     1       3.463   5.951  18.675  0.00  0.00    +0.000 C 
ATOM      8  O   UNL     1       2.839   7.004  18.708  0.00  0.00    +0.000 OA
ATOM      9  N   UNL     1       2.923   4.832  19.280  0.00  0.00    +0.000 N 
ATOM     10  C   UNL     1       1.584   4.908  19.867  0.00  0.00    +0.000 C 
ATOM     11  C   UNL     1       0.859   3.558  19.739  0.00  0.00    +0.000 C 
ATOM     12  N   UNL     1       1.665   2.442  20.273  0.00  0.00    +0.000 NA
ATOM     13  C   UNL     1       1.814   2.496  21.741  0.00  0.00    +0.000 C 
ATOM     14  C   UNL     1       2.959   2.371  19.563  0.00  0.00    +0.000 C 
ATOM     15  C   UNL     1       3.743   3.685  19.689  0.00  0.00    +0.000 C 
ENDBRANCH   5   7
BRANCH   1  18
ATOM     16  C   UNL     1       6.178   3.912  14.177  0.00  0.00    +0.000 C 
ATOM     17  O   UNL     1       5.962   2.979  14.933  0.00  0.00    +0.000 OA
ATOM     18  N   UNL     1       6.271   5.197  14.641  0.00  0.00    +0.000 N 
ATOM     19  H   UNL     1       6.355   5.950  13.939  0.00  0.00    +0.000 HD
BRANCH  16  21
ATOM     20  C   UNL     1       4.910   3.593  12.060  0.00  0.00    +0.000 C 
ATOM     21  C   UNL     1       6.292   3.611  12.705  0.00  0.00    +0.000 C 
ATOM     22 BR   UNL     1       7.388   4.980  11.859  0.00  0.00    +0.000 Br
ENDBRANCH  16  21
ENDBRANCH   1  18
TORSDOF 3
ENDMDL
MODEL 6
REMARK VINA RESULT:      -6.8      5.887      8.468
REMARK  Name = 
REMARK  5 active torsions:
REMARK  status: ('A' for Active; 'I' for Inactive)
REMARK    1  A    between atoms: C_1  and  C_2
REMARK    2  A    between atoms: C_2  and  C_4
REMARK    3  A    between atoms: N_6  and  C_7
REMARK    4  A    between atoms: C_11  and  C_12
REMARK    5  A    between atoms: N_17  and  C_18
REMARK                            x       y       z     vdW  Elec       q    Type
REMARK                         _______ _______ _______ _____ _____    ______ ____
ROOT
ATOM      1  C   UNL     1       2.344   6.977  19.659  0.00  0.00    +0.000 A 
ATOM      2  C   UNL     1       2.490   7.274  18.287  0.00  0.00    +0.000 A 
ATOM      3  C   UNL     1       2.057   8.489  17.770  0.00  0.00    +0.000 A 
ATOM      4  C   UNL     1       1.457   9.430  18.599  0.00  0.00    +0.000 A 
ATOM      5  C   UNL     1       1.256   9.160  19.962  0.00  0.00    +0.000 A 
ATOM      6  C   UNL     1       1.716   7.932  20.485  0.00  0.00    +0.000 A 
ENDROOT
BRANCH   5   7
ATOM      7  C   UNL     1       0.648  10.184  20.863  0.00  0.00    +0.000 C 
ATOM      8  O   UNL     1       1.077  10.224  22.009  0.00  0.00    +0.000 OA
ATOM      9  N   UNL     1      -0.377  11.039  20.501  0.00  0.00    +0.000 N 
ATOM     10  C   UNL     1      -0.862  12.028  21.464  0.00  0.00    +0.000 C 
ATOM     11  C   UNL     1      -1.323  13.305  20.743  0.00  0.00    +0.000 C 
ATOM     12  N   UNL     1      -2.293  13.017  19.668  0.00  0.00    +0.000 NA
ATOM     13  C   UNL     1      -3.595  12.550  20.184  0.00  0.00    +0.000 C 
ATOM     14  C   UNL     1      -1.695  12.090  18.686  0.00  0.00    +0.000 C 
ATOM     15  C   UNL     1      -1.248  10.779  19.348  0.00  0.00    +0.000 C 
ENDBRANCH   5   7
BRANCH   1  18
ATOM     16  C   UNL     1       1.993   4.706  20.636  0.00  0.00    +0.000 C 
ATOM     17  O   UNL     1       0.787   4.737  20.457  0.00  0.00    +0.000 OA
ATOM     18  N   UNL     1       2.798   5.744  20.246  0.00  0.00    +0.000 N 
ATOM     19  H   UNL     1       3.819   5.612  20.335  0.00  0.00    +0.000 HD
BRANCH  16  21
ATOM     20  C   UNL     1       1.470   2.482  21.622  0.00  0.00    +0.000 C 
ATOM     21  C   UNL     1       2.578   3.464  21.257  0.00  0.00    +0.000 C 
ATOM     22 BR   UNL     1       3.794   2.630  19.986  0.00  0.00    +0.000 Br
ENDBRANCH  16  21
ENDBRANCH   1  18
TORSDOF 3
ENDMDL
MODEL 7
REMARK VINA RESULT:      -6.8      4.110      7.784
REMARK  Name = 
REMARK  5 active torsions:
REMARK  status: ('A' for Active; 'I' for Inactive)
REMARK    1  A    between atoms: C_1  and  C_2
REMARK    2  A    between atoms: C_2  and  C_4
REMARK    3  A    between atoms: N_6  and  C_7
REMARK    4  A    between atoms: C_11  and  C_12
REMARK    5  A    between atoms: N_17  and  C_18
REMARK                            x       y       z     vdW  Elec       q    Type
REMARK                         _______ _______ _______ _____ _____    ______ ____
ROOT
ATOM      1  C   UNL     1       1.673   5.676  20.600  0.00  0.00    +0.000 A 
ATOM      2  C   UNL     1       0.755   4.610  20.482  0.00  0.00    +0.000 A 
ATOM      3  C   UNL     1       1.144   3.389  19.947  0.00  0.00    +0.000 A 
ATOM      4  C   UNL     1       2.449   3.201  19.503  0.00  0.00    +0.000 A 
ATOM      5  C   UNL     1       3.384   4.247  19.564  0.00  0.00    +0.000 A 
ATOM      6  C   UNL     1       2.987   5.479  20.128  0.00  0.00    +0.000 A 
ENDROOT
BRANCH   5   7
ATOM      7  C   UNL     1       4.796   4.037  19.125  0.00  0.00    +0.000 C 
ATOM      8  O   UNL     1       5.375   3.068  19.598  0.00  0.00    +0.000 OA
ATOM      9  N   UNL     1       5.485   4.878  18.270  0.00  0.00    +0.000 N 
ATOM     10  C   UNL     1       6.856   4.542  17.883  0.00  0.00    +0.000 C 
ATOM     11  C   UNL     1       7.146   5.018  16.450  0.00  0.00    +0.000 C 
ATOM     12  N   UNL     1       6.822   6.448  16.264  0.00  0.00    +0.000 NA
ATOM     13  C   UNL     1       7.737   7.340  17.004  0.00  0.00    +0.000 C 
ATOM     14  C   UNL     1       5.400   6.687  16.581  0.00  0.00    +0.000 C 
ATOM     15  C   UNL     1       5.062   6.260  18.017  0.00  0.00    +0.000 C 
ENDBRANCH   5   7
BRANCH   1  18
ATOM     16  C   UNL     1       1.444   8.161  20.541  0.00  0.00    +0.000 C 
ATOM     17  O   UNL     1       1.822   8.240  19.384  0.00  0.00    +0.000 OA
ATOM     18  N   UNL     1       1.324   6.951  21.170  0.00  0.00    +0.000 N 
ATOM     19  H   UNL     1       0.905   6.946  22.114  0.00  0.00    +0.000 HD
BRANCH  16  21
ATOM     20  C   UNL     1       0.546  10.462  20.236  0.00  0.00    +0.000 C 
ATOM     21  C   UNL     1       1.063   9.439  21.243  0.00  0.00    +0.000 C 
ATOM     22 BR   UNL     1      -0.326   9.055  22.552  0.00  0.00    +0.000 Br
ENDBRANCH  16  21
ENDBRANCH   1  18
TORSDOF 3
ENDMDL
MODEL 8
REMARK VINA RESULT:      -6.5      3.780      4.785
REMARK  Name = 
REMARK  5 active torsions:
REMARK  status: ('A' for Active; 'I' for Inactive)
REMARK    1  A    between atoms: C_1  and  C_2
REMARK    2  A    between atoms: C_2  and  C_4
REMARK    3  A    between atoms: N_6  and  C_7
REMARK    4  A    between atoms: C_11  and  C_12
REMARK    5  A    between atoms: N_17  and  C_18
REMARK                            x       y       z     vdW  Elec       q    Type
REMARK                         _______ _______ _______ _____ _____    ______ ____
ROOT
ATOM      1  C   UNL     1       6.660   6.981  17.038  0.00  0.00    +0.000 A 
ATOM      2  C   UNL     1       7.244   5.842  16.445  0.00  0.00    +0.000 A 
ATOM      3  C   UNL     1       6.553   4.638  16.377  0.00  0.00    +0.000 A 
ATOM      4  C   UNL     1       5.272   4.535  16.909  0.00  0.00    +0.000 A 
ATOM      5  C   UNL     1       4.669   5.632  17.544  0.00  0.00    +0.000 A 
ATOM      6  C   UNL     1       5.369   6.857  17.591  0.00  0.00    +0.000 A 
ENDROOT
BRANCH   5   7
ATOM      7  C   UNL     1       3.279   5.535  18.082  0.00  0.00    +0.000 C 
ATOM      8  O   UNL     1       2.523   6.458  17.805  0.00  0.00    +0.000 OA
ATOM      9  N   UNL     1       2.819   4.512  18.890  0.00  0.00    +0.000 N 
ATOM     10  C   UNL     1       1.420   4.509  19.321  0.00  0.00    +0.000 C 
ATOM     11  C   UNL     1       0.899   3.070  19.459  0.00  0.00    +0.000 C 
ATOM     12  N   UNL     1       1.773   2.242  20.315  0.00  0.00    +0.000 NA
ATOM     13  C   UNL     1       1.732   2.649  21.734  0.00  0.00    +0.000 C 
ATOM     14  C   UNL     1       3.141   2.215  19.761  0.00  0.00    +0.000 C 
ATOM     15  C   UNL     1       3.726   3.630  19.633  0.00  0.00    +0.000 C 
ENDBRANCH   5   7
BRANCH   1  18
ATOM     16  C   UNL     1       8.243   8.619  18.061  0.00  0.00    +0.000 C 
ATOM     17  O   UNL     1       8.611   7.835  18.920  0.00  0.00    +0.000 OA
ATOM     18  N   UNL     1       7.327   8.255  17.110  0.00  0.00    +0.000 N 
ATOM     19  H   UNL     1       7.133   8.932  16.355  0.00  0.00    +0.000 HD
BRANCH  16  21
ATOM     20  C   UNL     1       7.856  11.027  17.566  0.00  0.00    +0.000 C 
ATOM     21  C   UNL     1       8.866   9.991  18.049  0.00  0.00    +0.000 C 
ATOM     22 BR   UNL     1       9.447  10.441  19.852  0.00  0.00    +0.000 Br
ENDBRANCH  16  21
ENDBRANCH   1  18
TORSDOF 3
ENDMDL
MODEL 9
REMARK VINA RESULT:      -6.4      1.532      1.788
REMARK  Name = 
REMARK  5 active torsions:
REMARK  status: ('A' for Active; 'I' for Inactive)
REMARK    1  A    between atoms: C_1  and  C_2
REMARK    2  A    between atoms: C_2  and  C_4
REMARK    3  A    between atoms: N_6  and  C_7
REMARK    4  A    between atoms: C_11  and  C_12
REMARK    5  A    between atoms: N_17  and  C_18
REMARK                            x       y       z     vdW  Elec       q    Type
REMARK                         _______ _______ _______ _____ _____    ______ ____
ROOT
ATOM      1  C   UNL     1       6.078   4.158  14.840  0.00  0.00    +0.000 A 
ATOM      2  C   UNL     1       7.069   5.163  14.855  0.00  0.00    +0.000 A 
ATOM      3  C   UNL     1       7.418   5.803  16.038  0.00  0.00    +0.000 A 
ATOM      4  C   UNL     1       6.782   5.471  17.229  0.00  0.00    +0.000 A 
ATOM      5  C   UNL     1       5.763   4.507  17.253  0.00  0.00    +0.000 A 
ATOM      6  C   UNL     1       5.427   3.846  16.051  0.00  0.00    +0.000 A 
ENDROOT
BRANCH   5   7
ATOM      7  C   UNL     1       5.105   4.120  18.537  0.00  0.00    +0.000 C 
ATOM      8  O   UNL     1       5.843   3.966  19.501  0.00  0.00    +0.000 OA
ATOM      9  N   UNL     1       3.750   3.889  18.686  0.00  0.00    +0.000 N 
ATOM     10  C   UNL     1       3.219   3.553  20.008  0.00  0.00    +0.000 C 
ATOM     11  C   UNL     1       1.797   4.109  20.178  0.00  0.00    +0.000 C 
ATOM     12  N   UNL     1       0.905   3.701  19.073  0.00  0.00    +0.000 NA
ATOM     13  C   UNL     1       0.601   2.257  19.089  0.00  0.00    +0.000 C 
ATOM     14  C   UNL     1       1.459   4.161  17.783  0.00  0.00    +0.000 C 
ATOM     15  C   UNL     1       2.871   3.605  17.546  0.00  0.00    +0.000 C 
ENDBRANCH   5   7
BRANCH   1  18
ATOM     16  C   UNL     1       6.298   3.581  12.421  0.00  0.00    +0.000 C 
ATOM     17  O   UNL     1       7.271   4.301  12.265  0.00  0.00    +0.000 OA
ATOM     18  N   UNL     1       5.699   3.450  13.646  0.00  0.00    +0.000 N 
ATOM     19  H   UNL     1       4.944   2.751  13.732  0.00  0.00    +0.000 HD
BRANCH  16  21
ATOM     20  C   UNL     1       6.068   1.310  11.430  0.00  0.00    +0.000 C 
ATOM     21  C   UNL     1       5.805   2.800  11.231  0.00  0.00    +0.000 C 
ATOM     22 BR   UNL     1       3.893   3.100  11.021  0.00  0.00    +0.000 Br
ENDBRANCH  16  21
ENDBRANCH   1  18
TORSDOF 3
ENDMDL
