MODEL 1
REMARK VINA RESULT:      -6.7      0.000      0.000
REMARK  Name = 
REMARK  7 active torsions:
REMARK  status: ('A' for Active; 'I' for Inactive)
REMARK    1  A    between atoms: N_8  and  C_9
REMARK    2  A    between atoms: C_9  and  C_10
REMARK    3  A    between atoms: C_13  and  C_14
REMARK    4  A    between atoms: C_15  and  C_16
REMARK    5  A    between atoms: C_16  and  O_17
REMARK    6  A    between atoms: N_23  and  C_24
REMARK    7  A    between atoms: C_24  and  C_25
REMARK                            x       y       z     vdW  Elec       q    Type
REMARK                         _______ _______ _______ _____ _____    ______ ____
ROOT
ATOM      1  O   UNL     1      -3.959  15.410  23.782  0.00  0.00    +0.000 OA
ATOM      2  C   UNL     1      -3.207  14.579  23.274  0.00  0.00    +0.000 C 
ATOM      3  C   UNL     1      -1.907  14.994  22.626  0.00  0.00    +0.000 C 
ATOM      4  C   UNL     1      -0.842  13.918  22.637  0.00  0.00    +0.000 C 
ATOM      5  C   UNL     1      -1.383  12.558  22.142  0.00  0.00    +0.000 C 
ATOM      6  C   UNL     1      -1.884  12.586  20.675  0.00  0.00    +0.000 C 
ATOM      7  C   UNL     1      -0.743  12.716  19.666  0.00  0.00    +0.000 C 
ATOM      8  N   UNL     1       0.282  11.669  19.824  0.00  0.00    +0.000 NA
ATOM      9  C   UNL     1       0.818  11.728  21.200  0.00  0.00    +0.000 C 
ATOM     10  C   UNL     1      -0.260  11.504  22.272  0.00  0.00    +0.000 C 
ATOM     11  C   UNL     1      -2.573  12.199  23.043  0.00  0.00    +0.000 C 
ATOM     12  N   UNL     1      -3.580  13.261  23.047  0.00  0.00    +0.000 N 
ENDROOT
BRANCH   8  13
ATOM     13  C   UNL     1      -0.261  10.334  19.488  0.00  0.00    +0.000 C 
BRANCH  13  14
ATOM     14  C   UNL     1       0.800   9.301  19.158  0.00  0.00    +0.000 A 
ATOM     15  C   UNL     1       1.409   9.256  17.896  0.00  0.00    +0.000 A 
ATOM     16  C   UNL     1       2.331   8.251  17.596  0.00  0.00    +0.000 A 
ATOM     17  C   UNL     1       2.692   7.335  18.576  0.00  0.00    +0.000 A 
ATOM     18  C   UNL     1       2.134   7.398  19.857  0.00  0.00    +0.000 A 
ATOM     19  C   UNL     1       1.182   8.370  20.139  0.00  0.00    +0.000 A 
BRANCH  17  20
ATOM     20  C   UNL     1       3.656   6.339  18.292  0.00  0.00    +0.000 C 
ATOM     21  C   UNL     1       4.454   5.461  18.061  0.00  0.00    +0.000 C 
BRANCH  21  22
ATOM     22  C   UNL     1       5.389   4.384  17.782  0.00  0.00    +0.000 C 
BRANCH  22  23
ATOM     23  O   UNL     1       5.586   3.597  18.948  0.00  0.00    +0.000 OA
ATOM     24  H   UNL     1       6.449   3.158  18.845  0.00  0.00    +0.000 HD
ENDBRANCH  22  23
ENDBRANCH  21  22
ENDBRANCH  17  20
ENDBRANCH  13  14
ENDBRANCH   8  13
BRANCH  12  25
ATOM     25  C   UNL     1      -4.984  12.976  22.744  0.00  0.00    +0.000 C 
BRANCH  25  26
ATOM     26  C   UNL     1      -5.469  13.360  21.339  0.00  0.00    +0.000 C 
ATOM     27  C   UNL     1      -5.901  12.132  20.536  0.00  0.00    +0.000 C 
ATOM     28  C   UNL     1      -7.375  12.030  20.837  0.00  0.00    +0.000 C 
ATOM     29  C   UNL     1      -7.776  13.482  20.929  0.00  0.00    +0.000 C 
ATOM     30  O   UNL     1      -6.646  14.189  21.448  0.00  0.00    +0.000 OA
ENDBRANCH  25  26
ENDBRANCH  12  25
TORSDOF 7
ENDMDL
MODEL 2
REMARK VINA RESULT:      -6.5      4.990      8.390
REMARK  Name = 
REMARK  7 active torsions:
REMARK  status: ('A' for Active; 'I' for Inactive)
REMARK    1  A    between atoms: N_8  and  C_9
REMARK    2  A    between atoms: C_9  and  C_10
REMARK    3  A    between atoms: C_13  and  C_14
REMARK    4  A    between atoms: C_15  and  C_16
REMARK    5  A    between atoms: C_16  and  O_17
REMARK    6  A    between atoms: N_23  and  C_24
REMARK    7  A    between atoms: C_24  and  C_25
REMARK                            x       y       z     vdW  Elec       q    Type
REMARK                         _______ _______ _______ _____ _____    ______ ____
ROOT
ATOM      1  O   UNL     1       0.583   7.832  21.269  0.00  0.00    +0.000 OA
ATOM      2  C   UNL     1       1.218   7.087  20.523  0.00  0.00    +0.000 C 
ATOM      3  C   UNL     1       1.653   5.713  20.977  0.00  0.00    +0.000 C 
ATOM      4  C   UNL     1       1.821   4.716  19.850  0.00  0.00    +0.000 C 
ATOM      5  C   UNL     1       2.662   5.289  18.687  0.00  0.00    +0.000 C 
ATOM      6  C   UNL     1       4.113   5.656  19.092  0.00  0.00    +0.000 C 
ATOM      7  C   UNL     1       4.977   4.424  19.366  0.00  0.00    +0.000 C 
ATOM      8  N   UNL     1       4.999   3.478  18.235  0.00  0.00    +0.000 NA
ATOM      9  C   UNL     1       3.613   3.063  17.933  0.00  0.00    +0.000 C 
ATOM     10  C   UNL     1       2.705   4.243  17.549  0.00  0.00    +0.000 C 
ATOM     11  C   UNL     1       1.960   6.571  18.221  0.00  0.00    +0.000 C 
ATOM     12  N   UNL     1       1.778   7.513  19.327  0.00  0.00    +0.000 N 
ENDROOT
BRANCH   8  13
ATOM     13  C   UNL     1       5.680   4.065  17.060  0.00  0.00    +0.000 C 
BRANCH  13  14
ATOM     14  C   UNL     1       6.434   5.347  17.359  0.00  0.00    +0.000 A 
ATOM     15  C   UNL     1       7.494   5.375  18.274  0.00  0.00    +0.000 A 
ATOM     16  C   UNL     1       8.125   6.582  18.584  0.00  0.00    +0.000 A 
ATOM     17  C   UNL     1       7.738   7.746  17.931  0.00  0.00    +0.000 A 
ATOM     18  C   UNL     1       6.717   7.726  16.976  0.00  0.00    +0.000 A 
ATOM     19  C   UNL     1       6.060   6.533  16.704  0.00  0.00    +0.000 A 
BRANCH  17  20
ATOM     20  C   UNL     1       8.399   8.965  18.210  0.00  0.00    +0.000 C 
ATOM     21  C   UNL     1       8.959  10.000  18.485  0.00  0.00    +0.000 C 
BRANCH  21  22
ATOM     22  C   UNL     1       9.640  11.232  18.847  0.00  0.00    +0.000 C 
BRANCH  22  23
ATOM     23  O   UNL     1      10.733  11.460  17.969  0.00  0.00    +0.000 OA
ATOM     24  H   UNL     1      11.137  12.303  18.240  0.00  0.00    +0.000 HD
ENDBRANCH  22  23
ENDBRANCH  21  22
ENDBRANCH  17  20
ENDBRANCH  13  14
ENDBRANCH   8  13
BRANCH  12  25
ATOM     25  C   UNL     1       2.240   8.899  19.227  0.00  0.00    +0.000 C 
BRANCH  25  26
ATOM     26  C   UNL     1       1.531   9.780  18.188  0.00  0.00    +0.000 C 
ATOM     27  C   UNL     1       0.069  10.028  18.565  0.00  0.00    +0.000 C 
ATOM     28  C   UNL     1       0.136  11.307  19.361  0.00  0.00    +0.000 C 
ATOM     29  C   UNL     1       1.233  12.061  18.650  0.00  0.00    +0.000 C 
ATOM     30  O   UNL     1       2.154  11.081  18.159  0.00  0.00    +0.000 OA
ENDBRANCH  25  26
ENDBRANCH  12  25
TORSDOF 7
ENDMDL
MODEL 3
REMARK VINA RESULT:      -6.5      3.215      5.492
REMARK  Name = 
REMARK  7 active torsions:
REMARK  status: ('A' for Active; 'I' for Inactive)
REMARK    1  A    between atoms: N_8  and  C_9
REMARK    2  A    between atoms: C_9  and  C_10
REMARK    3  A    between atoms: C_13  and  C_14
REMARK    4  A    between atoms: C_15  and  C_16
REMARK    5  A    between atoms: C_16  and  O_17
REMARK    6  A    between atoms: N_23  and  C_24
REMARK    7  A    between atoms: C_24  and  C_25
REMARK                            x       y       z     vdW  Elec       q    Type
REMARK                         _______ _______ _______ _____ _____    ______ ____
ROOT
ATOM      1  O   UNL     1      -0.997  16.610  20.375  0.00  0.00    +0.000 OA
ATOM      2  C   UNL     1      -0.834  15.431  20.063  0.00  0.00    +0.000 C 
ATOM      3  C   UNL     1      -1.292  14.312  20.970  0.00  0.00    +0.000 C 
ATOM      4  C   UNL     1      -1.622  13.026  20.243  0.00  0.00    +0.000 C 
ATOM      5  C   UNL     1      -0.510  12.615  19.253  0.00  0.00    +0.000 C 
ATOM      6  C   UNL     1       0.854  12.331  19.934  0.00  0.00    +0.000 C 
ATOM      7  C   UNL     1       0.844  11.042  20.756  0.00  0.00    +0.000 C 
ATOM      8  N   UNL     1       0.423   9.866  19.972  0.00  0.00    +0.000 NA
ATOM      9  C   UNL     1      -0.923  10.119  19.417  0.00  0.00    +0.000 C 
ATOM     10  C   UNL     1      -0.969  11.348  18.495  0.00  0.00    +0.000 C 
ATOM     11  C   UNL     1      -0.321  13.790  18.285  0.00  0.00    +0.000 C 
ATOM     12  N   UNL     1      -0.033  15.033  19.002  0.00  0.00    +0.000 N 
ENDROOT
BRANCH   8  13
ATOM     13  C   UNL     1       1.413   9.541  18.922  0.00  0.00    +0.000 C 
BRANCH  13  14
ATOM     14  C   UNL     1       1.978   8.137  19.019  0.00  0.00    +0.000 A 
ATOM     15  C   UNL     1       2.687   7.559  17.959  0.00  0.00    +0.000 A 
ATOM     16  C   UNL     1       3.135   6.239  18.048  0.00  0.00    +0.000 A 
ATOM     17  C   UNL     1       2.930   5.522  19.220  0.00  0.00    +0.000 A 
ATOM     18  C   UNL     1       2.270   6.102  20.309  0.00  0.00    +0.000 A 
ATOM     19  C   UNL     1       1.785   7.399  20.200  0.00  0.00    +0.000 A 
BRANCH  17  20
ATOM     20  C   UNL     1       3.416   4.199  19.333  0.00  0.00    +0.000 C 
ATOM     21  C   UNL     1       3.827   3.070  19.469  0.00  0.00    +0.000 C 
BRANCH  21  22
ATOM     22  C   UNL     1       4.306   1.712  19.661  0.00  0.00    +0.000 C 
BRANCH  22  23
ATOM     23  O   UNL     1       4.098   0.950  18.480  0.00  0.00    +0.000 OA
ATOM     24  H   UNL     1       3.193   0.597  18.532  0.00  0.00    +0.000 HD
ENDBRANCH  22  23
ENDBRANCH  21  22
ENDBRANCH  17  20
ENDBRANCH  13  14
ENDBRANCH   8  13
BRANCH  12  25
ATOM     25  C   UNL     1       1.139  15.846  18.669  0.00  0.00    +0.000 C 
BRANCH  25  26
ATOM     26  C   UNL     1       2.463  15.436  19.329  0.00  0.00    +0.000 C 
ATOM     27  C   UNL     1       3.286  14.520  18.421  0.00  0.00    +0.000 C 
ATOM     28  C   UNL     1       4.157  15.490  17.661  0.00  0.00    +0.000 C 
ATOM     29  C   UNL     1       4.433  16.544  18.705  0.00  0.00    +0.000 C 
ATOM     30  O   UNL     1       3.276  16.609  19.543  0.00  0.00    +0.000 OA
ENDBRANCH  25  26
ENDBRANCH  12  25
TORSDOF 7
ENDMDL
MODEL 4
REMARK VINA RESULT:      -6.4      4.496      5.586
REMARK  Name = 
REMARK  7 active torsions:
REMARK  status: ('A' for Active; 'I' for Inactive)
REMARK    1  A    between atoms: N_8  and  C_9
REMARK    2  A    between atoms: C_9  and  C_10
REMARK    3  A    between atoms: C_13  and  C_14
REMARK    4  A    between atoms: C_15  and  C_16
REMARK    5  A    between atoms: C_16  and  O_17
REMARK    6  A    between atoms: N_23  and  C_24
REMARK    7  A    between atoms: C_24  and  C_25
REMARK                            x       y       z     vdW  Elec       q    Type
REMARK                         _______ _______ _______ _____ _____    ______ ____
ROOT
ATOM      1  O   UNL     1      -3.565  15.131  25.246  0.00  0.00    +0.000 OA
ATOM      2  C   UNL     1      -3.090  14.412  24.367  0.00  0.00    +0.000 C 
ATOM      3  C   UNL     1      -2.222  14.986  23.272  0.00  0.00    +0.000 C 
ATOM      4  C   UNL     1      -1.230  14.000  22.691  0.00  0.00    +0.000 C 
ATOM      5  C   UNL     1      -1.894  12.654  22.326  0.00  0.00    +0.000 C 
ATOM      6  C   UNL     1      -2.992  12.778  21.237  0.00  0.00    +0.000 C 
ATOM      7  C   UNL     1      -2.417  13.090  19.855  0.00  0.00    +0.000 C 
ATOM      8  N   UNL     1      -1.397  12.116  19.427  0.00  0.00    +0.000 NA
ATOM      9  C   UNL     1      -0.311  12.089  20.428  0.00  0.00    +0.000 C 
ATOM     10  C   UNL     1      -0.798  11.683  21.829  0.00  0.00    +0.000 C 
ATOM     11  C   UNL     1      -2.552  12.121  23.605  0.00  0.00    +0.000 C 
ATOM     12  N   UNL     1      -3.486  13.096  24.172  0.00  0.00    +0.000 N 
ENDROOT
BRANCH   8  13
ATOM     13  C   UNL     1      -1.992  10.779  19.206  0.00  0.00    +0.000 C 
BRANCH  13  14
ATOM     14  C   UNL     1      -2.488  10.550  17.791  0.00  0.00    +0.000 A 
ATOM     15  C   UNL     1      -1.849   9.648  16.930  0.00  0.00    +0.000 A 
ATOM     16  C   UNL     1      -2.283   9.508  15.610  0.00  0.00    +0.000 A 
ATOM     17  C   UNL     1      -3.392  10.221  15.172  0.00  0.00    +0.000 A 
ATOM     18  C   UNL     1      -4.074  11.087  16.034  0.00  0.00    +0.000 A 
ATOM     19  C   UNL     1      -3.613  11.259  17.333  0.00  0.00    +0.000 A 
BRANCH  17  20
ATOM     20  C   UNL     1      -3.862  10.054  13.849  0.00  0.00    +0.000 C 
ATOM     21  C   UNL     1      -4.230   9.897  12.708  0.00  0.00    +0.000 C 
BRANCH  21  22
ATOM     22  C   UNL     1      -4.648   9.684  11.333  0.00  0.00    +0.000 C 
BRANCH  22  23
ATOM     23  O   UNL     1      -5.952  10.212  11.133  0.00  0.00    +0.000 OA
ATOM     24  H   UNL     1      -5.837  11.105  10.764  0.00  0.00    +0.000 HD
ENDBRANCH  22  23
ENDBRANCH  21  22
ENDBRANCH  17  20
ENDBRANCH  13  14
ENDBRANCH   8  13
BRANCH  12  25
ATOM     25  C   UNL     1      -4.870  12.730  24.479  0.00  0.00    +0.000 C 
BRANCH  25  26
ATOM     26  C   UNL     1      -5.890  12.911  23.345  0.00  0.00    +0.000 C 
ATOM     27  C   UNL     1      -7.326  12.756  23.849  0.00  0.00    +0.000 C 
ATOM     28  C   UNL     1      -7.716  14.169  24.202  0.00  0.00    +0.000 C 
ATOM     29  C   UNL     1      -7.003  14.966  23.137  0.00  0.00    +0.000 C 
ATOM     30  O   UNL     1      -5.799  14.256  22.829  0.00  0.00    +0.000 OA
ENDBRANCH  25  26
ENDBRANCH  12  25
TORSDOF 7
ENDMDL
MODEL 5
REMARK VINA RESULT:      -6.3      1.155      1.350
REMARK  Name = 
REMARK  7 active torsions:
REMARK  status: ('A' for Active; 'I' for Inactive)
REMARK    1  A    between atoms: N_8  and  C_9
REMARK    2  A    between atoms: C_9  and  C_10
REMARK    3  A    between atoms: C_13  and  C_14
REMARK    4  A    between atoms: C_15  and  C_16
REMARK    5  A    between atoms: C_16  and  O_17
REMARK    6  A    between atoms: N_23  and  C_24
REMARK    7  A    between atoms: C_24  and  C_25
REMARK                            x       y       z     vdW  Elec       q    Type
REMARK                         _______ _______ _______ _____ _____    ______ ____
ROOT
ATOM      1  O   UNL     1      -3.726  16.485  22.232  0.00  0.00    +0.000 OA
ATOM      2  C   UNL     1      -3.012  15.520  21.961  0.00  0.00    +0.000 C 
ATOM      3  C   UNL     1      -1.671  15.703  21.289  0.00  0.00    +0.000 C 
ATOM      4  C   UNL     1      -0.674  14.605  21.592  0.00  0.00    +0.000 C 
ATOM      5  C   UNL     1      -1.283  13.198  21.402  0.00  0.00    +0.000 C 
ATOM      6  C   UNL     1      -1.740  12.909  19.949  0.00  0.00    +0.000 C 
ATOM      7  C   UNL     1      -0.565  12.741  18.985  0.00  0.00    +0.000 C 
ATOM      8  N   UNL     1       0.390  11.706  19.423  0.00  0.00    +0.000 NA
ATOM      9  C   UNL     1       0.890  12.056  20.769  0.00  0.00    +0.000 C 
ATOM     10  C   UNL     1      -0.230  12.145  21.819  0.00  0.00    +0.000 C 
ATOM     11  C   UNL     1      -2.516  13.122  22.312  0.00  0.00    +0.000 C 
ATOM     12  N   UNL     1      -3.457  14.207  22.029  0.00  0.00    +0.000 N 
ENDROOT
BRANCH   8  13
ATOM     13  C   UNL     1      -0.223  10.361  19.382  0.00  0.00    +0.000 C 
BRANCH  13  14
ATOM     14  C   UNL     1       0.782   9.226  19.314  0.00  0.00    +0.000 A 
ATOM     15  C   UNL     1       1.490   8.947  18.138  0.00  0.00    +0.000 A 
ATOM     16  C   UNL     1       2.357   7.853  18.083  0.00  0.00    +0.000 A 
ATOM     17  C   UNL     1       2.563   7.081  19.219  0.00  0.00    +0.000 A 
ATOM     18  C   UNL     1       1.904   7.378  20.417  0.00  0.00    +0.000 A 
ATOM     19  C   UNL     1       1.007   8.438  20.457  0.00  0.00    +0.000 A 
BRANCH  17  20
ATOM     20  C   UNL     1       3.470   5.997  19.182  0.00  0.00    +0.000 C 
ATOM     21  C   UNL     1       4.220   5.050  19.128  0.00  0.00    +0.000 C 
BRANCH  21  22
ATOM     22  C   UNL     1       5.107   3.903  19.035  0.00  0.00    +0.000 C 
BRANCH  22  23
ATOM     23  O   UNL     1       6.369   4.303  18.518  0.00  0.00    +0.000 OA
ATOM     24  H   UNL     1       6.564   3.712  17.771  0.00  0.00    +0.000 HD
ENDBRANCH  22  23
ENDBRANCH  21  22
ENDBRANCH  17  20
ENDBRANCH  13  14
ENDBRANCH   8  13
BRANCH  12  25
ATOM     25  C   UNL     1      -4.867  13.933  21.743  0.00  0.00    +0.000 C 
BRANCH  25  26
ATOM     26  C   UNL     1      -5.515  12.793  22.542  0.00  0.00    +0.000 C 
ATOM     27  C   UNL     1      -6.474  13.327  23.608  0.00  0.00    +0.000 C 
ATOM     28  C   UNL     1      -7.799  13.354  22.889  0.00  0.00    +0.000 C 
ATOM     29  C   UNL     1      -7.701  12.133  22.008  0.00  0.00    +0.000 C 
ATOM     30  O   UNL     1      -6.322  11.986  21.659  0.00  0.00    +0.000 OA
ENDBRANCH  25  26
ENDBRANCH  12  25
TORSDOF 7
ENDMDL
MODEL 6
REMARK VINA RESULT:      -6.3      0.976      1.003
REMARK  Name = 
REMARK  7 active torsions:
REMARK  status: ('A' for Active; 'I' for Inactive)
REMARK    1  A    between atoms: N_8  and  C_9
REMARK    2  A    between atoms: C_9  and  C_10
REMARK    3  A    between atoms: C_13  and  C_14
REMARK    4  A    between atoms: C_15  and  C_16
REMARK    5  A    between atoms: C_16  and  O_17
REMARK    6  A    between atoms: N_23  and  C_24
REMARK    7  A    between atoms: C_24  and  C_25
REMARK                            x       y       z     vdW  Elec       q    Type
REMARK                         _______ _______ _______ _____ _____    ______ ____
ROOT
ATOM      1  O   UNL     1      -4.123  16.366  21.945  0.00  0.00    +0.000 OA
ATOM      2  C   UNL     1      -3.308  15.476  21.703  0.00  0.00    +0.000 C 
ATOM      3  C   UNL     1      -2.217  15.674  20.677  0.00  0.00    +0.000 C 
ATOM      4  C   UNL     1      -0.977  14.842  20.927  0.00  0.00    +0.000 C 
ATOM      5  C   UNL     1      -1.317  13.360  21.204  0.00  0.00    +0.000 C 
ATOM      6  C   UNL     1      -2.019  12.651  20.017  0.00  0.00    +0.000 C 
ATOM      7  C   UNL     1      -1.081  12.415  18.834  0.00  0.00    +0.000 C 
ATOM      8  N   UNL     1       0.136  11.672  19.209  0.00  0.00    +0.000 NA
ATOM      9  C   UNL     1       0.844  12.418  20.271  0.00  0.00    +0.000 C 
ATOM     10  C   UNL     1      -0.007  12.608  21.537  0.00  0.00    +0.000 C 
ATOM     11  C   UNL     1      -2.274  13.341  22.403  0.00  0.00    +0.000 C 
ATOM     12  N   UNL     1      -3.453  14.173  22.159  0.00  0.00    +0.000 N 
ENDROOT
BRANCH   8  13
ATOM     13  C   UNL     1      -0.186  10.286  19.615  0.00  0.00    +0.000 C 
BRANCH  13  14
ATOM     14  C   UNL     1       0.879   9.271  19.246  0.00  0.00    +0.000 A 
ATOM     15  C   UNL     1       1.453   9.246  17.968  0.00  0.00    +0.000 A 
ATOM     16  C   UNL     1       2.380   8.257  17.633  0.00  0.00    +0.000 A 
ATOM     17  C   UNL     1       2.780   7.336  18.594  0.00  0.00    +0.000 A 
ATOM     18  C   UNL     1       2.256   7.380  19.890  0.00  0.00    +0.000 A 
ATOM     19  C   UNL     1       1.300   8.336  20.207  0.00  0.00    +0.000 A 
BRANCH  17  20
ATOM     20  C   UNL     1       3.749   6.356  18.274  0.00  0.00    +0.000 C 
ATOM     21  C   UNL     1       4.565   5.498  18.031  0.00  0.00    +0.000 C 
BRANCH  21  22
ATOM     22  C   UNL     1       5.527   4.444  17.757  0.00  0.00    +0.000 C 
BRANCH  22  23
ATOM     23  O   UNL     1       5.498   3.476  18.795  0.00  0.00    +0.000 OA
ATOM     24  H   UNL     1       6.258   2.886  18.647  0.00  0.00    +0.000 HD
ENDBRANCH  22  23
ENDBRANCH  21  22
ENDBRANCH  17  20
ENDBRANCH  13  14
ENDBRANCH   8  13
BRANCH  12  25
ATOM     25  C   UNL     1      -4.806  13.637  22.320  0.00  0.00    +0.000 C 
BRANCH  25  26
ATOM     26  C   UNL     1      -5.735  13.755  21.103  0.00  0.00    +0.000 C 
ATOM     27  C   UNL     1      -5.599  12.548  20.172  0.00  0.00    +0.000 C 
ATOM     28  C   UNL     1      -6.660  11.605  20.682  0.00  0.00    +0.000 C 
ATOM     29  C   UNL     1      -7.753  12.559  21.095  0.00  0.00    +0.000 C 
ATOM     30  O   UNL     1      -7.108  13.755  21.545  0.00  0.00    +0.000 OA
ENDBRANCH  25  26
ENDBRANCH  12  25
TORSDOF 7
ENDMDL
MODEL 7
REMARK VINA RESULT:      -6.2      1.222      1.592
REMARK  Name = 
REMARK  7 active torsions:
REMARK  status: ('A' for Active; 'I' for Inactive)
REMARK    1  A    between atoms: N_8  and  C_9
REMARK    2  A    between atoms: C_9  and  C_10
REMARK    3  A    between atoms: C_13  and  C_14
REMARK    4  A    between atoms: C_15  and  C_16
REMARK    5  A    between atoms: C_16  and  O_17
REMARK    6  A    between atoms: N_23  and  C_24
REMARK    7  A    between atoms: C_24  and  C_25
REMARK                            x       y       z     vdW  Elec       q    Type
REMARK                         _______ _______ _______ _____ _____    ______ ____
ROOT
ATOM      1  O   UNL     1      -3.674  17.008  21.394  0.00  0.00    +0.000 OA
ATOM      2  C   UNL     1      -2.924  16.041  21.265  0.00  0.00    +0.000 C 
ATOM      3  C   UNL     1      -1.714  16.104  20.364  0.00  0.00    +0.000 C 
ATOM      4  C   UNL     1      -0.592  15.173  20.771  0.00  0.00    +0.000 C 
ATOM      5  C   UNL     1      -1.096  13.738  21.043  0.00  0.00    +0.000 C 
ATOM      6  C   UNL     1      -1.728  13.056  19.803  0.00  0.00    +0.000 C 
ATOM      7  C   UNL     1      -0.692  12.695  18.738  0.00  0.00    +0.000 C 
ATOM      8  N   UNL     1       0.402  11.859  19.264  0.00  0.00    +0.000 NA
ATOM      9  C   UNL     1       1.055  12.574  20.381  0.00  0.00    +0.000 C 
ATOM     10  C   UNL     1       0.093  12.883  21.539  0.00  0.00    +0.000 C 
ATOM     11  C   UNL     1      -2.177  13.846  22.128  0.00  0.00    +0.000 C 
ATOM     12  N   UNL     1      -3.239  14.772  21.734  0.00  0.00    +0.000 N 
ENDROOT
BRANCH   8  13
ATOM     13  C   UNL     1      -0.091  10.523  19.664  0.00  0.00    +0.000 C 
BRANCH  13  14
ATOM     14  C   UNL     1       0.864   9.390  19.339  0.00  0.00    +0.000 A 
ATOM     15  C   UNL     1       1.224   8.437  20.301  0.00  0.00    +0.000 A 
ATOM     16  C   UNL     1       2.159   7.446  19.995  0.00  0.00    +0.000 A 
ATOM     17  C   UNL     1       2.683   7.370  18.711  0.00  0.00    +0.000 A 
ATOM     18  C   UNL     1       2.295   8.280  17.723  0.00  0.00    +0.000 A 
ATOM     19  C   UNL     1       1.399   9.293  18.042  0.00  0.00    +0.000 A 
BRANCH  17  20
ATOM     20  C   UNL     1       3.600   6.344  18.382  0.00  0.00    +0.000 C 
ATOM     21  C   UNL     1       4.379   5.477  18.063  0.00  0.00    +0.000 C 
BRANCH  21  22
ATOM     22  C   UNL     1       5.320   4.450  17.650  0.00  0.00    +0.000 C 
BRANCH  22  23
ATOM     23  O   UNL     1       5.644   3.615  18.754  0.00  0.00    +0.000 OA
ATOM     24  H   UNL     1       6.497   3.930  19.100  0.00  0.00    +0.000 HD
ENDBRANCH  22  23
ENDBRANCH  21  22
ENDBRANCH  17  20
ENDBRANCH  13  14
ENDBRANCH   8  13
BRANCH  12  25
ATOM     25  C   UNL     1      -4.646  14.366  21.755  0.00  0.00    +0.000 C 
BRANCH  25  26
ATOM     26  C   UNL     1      -5.235  13.880  20.423  0.00  0.00    +0.000 C 
ATOM     27  C   UNL     1      -5.356  12.356  20.382  0.00  0.00    +0.000 C 
ATOM     28  C   UNL     1      -6.753  12.113  20.898  0.00  0.00    +0.000 C 
ATOM     29  C   UNL     1      -7.504  13.293  20.332  0.00  0.00    +0.000 C 
ATOM     30  O   UNL     1      -6.580  14.384  20.281  0.00  0.00    +0.000 OA
ENDBRANCH  25  26
ENDBRANCH  12  25
TORSDOF 7
ENDMDL
MODEL 8
REMARK VINA RESULT:      -6.2      1.003      1.399
REMARK  Name = 
REMARK  7 active torsions:
REMARK  status: ('A' for Active; 'I' for Inactive)
REMARK    1  A    between atoms: N_8  and  C_9
REMARK    2  A    between atoms: C_9  and  C_10
REMARK    3  A    between atoms: C_13  and  C_14
REMARK    4  A    between atoms: C_15  and  C_16
REMARK    5  A    between atoms: C_16  and  O_17
REMARK    6  A    between atoms: N_23  and  C_24
REMARK    7  A    between atoms: C_24  and  C_25
REMARK                            x       y       z     vdW  Elec       q    Type
REMARK                         _______ _______ _______ _____ _____    ______ ____
ROOT
ATOM      1  O   UNL     1      -3.919  15.755  22.898  0.00  0.00    +0.000 OA
ATOM      2  C   UNL     1      -3.171  14.866  22.493  0.00  0.00    +0.000 C 
ATOM      3  C   UNL     1      -1.670  15.035  22.517  0.00  0.00    +0.000 C 
ATOM      4  C   UNL     1      -0.904  13.733  22.619  0.00  0.00    +0.000 C 
ATOM      5  C   UNL     1      -1.401  12.684  21.599  0.00  0.00    +0.000 C 
ATOM      6  C   UNL     1      -1.220  13.119  20.122  0.00  0.00    +0.000 C 
ATOM      7  C   UNL     1       0.246  13.130  19.687  0.00  0.00    +0.000 C 
ATOM      8  N   UNL     1       0.918  11.837  19.913  0.00  0.00    +0.000 NA
ATOM      9  C   UNL     1       0.821  11.492  21.347  0.00  0.00    +0.000 C 
ATOM     10  C   UNL     1      -0.631  11.364  21.834  0.00  0.00    +0.000 C 
ATOM     11  C   UNL     1      -2.902  12.491  21.856  0.00  0.00    +0.000 C 
ATOM     12  N   UNL     1      -3.625  13.761  21.784  0.00  0.00    +0.000 N 
ENDROOT
BRANCH   8  13
ATOM     13  C   UNL     1       0.357  10.783  19.040  0.00  0.00    +0.000 C 
BRANCH  13  14
ATOM     14  C   UNL     1       1.146   9.487  19.052  0.00  0.00    +0.000 A 
ATOM     15  C   UNL     1       1.146   8.641  20.169  0.00  0.00    +0.000 A 
ATOM     16  C   UNL     1       1.937   7.490  20.179  0.00  0.00    +0.000 A 
ATOM     17  C   UNL     1       2.675   7.153  19.051  0.00  0.00    +0.000 A 
ATOM     18  C   UNL     1       2.645   7.959  17.909  0.00  0.00    +0.000 A 
ATOM     19  C   UNL     1       1.894   9.128  17.917  0.00  0.00    +0.000 A 
BRANCH  17  20
ATOM     20  C   UNL     1       3.446   5.968  19.040  0.00  0.00    +0.000 C 
ATOM     21  C   UNL     1       4.111   4.959  18.991  0.00  0.00    +0.000 C 
BRANCH  21  22
ATOM     22  C   UNL     1       4.925   3.759  18.905  0.00  0.00    +0.000 C 
BRANCH  22  23
ATOM     23  O   UNL     1       6.257   4.098  18.547  0.00  0.00    +0.000 OA
ATOM     24  H   UNL     1       6.836   3.697  19.218  0.00  0.00    +0.000 HD
ENDBRANCH  22  23
ENDBRANCH  21  22
ENDBRANCH  17  20
ENDBRANCH  13  14
ENDBRANCH   8  13
BRANCH  12  25
ATOM     25  C   UNL     1      -4.793  13.921  20.916  0.00  0.00    +0.000 C 
BRANCH  25  26
ATOM     26  C   UNL     1      -5.459  12.627  20.426  0.00  0.00    +0.000 C 
ATOM     27  C   UNL     1      -6.624  12.216  21.328  0.00  0.00    +0.000 C 
ATOM     28  C   UNL     1      -7.810  12.879  20.672  0.00  0.00    +0.000 C 
ATOM     29  C   UNL     1      -7.459  12.771  19.209  0.00  0.00    +0.000 C 
ATOM     30  O   UNL     1      -6.033  12.849  19.120  0.00  0.00    +0.000 OA
ENDBRANCH  25  26
ENDBRANCH  12  25
TORSDOF 7
ENDMDL
MODEL 9
REMARK VINA RESULT:      -6.0      4.022      6.176
REMARK  Name = 
REMARK  7 active torsions:
REMARK  status: ('A' for Active; 'I' for Inactive)
REMARK    1  A    between atoms: N_8  and  C_9
REMARK    2  A    between atoms: C_9  and  C_10
REMARK    3  A    between atoms: C_13  and  C_14
REMARK    4  A    between atoms: C_15  and  C_16
REMARK    5  A    between atoms: C_16  and  O_17
REMARK    6  A    between atoms: N_23  and  C_24
REMARK    7  A    between atoms: C_24  and  C_25
REMARK                            x       y       z     vdW  Elec       q    Type
REMARK                         _______ _______ _______ _____ _____    ______ ____
ROOT
ATOM      1  O   UNL     1       0.830  16.748  19.150  0.00  0.00    +0.000 OA
ATOM      2  C   UNL     1       0.912  15.520  19.177  0.00  0.00    +0.000 C 
ATOM      3  C   UNL     1      -0.313  14.651  19.009  0.00  0.00    +0.000 C 
ATOM      4  C   UNL     1      -0.022  13.281  18.433  0.00  0.00    +0.000 C 
ATOM      5  C   UNL     1       1.149  12.582  19.159  0.00  0.00    +0.000 C 
ATOM      6  C   UNL     1       0.878  12.315  20.662  0.00  0.00    +0.000 C 
ATOM      7  C   UNL     1      -0.167  11.222  20.887  0.00  0.00    +0.000 C 
ATOM      8  N   UNL     1       0.173   9.958  20.209  0.00  0.00    +0.000 NA
ATOM      9  C   UNL     1       0.326  10.217  18.762  0.00  0.00    +0.000 C 
ATOM     10  C   UNL     1       1.434  11.237  18.451  0.00  0.00    +0.000 C 
ATOM     11  C   UNL     1       2.360  13.519  19.053  0.00  0.00    +0.000 C 
ATOM     12  N   UNL     1       2.055  14.848  19.586  0.00  0.00    +0.000 N 
ENDROOT
BRANCH   8  13
ATOM     13  C   UNL     1       1.381   9.341  20.801  0.00  0.00    +0.000 C 
BRANCH  13  14
ATOM     14  C   UNL     1       1.679   7.947  20.283  0.00  0.00    +0.000 A 
ATOM     15  C   UNL     1       1.314   6.804  21.006  0.00  0.00    +0.000 A 
ATOM     16  C   UNL     1       1.663   5.535  20.539  0.00  0.00    +0.000 A 
ATOM     17  C   UNL     1       2.319   5.408  19.321  0.00  0.00    +0.000 A 
ATOM     18  C   UNL     1       2.645   6.536  18.561  0.00  0.00    +0.000 A 
ATOM     19  C   UNL     1       2.337   7.799  19.049  0.00  0.00    +0.000 A 
BRANCH  17  20
ATOM     20  C   UNL     1       2.641   4.124  18.823  0.00  0.00    +0.000 C 
ATOM     21  C   UNL     1       2.877   3.019  18.391  0.00  0.00    +0.000 C 
BRANCH  21  22
ATOM     22  C   UNL     1       3.133   1.693  17.856  0.00  0.00    +0.000 C 
BRANCH  22  23
ATOM     23  O   UNL     1       4.198   1.078  18.567  0.00  0.00    +0.000 OA
ATOM     24  H   UNL     1       4.438   1.685  19.289  0.00  0.00    +0.000 HD
ENDBRANCH  22  23
ENDBRANCH  21  22
ENDBRANCH  17  20
ENDBRANCH  13  14
ENDBRANCH   8  13
BRANCH  12  25
ATOM     25  C   UNL     1       2.902  15.468  20.606  0.00  0.00    +0.000 C 
BRANCH  25  26
ATOM     26  C   UNL     1       3.974  14.569  21.240  0.00  0.00    +0.000 C 
ATOM     27  C   UNL     1       5.370  15.182  21.116  0.00  0.00    +0.000 C 
ATOM     28  C   UNL     1       5.510  15.969  22.395  0.00  0.00    +0.000 C 
ATOM     29  C   UNL     1       4.774  15.096  23.381  0.00  0.00    +0.000 C 
ATOM     30  O   UNL     1       3.723  14.451  22.657  0.00  0.00    +0.000 OA
ENDBRANCH  25  26
ENDBRANCH  12  25
TORSDOF 7
ENDMDL
