MODEL 1
REMARK VINA RESULT:      -8.3      0.000      0.000
REMARK  Name = 
REMARK  6 active torsions:
REMARK  status: ('A' for Active; 'I' for Inactive)
REMARK    1  A    between atoms: C_1  and  C_2
REMARK    2  A    between atoms: C_5  and  S_6
REMARK    3  A    between atoms: S_6  and  C_7
REMARK    4  A    between atoms: C_7  and  C_8
REMARK    5  A    between atoms: C_11  and  C_12
REMARK    6  A    between atoms: N_20  and  C_21
REMARK                            x       y       z     vdW  Elec       q    Type
REMARK                         _______ _______ _______ _____ _____    ______ ____
ROOT
ATOM      1  S   UNL     1       6.483   5.345  19.532  0.00  0.00    +0.000 S 
ENDROOT
BRANCH   1   6
ATOM      2  C   UNL     1       2.779   2.659  16.792  0.00  0.00    +0.000 C 
ATOM      3  C   UNL     1       4.014   3.408  17.201  0.00  0.00    +0.000 A 
ATOM      4  N   UNL     1       4.989   3.732  16.374  0.00  0.00    +0.000 NA
ATOM      5  N   UNL     1       5.893   4.496  17.081  0.00  0.00    +0.000 NA
ATOM      6  C   UNL     1       5.484   4.641  18.286  0.00  0.00    +0.000 A 
ATOM      7  N   UNL     1       4.253   3.961  18.454  0.00  0.00    +0.000 N 
BRANCH   7   8
ATOM      8  C   UNL     1       3.360   3.905  19.545  0.00  0.00    +0.000 A 
ATOM      9  C   UNL     1       3.360   2.749  20.351  0.00  0.00    +0.000 A 
ATOM     10  C   UNL     1       2.354   2.525  21.282  0.00  0.00    +0.000 A 
ATOM     11  C   UNL     1       1.385   3.495  21.457  0.00  0.00    +0.000 A 
ATOM     12  C   UNL     1       1.413   4.670  20.725  0.00  0.00    +0.000 A 
ATOM     13  C   UNL     1       2.373   4.876  19.747  0.00  0.00    +0.000 A 
ATOM     14 CL   UNL     1       2.059   6.251  18.763  0.00  0.00    +0.000 Cl
ENDBRANCH   7   8
ENDBRANCH   1   6
BRANCH   1  15
ATOM     15  C   UNL     1       7.981   5.958  18.706  0.00  0.00    +0.000 C 
BRANCH  15  16
ATOM     16  C   UNL     1       8.044   7.329  18.139  0.00  0.00    +0.000 A 
ATOM     17  N   UNL     1       7.286   7.917  17.225  0.00  0.00    +0.000 NA
ATOM     18  N   UNL     1       7.568   9.270  17.294  0.00  0.00    +0.000 NA
ATOM     19  C   UNL     1       8.463   9.426  18.248  0.00  0.00    +0.000 A 
ATOM     20  O   UNL     1       8.806   8.235  18.836  0.00  0.00    +0.000 OA
BRANCH  19  21
ATOM     21  C   UNL     1       9.078  10.627  18.797  0.00  0.00    +0.000 A 
ATOM     22  C   UNL     1       9.125  11.815  18.049  0.00  0.00    +0.000 A 
ATOM     23  C   UNL     1       9.678  12.983  18.592  0.00  0.00    +0.000 A 
ATOM     24  C   UNL     1      10.197  12.969  19.885  0.00  0.00    +0.000 A 
ATOM     25 CL   UNL     1      10.863  14.405  20.559  0.00  0.00    +0.000 Cl
ATOM     26  C   UNL     1      10.171  11.799  20.640  0.00  0.00    +0.000 A 
ATOM     27  C   UNL     1       9.611  10.636  20.097  0.00  0.00    +0.000 A 
ENDBRANCH  19  21
ENDBRANCH  15  16
ENDBRANCH   1  15
TORSDOF 5
ENDMDL
MODEL 2
REMARK VINA RESULT:      -8.1      1.662      2.377
REMARK  Name = 
REMARK  6 active torsions:
REMARK  status: ('A' for Active; 'I' for Inactive)
REMARK    1  A    between atoms: C_1  and  C_2
REMARK    2  A    between atoms: C_5  and  S_6
REMARK    3  A    between atoms: S_6  and  C_7
REMARK    4  A    between atoms: C_7  and  C_8
REMARK    5  A    between atoms: C_11  and  C_12
REMARK    6  A    between atoms: N_20  and  C_21
REMARK                            x       y       z     vdW  Elec       q    Type
REMARK                         _______ _______ _______ _____ _____    ______ ____
ROOT
ATOM      1  S   UNL     1       7.784   4.513  18.223  0.00  0.00    +0.000 S 
ENDROOT
BRANCH   1   6
ATOM      2  C   UNL     1       4.691   4.306  13.883  0.00  0.00    +0.000 C 
ATOM      3  C   UNL     1       5.856   4.421  14.823  0.00  0.00    +0.000 A 
ATOM      4  N   UNL     1       7.092   4.679  14.441  0.00  0.00    +0.000 NA
ATOM      5  N   UNL     1       7.857   4.811  15.580  0.00  0.00    +0.000 NA
ATOM      6  C   UNL     1       7.119   4.652  16.615  0.00  0.00    +0.000 A 
ATOM      7  N   UNL     1       5.785   4.395  16.211  0.00  0.00    +0.000 N 
BRANCH   7   8
ATOM      8  C   UNL     1       4.596   4.255  16.957  0.00  0.00    +0.000 A 
ATOM      9  C   UNL     1       4.053   2.964  17.115  0.00  0.00    +0.000 A 
ATOM     10  C   UNL     1       2.773   2.784  17.623  0.00  0.00    +0.000 A 
ATOM     11  C   UNL     1       2.062   3.893  18.041  0.00  0.00    +0.000 A 
ATOM     12  C   UNL     1       2.612   5.162  17.961  0.00  0.00    +0.000 A 
ATOM     13  C   UNL     1       3.860   5.362  17.396  0.00  0.00    +0.000 A 
ATOM     14 CL   UNL     1       4.229   7.020  17.126  0.00  0.00    +0.000 Cl
ENDBRANCH   7   8
ENDBRANCH   1   6
BRANCH   1  15
ATOM     15  C   UNL     1       7.576   6.139  19.008  0.00  0.00    +0.000 C 
BRANCH  15  16
ATOM     16  C   UNL     1       7.925   7.392  18.291  0.00  0.00    +0.000 A 
ATOM     17  N   UNL     1       7.447   7.900  17.164  0.00  0.00    +0.000 NA
ATOM     18  N   UNL     1       7.878   9.213  17.112  0.00  0.00    +0.000 NA
ATOM     19  C   UNL     1       8.574   9.430  18.209  0.00  0.00    +0.000 A 
ATOM     20  O   UNL     1       8.639   8.319  19.010  0.00  0.00    +0.000 OA
BRANCH  19  21
ATOM     21  C   UNL     1       9.213  10.639  18.714  0.00  0.00    +0.000 A 
ATOM     22  C   UNL     1       9.864  10.639  19.958  0.00  0.00    +0.000 A 
ATOM     23  C   UNL     1      10.517  11.789  20.426  0.00  0.00    +0.000 A 
ATOM     24  C   UNL     1      10.513  12.950  19.655  0.00  0.00    +0.000 A 
ATOM     25 CL   UNL     1      11.325  14.358  20.220  0.00  0.00    +0.000 Cl
ATOM     26  C   UNL     1       9.863  12.974  18.424  0.00  0.00    +0.000 A 
ATOM     27  C   UNL     1       9.220  11.822  17.957  0.00  0.00    +0.000 A 
ENDBRANCH  19  21
ENDBRANCH  15  16
ENDBRANCH   1  15
TORSDOF 5
ENDMDL
MODEL 3
REMARK VINA RESULT:      -7.8      6.105      8.833
REMARK  Name = 
REMARK  6 active torsions:
REMARK  status: ('A' for Active; 'I' for Inactive)
REMARK    1  A    between atoms: C_1  and  C_2
REMARK    2  A    between atoms: C_5  and  S_6
REMARK    3  A    between atoms: S_6  and  C_7
REMARK    4  A    between atoms: C_7  and  C_8
REMARK    5  A    between atoms: C_11  and  C_12
REMARK    6  A    between atoms: N_20  and  C_21
REMARK                            x       y       z     vdW  Elec       q    Type
REMARK                         _______ _______ _______ _____ _____    ______ ____
ROOT
ATOM      1  S   UNL     1      -0.271   8.812  21.323  0.00  0.00    +0.000 S 
ENDROOT
BRANCH   1   6
ATOM      2  C   UNL     1      -0.405  13.890  19.699  0.00  0.00    +0.000 C 
ATOM      3  C   UNL     1      -0.164  12.626  20.473  0.00  0.00    +0.000 A 
ATOM      4  N   UNL     1       0.420  12.583  21.654  0.00  0.00    +0.000 NA
ATOM      5  N   UNL     1       0.369  11.277  22.093  0.00  0.00    +0.000 NA
ATOM      6  C   UNL     1      -0.230  10.554  21.222  0.00  0.00    +0.000 A 
ATOM      7  N   UNL     1      -0.620  11.360  20.123  0.00  0.00    +0.000 N 
BRANCH   7   8
ATOM      8  C   UNL     1      -1.386  11.065  18.976  0.00  0.00    +0.000 A 
ATOM      9  C   UNL     1      -2.737  11.466  18.953  0.00  0.00    +0.000 A 
ATOM     10  C   UNL     1      -3.604  11.001  17.972  0.00  0.00    +0.000 A 
ATOM     11  C   UNL     1      -3.102  10.192  16.971  0.00  0.00    +0.000 A 
ATOM     12  C   UNL     1      -1.760   9.849  16.939  0.00  0.00    +0.000 A 
ATOM     13  C   UNL     1      -0.899  10.251  17.947  0.00  0.00    +0.000 A 
ATOM     14 CL   UNL     1       0.638   9.485  17.876  0.00  0.00    +0.000 Cl
ENDBRANCH   7   8
ENDBRANCH   1   6
BRANCH   1  15
ATOM     15  C   UNL     1       1.459   8.256  21.330  0.00  0.00    +0.000 C 
BRANCH  15  16
ATOM     16  C   UNL     1       1.864   6.985  20.677  0.00  0.00    +0.000 A 
ATOM     17  N   UNL     1       1.302   5.785  20.709  0.00  0.00    +0.000 NA
ATOM     18  N   UNL     1       1.890   5.050  19.694  0.00  0.00    +0.000 NA
ATOM     19  C   UNL     1       2.757   5.845  19.101  0.00  0.00    +0.000 A 
ATOM     20  O   UNL     1       2.788   7.093  19.667  0.00  0.00    +0.000 OA
BRANCH  19  21
ATOM     21  C   UNL     1       3.614   5.631  17.941  0.00  0.00    +0.000 A 
ATOM     22  C   UNL     1       4.276   6.708  17.331  0.00  0.00    +0.000 A 
ATOM     23  C   UNL     1       5.134   6.498  16.242  0.00  0.00    +0.000 A 
ATOM     24  C   UNL     1       5.328   5.209  15.751  0.00  0.00    +0.000 A 
ATOM     25 CL   UNL     1       6.392   4.947  14.424  0.00  0.00    +0.000 Cl
ATOM     26  C   UNL     1       4.672   4.128  16.334  0.00  0.00    +0.000 A 
ATOM     27  C   UNL     1       3.822   4.341  17.426  0.00  0.00    +0.000 A 
ENDBRANCH  19  21
ENDBRANCH  15  16
ENDBRANCH   1  15
TORSDOF 5
ENDMDL
MODEL 4
REMARK VINA RESULT:      -7.7      5.455      7.774
REMARK  Name = 
REMARK  6 active torsions:
REMARK  status: ('A' for Active; 'I' for Inactive)
REMARK    1  A    between atoms: C_1  and  C_2
REMARK    2  A    between atoms: C_5  and  S_6
REMARK    3  A    between atoms: S_6  and  C_7
REMARK    4  A    between atoms: C_7  and  C_8
REMARK    5  A    between atoms: C_11  and  C_12
REMARK    6  A    between atoms: N_20  and  C_21
REMARK                            x       y       z     vdW  Elec       q    Type
REMARK                         _______ _______ _______ _____ _____    ______ ____
ROOT
ATOM      1  S   UNL     1       3.208   7.621  17.891  0.00  0.00    +0.000 S 
ENDROOT
BRANCH   1   6
ATOM      2  C   UNL     1       3.331   2.294  17.653  0.00  0.00    +0.000 C 
ATOM      3  C   UNL     1       2.892   3.729  17.689  0.00  0.00    +0.000 A 
ATOM      4  N   UNL     1       1.631   4.117  17.681  0.00  0.00    +0.000 NA
ATOM      5  N   UNL     1       1.619   5.488  17.828  0.00  0.00    +0.000 NA
ATOM      6  C   UNL     1       2.821   5.919  17.932  0.00  0.00    +0.000 A 
ATOM      7  N   UNL     1       3.724   4.831  17.855  0.00  0.00    +0.000 N 
BRANCH   7   8
ATOM      8  C   UNL     1       5.124   4.768  18.017  0.00  0.00    +0.000 A 
ATOM      9  C   UNL     1       5.674   5.176  19.249  0.00  0.00    +0.000 A 
ATOM     10  C   UNL     1       7.042   5.369  19.393  0.00  0.00    +0.000 A 
ATOM     11  C   UNL     1       7.869   5.082  18.323  0.00  0.00    +0.000 A 
ATOM     12  C   UNL     1       7.350   4.609  17.129  0.00  0.00    +0.000 A 
ATOM     13  C   UNL     1       5.983   4.476  16.951  0.00  0.00    +0.000 A 
ATOM     14 CL   UNL     1       5.535   4.159  15.322  0.00  0.00    +0.000 Cl
ENDBRANCH   7   8
ENDBRANCH   1   6
BRANCH   1  15
ATOM     15  C   UNL     1       1.623   8.508  17.839  0.00  0.00    +0.000 C 
BRANCH  15  16
ATOM     16  C   UNL     1       1.431   9.789  18.565  0.00  0.00    +0.000 A 
ATOM     17  N   UNL     1       1.784  11.024  18.238  0.00  0.00    +0.000 NA
ATOM     18  N   UNL     1       1.099  11.867  19.095  0.00  0.00    +0.000 NA
ATOM     19  C   UNL     1       0.364  11.102  19.876  0.00  0.00    +0.000 A 
ATOM     20  O   UNL     1       0.518   9.770  19.591  0.00  0.00    +0.000 OA
BRANCH  19  21
ATOM     21  C   UNL     1      -0.596  11.441  20.919  0.00  0.00    +0.000 A 
ATOM     22  C   UNL     1      -1.652  12.330  20.660  0.00  0.00    +0.000 A 
ATOM     23  C   UNL     1      -2.602  12.623  21.649  0.00  0.00    +0.000 A 
ATOM     24  C   UNL     1      -2.495  12.037  22.907  0.00  0.00    +0.000 A 
ATOM     25 CL   UNL     1      -3.667  12.384  24.119  0.00  0.00    +0.000 Cl
ATOM     26  C   UNL     1      -1.449  11.162  23.190  0.00  0.00    +0.000 A 
ATOM     27  C   UNL     1      -0.508  10.865  22.197  0.00  0.00    +0.000 A 
ENDBRANCH  19  21
ENDBRANCH  15  16
ENDBRANCH   1  15
TORSDOF 5
ENDMDL
MODEL 5
REMARK VINA RESULT:      -7.7      5.596      8.084
REMARK  Name = 
REMARK  6 active torsions:
REMARK  status: ('A' for Active; 'I' for Inactive)
REMARK    1  A    between atoms: C_1  and  C_2
REMARK    2  A    between atoms: C_5  and  S_6
REMARK    3  A    between atoms: S_6  and  C_7
REMARK    4  A    between atoms: C_7  and  C_8
REMARK    5  A    between atoms: C_11  and  C_12
REMARK    6  A    between atoms: N_20  and  C_21
REMARK                            x       y       z     vdW  Elec       q    Type
REMARK                         _______ _______ _______ _____ _____    ______ ____
ROOT
ATOM      1  S   UNL     1       3.189   7.894  17.769  0.00  0.00    +0.000 S 
ENDROOT
BRANCH   1   6
ATOM      2  C   UNL     1       4.101   2.995  19.669  0.00  0.00    +0.000 C 
ATOM      3  C   UNL     1       3.566   4.378  19.436  0.00  0.00    +0.000 A 
ATOM      4  N   UNL     1       2.652   4.954  20.193  0.00  0.00    +0.000 NA
ATOM      5  N   UNL     1       2.493   6.245  19.738  0.00  0.00    +0.000 NA
ATOM      6  C   UNL     1       3.283   6.454  18.751  0.00  0.00    +0.000 A 
ATOM      7  N   UNL     1       4.031   5.280  18.486  0.00  0.00    +0.000 N 
BRANCH   7   8
ATOM      8  C   UNL     1       5.088   5.032  17.585  0.00  0.00    +0.000 A 
ATOM      9  C   UNL     1       4.775   4.507  16.315  0.00  0.00    +0.000 A 
ATOM     10  C   UNL     1       5.770   4.017  15.478  0.00  0.00    +0.000 A 
ATOM     11  C   UNL     1       7.087   4.118  15.884  0.00  0.00    +0.000 A 
ATOM     12  C   UNL     1       7.416   4.698  17.098  0.00  0.00    +0.000 A 
ATOM     13  C   UNL     1       6.429   5.131  17.969  0.00  0.00    +0.000 A 
ATOM     14 CL   UNL     1       7.030   5.544  19.527  0.00  0.00    +0.000 Cl
ENDBRANCH   7   8
ENDBRANCH   1   6
BRANCH   1  15
ATOM     15  C   UNL     1       1.522   8.575  18.012  0.00  0.00    +0.000 C 
BRANCH  15  16
ATOM     16  C   UNL     1       1.307   9.844  18.752  0.00  0.00    +0.000 A 
ATOM     17  N   UNL     1       1.685  11.081  18.466  0.00  0.00    +0.000 NA
ATOM     18  N   UNL     1       0.968  11.915  19.305  0.00  0.00    +0.000 NA
ATOM     19  C   UNL     1       0.190  11.142  20.037  0.00  0.00    +0.000 A 
ATOM     20  O   UNL     1       0.346   9.814  19.734  0.00  0.00    +0.000 OA
BRANCH  19  21
ATOM     21  C   UNL     1      -0.816  11.470  21.039  0.00  0.00    +0.000 A 
ATOM     22  C   UNL     1      -0.716  10.967  22.346  0.00  0.00    +0.000 A 
ATOM     23  C   UNL     1      -1.660  11.316  23.323  0.00  0.00    +0.000 A 
ATOM     24  C   UNL     1      -2.714  12.165  22.996  0.00  0.00    +0.000 A 
ATOM     25 CL   UNL     1      -3.865  12.607  24.197  0.00  0.00    +0.000 Cl
ATOM     26  C   UNL     1      -2.838  12.666  21.703  0.00  0.00    +0.000 A 
ATOM     27  C   UNL     1      -1.890  12.322  20.732  0.00  0.00    +0.000 A 
ENDBRANCH  19  21
ENDBRANCH  15  16
ENDBRANCH   1  15
TORSDOF 5
ENDMDL
MODEL 6
REMARK VINA RESULT:      -7.6      2.175      2.939
REMARK  Name = 
REMARK  6 active torsions:
REMARK  status: ('A' for Active; 'I' for Inactive)
REMARK    1  A    between atoms: C_1  and  C_2
REMARK    2  A    between atoms: C_5  and  S_6
REMARK    3  A    between atoms: S_6  and  C_7
REMARK    4  A    between atoms: C_7  and  C_8
REMARK    5  A    between atoms: C_11  and  C_12
REMARK    6  A    between atoms: N_20  and  C_21
REMARK                            x       y       z     vdW  Elec       q    Type
REMARK                         _______ _______ _______ _____ _____    ______ ____
ROOT
ATOM      1  S   UNL     1       7.842   7.001  18.204  0.00  0.00    +0.000 S 
ENDROOT
BRANCH   1   6
ATOM      2  C   UNL     1       4.782   3.576  15.494  0.00  0.00    +0.000 C 
ATOM      3  C   UNL     1       5.856   4.541  15.905  0.00  0.00    +0.000 A 
ATOM      4  N   UNL     1       6.813   4.966  15.104  0.00  0.00    +0.000 NA
ATOM      5  N   UNL     1       7.541   5.911  15.796  0.00  0.00    +0.000 NA
ATOM      6  C   UNL     1       7.043   6.065  16.966  0.00  0.00    +0.000 A 
ATOM      7  N   UNL     1       5.928   5.205  17.124  0.00  0.00    +0.000 N 
BRANCH   7   8
ATOM      8  C   UNL     1       4.993   5.074  18.172  0.00  0.00    +0.000 A 
ATOM      9  C   UNL     1       4.983   3.876  18.914  0.00  0.00    +0.000 A 
ATOM     10  C   UNL     1       3.944   3.585  19.789  0.00  0.00    +0.000 A 
ATOM     11  C   UNL     1       2.950   4.527  19.976  0.00  0.00    +0.000 A 
ATOM     12  C   UNL     1       2.985   5.741  19.310  0.00  0.00    +0.000 A 
ATOM     13  C   UNL     1       3.980   6.015  18.385  0.00  0.00    +0.000 A 
ATOM     14 CL   UNL     1       3.680   7.437  17.465  0.00  0.00    +0.000 Cl
ENDBRANCH   7   8
ENDBRANCH   1   6
BRANCH   1  15
ATOM     15  C   UNL     1       7.783   8.733  17.658  0.00  0.00    +0.000 C 
BRANCH  15  16
ATOM     16  C   UNL     1       8.503   9.801  18.397  0.00  0.00    +0.000 A 
ATOM     17  N   UNL     1       9.338   9.723  19.424  0.00  0.00    +0.000 NA
ATOM     18  N   UNL     1       9.957  10.956  19.520  0.00  0.00    +0.000 NA
ATOM     19  C   UNL     1       9.478  11.701  18.544  0.00  0.00    +0.000 A 
ATOM     20  O   UNL     1       8.555  11.029  17.785  0.00  0.00    +0.000 OA
BRANCH  19  21
ATOM     21  C   UNL     1       9.806  13.058  18.126  0.00  0.00    +0.000 A 
ATOM     22  C   UNL     1       8.917  14.117  18.365  0.00  0.00    +0.000 A 
ATOM     23  C   UNL     1       9.250  15.430  18.002  0.00  0.00    +0.000 A 
ATOM     24  C   UNL     1      10.473  15.690  17.387  0.00  0.00    +0.000 A 
ATOM     25 CL   UNL     1      10.891  17.302  16.953  0.00  0.00    +0.000 Cl
ATOM     26  C   UNL     1      11.365  14.652  17.130  0.00  0.00    +0.000 A 
ATOM     27  C   UNL     1      11.032  13.344  17.502  0.00  0.00    +0.000 A 
ENDBRANCH  19  21
ENDBRANCH  15  16
ENDBRANCH   1  15
TORSDOF 5
ENDMDL
MODEL 7
REMARK VINA RESULT:      -7.6      5.774      8.764
REMARK  Name = 
REMARK  6 active torsions:
REMARK  status: ('A' for Active; 'I' for Inactive)
REMARK    1  A    between atoms: C_1  and  C_2
REMARK    2  A    between atoms: C_5  and  S_6
REMARK    3  A    between atoms: S_6  and  C_7
REMARK    4  A    between atoms: C_7  and  C_8
REMARK    5  A    between atoms: C_11  and  C_12
REMARK    6  A    between atoms: N_20  and  C_21
REMARK                            x       y       z     vdW  Elec       q    Type
REMARK                         _______ _______ _______ _____ _____    ______ ____
ROOT
ATOM      1  S   UNL     1       2.608   7.381  18.485  0.00  0.00    +0.000 S 
ENDROOT
BRANCH   1   6
ATOM      2  C   UNL     1       4.358   2.480  19.651  0.00  0.00    +0.000 C 
ATOM      3  C   UNL     1       3.621   3.788  19.645  0.00  0.00    +0.000 A 
ATOM      4  N   UNL     1       2.719   4.132  20.544  0.00  0.00    +0.000 NA
ATOM      5  N   UNL     1       2.342   5.431  20.275  0.00  0.00    +0.000 NA
ATOM      6  C   UNL     1       2.993   5.866  19.261  0.00  0.00    +0.000 A 
ATOM      7  N   UNL     1       3.861   4.853  18.784  0.00  0.00    +0.000 N 
BRANCH   7   8
ATOM      8  C   UNL     1       4.845   4.868  17.773  0.00  0.00    +0.000 A 
ATOM      9  C   UNL     1       4.486   4.425  16.484  0.00  0.00    +0.000 A 
ATOM     10  C   UNL     1       5.453   4.187  15.515  0.00  0.00    +0.000 A 
ATOM     11  C   UNL     1       6.774   4.460  15.814  0.00  0.00    +0.000 A 
ATOM     12  C   UNL     1       7.134   4.966  17.052  0.00  0.00    +0.000 A 
ATOM     13  C   UNL     1       6.188   5.146  18.048  0.00  0.00    +0.000 A 
ATOM     14 CL   UNL     1       6.876   5.498  19.584  0.00  0.00    +0.000 Cl
ENDBRANCH   7   8
ENDBRANCH   1   6
BRANCH   1  15
ATOM     15  C   UNL     1       1.799   8.413  19.744  0.00  0.00    +0.000 C 
BRANCH  15  16
ATOM     16  C   UNL     1       1.073   9.655  19.374  0.00  0.00    +0.000 A 
ATOM     17  N   UNL     1       1.505  10.758  18.781  0.00  0.00    +0.000 NA
ATOM     18  N   UNL     1       0.378  11.462  18.394  0.00  0.00    +0.000 NA
ATOM     19  C   UNL     1      -0.664  10.743  18.758  0.00  0.00    +0.000 A 
ATOM     20  O   UNL     1      -0.298   9.577  19.380  0.00  0.00    +0.000 OA
BRANCH  19  21
ATOM     21  C   UNL     1      -2.092  10.957  18.559  0.00  0.00    +0.000 A 
ATOM     22  C   UNL     1      -2.782  11.927  19.304  0.00  0.00    +0.000 A 
ATOM     23  C   UNL     1      -4.147  12.164  19.083  0.00  0.00    +0.000 A 
ATOM     24  C   UNL     1      -4.831  11.425  18.121  0.00  0.00    +0.000 A 
ATOM     25 CL   UNL     1      -6.502  11.724  17.837  0.00  0.00    +0.000 Cl
ATOM     26  C   UNL     1      -4.168  10.451  17.379  0.00  0.00    +0.000 A 
ATOM     27  C   UNL     1      -2.805  10.223  17.597  0.00  0.00    +0.000 A 
ENDBRANCH  19  21
ENDBRANCH  15  16
ENDBRANCH   1  15
TORSDOF 5
ENDMDL
MODEL 8
REMARK VINA RESULT:      -7.5      5.868      8.403
REMARK  Name = 
REMARK  6 active torsions:
REMARK  status: ('A' for Active; 'I' for Inactive)
REMARK    1  A    between atoms: C_1  and  C_2
REMARK    2  A    between atoms: C_5  and  S_6
REMARK    3  A    between atoms: S_6  and  C_7
REMARK    4  A    between atoms: C_7  and  C_8
REMARK    5  A    between atoms: C_11  and  C_12
REMARK    6  A    between atoms: N_20  and  C_21
REMARK                            x       y       z     vdW  Elec       q    Type
REMARK                         _______ _______ _______ _____ _____    ______ ____
ROOT
ATOM      1  S   UNL     1       2.572   7.496  18.627  0.00  0.00    +0.000 S 
ENDROOT
BRANCH   1   6
ATOM      2  C   UNL     1       5.418   3.769  16.087  0.00  0.00    +0.000 C 
ATOM      3  C   UNL     1       4.861   5.070  16.588  0.00  0.00    +0.000 A 
ATOM      4  N   UNL     1       5.256   6.255  16.165  0.00  0.00    +0.000 NA
ATOM      5  N   UNL     1       4.453   7.198  16.769  0.00  0.00    +0.000 NA
ATOM      6  C   UNL     1       3.596   6.615  17.522  0.00  0.00    +0.000 A 
ATOM      7  N   UNL     1       3.789   5.212  17.461  0.00  0.00    +0.000 N 
BRANCH   7   8
ATOM      8  C   UNL     1       3.051   4.146  18.016  0.00  0.00    +0.000 A 
ATOM      9  C   UNL     1       1.688   4.026  17.675  0.00  0.00    +0.000 A 
ATOM     10  C   UNL     1       0.852   3.157  18.364  0.00  0.00    +0.000 A 
ATOM     11  C   UNL     1       1.397   2.352  19.347  0.00  0.00    +0.000 A 
ATOM     12  C   UNL     1       2.749   2.405  19.643  0.00  0.00    +0.000 A 
ATOM     13  C   UNL     1       3.580   3.315  19.009  0.00  0.00    +0.000 A 
ATOM     14 CL   UNL     1       5.142   3.420  19.720  0.00  0.00    +0.000 Cl
ENDBRANCH   7   8
ENDBRANCH   1   6
BRANCH   1  15
ATOM     15  C   UNL     1       2.159   9.064  17.806  0.00  0.00    +0.000 C 
BRANCH  15  16
ATOM     16  C   UNL     1       1.216  10.032  18.422  0.00  0.00    +0.000 A 
ATOM     17  N   UNL     1       1.431  11.237  18.930  0.00  0.00    +0.000 NA
ATOM     18  N   UNL     1       0.189  11.828  19.078  0.00  0.00    +0.000 NA
ATOM     19  C   UNL     1      -0.701  10.959  18.641  0.00  0.00    +0.000 A 
ATOM     20  O   UNL     1      -0.119   9.798  18.200  0.00  0.00    +0.000 OA
BRANCH  19  21
ATOM     21  C   UNL     1      -2.148  11.059  18.502  0.00  0.00    +0.000 A 
ATOM     22  C   UNL     1      -2.881  11.978  19.271  0.00  0.00    +0.000 A 
ATOM     23  C   UNL     1      -4.268  12.105  19.108  0.00  0.00    +0.000 A 
ATOM     24  C   UNL     1      -4.932  11.307  18.180  0.00  0.00    +0.000 A 
ATOM     25 CL   UNL     1      -6.632  11.471  17.968  0.00  0.00    +0.000 Cl
ATOM     26  C   UNL     1      -4.227  10.381  17.416  0.00  0.00    +0.000 A 
ATOM     27  C   UNL     1      -2.841  10.262  17.575  0.00  0.00    +0.000 A 
ENDBRANCH  19  21
ENDBRANCH  15  16
ENDBRANCH   1  15
TORSDOF 5
ENDMDL
MODEL 9
REMARK VINA RESULT:      -7.5      5.677      8.052
REMARK  Name = 
REMARK  6 active torsions:
REMARK  status: ('A' for Active; 'I' for Inactive)
REMARK    1  A    between atoms: C_1  and  C_2
REMARK    2  A    between atoms: C_5  and  S_6
REMARK    3  A    between atoms: S_6  and  C_7
REMARK    4  A    between atoms: C_7  and  C_8
REMARK    5  A    between atoms: C_11  and  C_12
REMARK    6  A    between atoms: N_20  and  C_21
REMARK                            x       y       z     vdW  Elec       q    Type
REMARK                         _______ _______ _______ _____ _____    ______ ____
ROOT
ATOM      1  S   UNL     1       2.808   7.181  18.212  0.00  0.00    +0.000 S 
ENDROOT
BRANCH   1   6
ATOM      2  C   UNL     1       3.590   1.908  18.073  0.00  0.00    +0.000 C 
ATOM      3  C   UNL     1       3.048   3.281  18.342  0.00  0.00    +0.000 A 
ATOM      4  N   UNL     1       2.008   3.527  19.115  0.00  0.00    +0.000 NA
ATOM      5  N   UNL     1       1.875   4.896  19.205  0.00  0.00    +0.000 NA
ATOM      6  C   UNL     1       2.800   5.464  18.525  0.00  0.00    +0.000 A 
ATOM      7  N   UNL     1       3.621   4.478  17.926  0.00  0.00    +0.000 N 
BRANCH   7   8
ATOM      8  C   UNL     1       4.813   4.585  17.179  0.00  0.00    +0.000 A 
ATOM      9  C   UNL     1       4.797   4.175  15.830  0.00  0.00    +0.000 A 
ATOM     10  C   UNL     1       5.977   4.026  15.113  0.00  0.00    +0.000 A 
ATOM     11  C   UNL     1       7.171   4.359  15.725  0.00  0.00    +0.000 A 
ATOM     12  C   UNL     1       7.197   4.835  17.025  0.00  0.00    +0.000 A 
ATOM     13  C   UNL     1       6.034   4.924  17.772  0.00  0.00    +0.000 A 
ATOM     14 CL   UNL     1       6.317   5.253  19.436  0.00  0.00    +0.000 Cl
ENDBRANCH   7   8
ENDBRANCH   1   6
BRANCH   1  15
ATOM     15  C   UNL     1       1.940   7.962  19.605  0.00  0.00    +0.000 C 
BRANCH  15  16
ATOM     16  C   UNL     1       1.194   9.235  19.434  0.00  0.00    +0.000 A 
ATOM     17  N   UNL     1       0.808   9.864  18.333  0.00  0.00    +0.000 NA
ATOM     18  N   UNL     1      -0.110  10.820  18.729  0.00  0.00    +0.000 NA
ATOM     19  C   UNL     1      -0.239  10.707  20.035  0.00  0.00    +0.000 A 
ATOM     20  O   UNL     1       0.553   9.713  20.550  0.00  0.00    +0.000 OA
BRANCH  19  21
ATOM     21  C   UNL     1      -1.104  11.407  20.976  0.00  0.00    +0.000 A 
ATOM     22  C   UNL     1      -2.084  12.304  20.519  0.00  0.00    +0.000 A 
ATOM     23  C   UNL     1      -2.946  12.945  21.420  0.00  0.00    +0.000 A 
ATOM     24  C   UNL     1      -2.827  12.701  22.786  0.00  0.00    +0.000 A 
ATOM     25 CL   UNL     1      -3.893  13.476  23.892  0.00  0.00    +0.000 Cl
ATOM     26  C   UNL     1      -1.855  11.824  23.262  0.00  0.00    +0.000 A 
ATOM     27  C   UNL     1      -1.002  11.180  22.358  0.00  0.00    +0.000 A 
ENDBRANCH  19  21
ENDBRANCH  15  16
ENDBRANCH   1  15
TORSDOF 5
ENDMDL
