MODEL 1
REMARK VINA RESULT:      -7.1      0.000      0.000
REMARK  Name = 
REMARK  6 active torsions:
REMARK  status: ('A' for Active; 'I' for Inactive)
REMARK    1  A    between atoms: C_1  and  C_2
REMARK    2  A    between atoms: C_9  and  C_10
REMARK    3  A    between atoms: C_15  and  N_16
REMARK    4  A    between atoms: N_17  and  C_18
REMARK    5  A    between atoms: C_21  and  C_22
REMARK    6  A    between atoms: C_22  and  N_23
REMARK                            x       y       z     vdW  Elec       q    Type
REMARK                         _______ _______ _______ _____ _____    ______ ____
ROOT
ATOM      1  C   UNL     1       7.045   3.026  11.492  0.00  0.00    +0.000 C 
ATOM      2  C   UNL     1       6.814   3.823  12.741  0.00  0.00    +0.000 A 
ATOM      3  C   UNL     1       7.715   4.848  13.146  0.00  0.00    +0.000 A 
ATOM      4  N   UNL     1       7.517   5.528  14.319  0.00  0.00    +0.000 NA
ATOM      5  C   UNL     1       6.438   5.216  15.081  0.00  0.00    +0.000 A 
ATOM      6  C   UNL     1       5.551   4.254  14.720  0.00  0.00    +0.000 A 
ATOM      7  C   UNL     1       5.697   3.532  13.546  0.00  0.00    +0.000 A 
ATOM      8  N   UNL     1       4.615   4.110  15.667  0.00  0.00    +0.000 NA
ATOM      9  C   UNL     1       4.974   4.995  16.631  0.00  0.00    +0.000 A 
ATOM     10  N   UNL     1       6.114   5.692  16.299  0.00  0.00    +0.000 N 
ENDROOT
BRANCH   9  11
ATOM     11  C   UNL     1       4.162   5.187  17.875  0.00  0.00    +0.000 A 
ATOM     12  C   UNL     1       3.301   6.300  17.978  0.00  0.00    +0.000 A 
ATOM     13  C   UNL     1       2.560   6.530  19.132  0.00  0.00    +0.000 A 
ATOM     14  C   UNL     1       2.656   5.635  20.188  0.00  0.00    +0.000 A 
ATOM     15  N   UNL     1       3.458   4.545  20.082  0.00  0.00    +0.000 NA
ATOM     16  C   UNL     1       4.207   4.286  18.974  0.00  0.00    +0.000 A 
BRANCH  16  17
ATOM     17  N   UNL     1       5.053   3.147  19.001  0.00  0.00    +0.000 N 
ATOM     18  H   UNL     1       6.019   3.226  18.652  0.00  0.00    +0.000 HD
ATOM     19  H   UNL     1       4.737   2.216  19.293  0.00  0.00    +0.000 HD
ENDBRANCH  16  17
ENDBRANCH   9  11
BRANCH  10  20
ATOM     20  C   UNL     1       6.867   6.630  17.105  0.00  0.00    +0.000 A 
ATOM     21  C   UNL     1       6.802   8.005  16.814  0.00  0.00    +0.000 A 
ATOM     22  C   UNL     1       7.544   8.931  17.537  0.00  0.00    +0.000 A 
ATOM     23  C   UNL     1       8.365   8.511  18.586  0.00  0.00    +0.000 A 
ATOM     24  C   UNL     1       8.411   7.145  18.919  0.00  0.00    +0.000 A 
ATOM     25  C   UNL     1       7.660   6.211  18.190  0.00  0.00    +0.000 A 
BRANCH  23  26
ATOM     26  C   UNL     1       9.185   9.526  19.336  0.00  0.00    +0.000 C 
BRANCH  26  27
ATOM     27  N   UNL     1       9.351  10.737  18.542  0.00  0.00    +0.000 NA
ATOM     28  H   UNL     1      10.355  11.028  18.583  0.00  0.00    +0.000 HD
ATOM     29  H   UNL     1       8.784  11.495  18.985  0.00  0.00    +0.000 HD
ENDBRANCH  26  27
ENDBRANCH  23  26
ENDBRANCH  10  20
TORSDOF 5
ENDMDL
MODEL 2
REMARK VINA RESULT:      -6.9      2.963      4.476
REMARK  Name = 
REMARK  6 active torsions:
REMARK  status: ('A' for Active; 'I' for Inactive)
REMARK    1  A    between atoms: C_1  and  C_2
REMARK    2  A    between atoms: C_9  and  C_10
REMARK    3  A    between atoms: C_15  and  N_16
REMARK    4  A    between atoms: N_17  and  C_18
REMARK    5  A    between atoms: C_21  and  C_22
REMARK    6  A    between atoms: C_22  and  N_23
REMARK                            x       y       z     vdW  Elec       q    Type
REMARK                         _______ _______ _______ _____ _____    ______ ____
ROOT
ATOM      1  C   UNL     1       7.420   4.890  13.902  0.00  0.00    +0.000 C 
ATOM      2  C   UNL     1       6.336   5.089  14.919  0.00  0.00    +0.000 A 
ATOM      3  C   UNL     1       5.741   6.364  15.131  0.00  0.00    +0.000 A 
ATOM      4  N   UNL     1       4.791   6.537  16.103  0.00  0.00    +0.000 NA
ATOM      5  C   UNL     1       4.418   5.467  16.850  0.00  0.00    +0.000 A 
ATOM      6  C   UNL     1       4.954   4.234  16.667  0.00  0.00    +0.000 A 
ATOM      7  C   UNL     1       5.918   3.996  15.700  0.00  0.00    +0.000 A 
ATOM      8  N   UNL     1       4.454   3.375  17.564  0.00  0.00    +0.000 NA
ATOM      9  C   UNL     1       3.614   4.129  18.319  0.00  0.00    +0.000 A 
ATOM     10  N   UNL     1       3.579   5.441  17.905  0.00  0.00    +0.000 N 
ENDROOT
BRANCH   9  11
ATOM     11  C   UNL     1       2.806   3.541  19.434  0.00  0.00    +0.000 A 
ATOM     12  C   UNL     1       1.418   3.789  19.492  0.00  0.00    +0.000 A 
ATOM     13  C   UNL     1       0.643   3.290  20.534  0.00  0.00    +0.000 A 
ATOM     14  C   UNL     1       1.246   2.518  21.517  0.00  0.00    +0.000 A 
ATOM     15  N   UNL     1       2.574   2.250  21.449  0.00  0.00    +0.000 NA
ATOM     16  C   UNL     1       3.372   2.725  20.452  0.00  0.00    +0.000 A 
BRANCH  16  17
ATOM     17  N   UNL     1       4.758   2.427  20.517  0.00  0.00    +0.000 N 
ATOM     18  H   UNL     1       5.059   1.483  20.802  0.00  0.00    +0.000 HD
ATOM     19  H   UNL     1       5.494   3.123  20.357  0.00  0.00    +0.000 HD
ENDBRANCH  16  17
ENDBRANCH   9  11
BRANCH  10  20
ATOM     20  C   UNL     1       2.902   6.564  18.518  0.00  0.00    +0.000 A 
ATOM     21  C   UNL     1       2.625   6.540  19.897  0.00  0.00    +0.000 A 
ATOM     22  C   UNL     1       1.940   7.580  20.514  0.00  0.00    +0.000 A 
ATOM     23  C   UNL     1       1.520   8.685  19.771  0.00  0.00    +0.000 A 
ATOM     24  C   UNL     1       1.824   8.746  18.398  0.00  0.00    +0.000 A 
ATOM     25  C   UNL     1       2.518   7.697  17.777  0.00  0.00    +0.000 A 
BRANCH  23  26
ATOM     26  C   UNL     1       0.750   9.784  20.450  0.00  0.00    +0.000 C 
BRANCH  26  27
ATOM     27  N   UNL     1       1.171   9.922  21.838  0.00  0.00    +0.000 NA
ATOM     28  H   UNL     1       2.006   9.312  21.996  0.00  0.00    +0.000 HD
ATOM     29  H   UNL     1       0.400   9.564  22.447  0.00  0.00    +0.000 HD
ENDBRANCH  26  27
ENDBRANCH  23  26
ENDBRANCH  10  20
TORSDOF 5
ENDMDL
MODEL 3
REMARK VINA RESULT:      -6.6      6.924     10.004
REMARK  Name = 
REMARK  6 active torsions:
REMARK  status: ('A' for Active; 'I' for Inactive)
REMARK    1  A    between atoms: C_1  and  C_2
REMARK    2  A    between atoms: C_9  and  C_10
REMARK    3  A    between atoms: C_15  and  N_16
REMARK    4  A    between atoms: N_17  and  C_18
REMARK    5  A    between atoms: C_21  and  C_22
REMARK    6  A    between atoms: C_22  and  N_23
REMARK                            x       y       z     vdW  Elec       q    Type
REMARK                         _______ _______ _______ _____ _____    ______ ____
ROOT
ATOM      1  C   UNL     1       3.238  16.913  19.419  0.00  0.00    +0.000 C 
ATOM      2  C   UNL     1       2.583  15.564  19.395  0.00  0.00    +0.000 A 
ATOM      3  C   UNL     1       3.303  14.383  19.729  0.00  0.00    +0.000 A 
ATOM      4  N   UNL     1       2.703  13.154  19.647  0.00  0.00    +0.000 NA
ATOM      5  C   UNL     1       1.405  13.085  19.257  0.00  0.00    +0.000 A 
ATOM      6  C   UNL     1       0.684  14.191  18.944  0.00  0.00    +0.000 A 
ATOM      7  C   UNL     1       1.235  15.462  19.007  0.00  0.00    +0.000 A 
ATOM      8  N   UNL     1      -0.546  13.844  18.542  0.00  0.00    +0.000 NA
ATOM      9  C   UNL     1      -0.543  12.487  18.592  0.00  0.00    +0.000 A 
ATOM     10  N   UNL     1       0.663  11.985  19.024  0.00  0.00    +0.000 N 
ENDROOT
BRANCH   9  11
ATOM     11  C   UNL     1      -1.757  11.678  18.252  0.00  0.00    +0.000 A 
ATOM     12  C   UNL     1      -1.652  10.624  17.321  0.00  0.00    +0.000 A 
ATOM     13  C   UNL     1      -2.766   9.876  16.954  0.00  0.00    +0.000 A 
ATOM     14  C   UNL     1      -3.994  10.163  17.533  0.00  0.00    +0.000 A 
ATOM     15  N   UNL     1      -4.095  11.154  18.454  0.00  0.00    +0.000 NA
ATOM     16  C   UNL     1      -3.032  11.916  18.836  0.00  0.00    +0.000 A 
BRANCH  16  17
ATOM     17  N   UNL     1      -3.271  12.963  19.764  0.00  0.00    +0.000 N 
ATOM     18  H   UNL     1      -2.603  13.745  19.827  0.00  0.00    +0.000 HD
ATOM     19  H   UNL     1      -4.048  12.959  20.433  0.00  0.00    +0.000 HD
ENDBRANCH  16  17
ENDBRANCH   9  11
BRANCH  10  20
ATOM     20  C   UNL     1       1.091  10.603  19.101  0.00  0.00    +0.000 A 
ATOM     21  C   UNL     1       0.858   9.869  20.278  0.00  0.00    +0.000 A 
ATOM     22  C   UNL     1       1.292   8.555  20.407  0.00  0.00    +0.000 A 
ATOM     23  C   UNL     1       1.962   7.929  19.354  0.00  0.00    +0.000 A 
ATOM     24  C   UNL     1       2.168   8.634  18.154  0.00  0.00    +0.000 A 
ATOM     25  C   UNL     1       1.727   9.959  18.024  0.00  0.00    +0.000 A 
BRANCH  23  26
ATOM     26  C   UNL     1       2.454   6.517  19.524  0.00  0.00    +0.000 C 
BRANCH  26  27
ATOM     27  N   UNL     1       2.192   6.044  20.877  0.00  0.00    +0.000 NA
ATOM     28  H   UNL     1       3.018   6.274  21.477  0.00  0.00    +0.000 HD
ATOM     29  H   UNL     1       2.105   5.003  20.845  0.00  0.00    +0.000 HD
ENDBRANCH  26  27
ENDBRANCH  23  26
ENDBRANCH  10  20
TORSDOF 5
ENDMDL
MODEL 4
REMARK VINA RESULT:      -6.5      7.047     11.199
REMARK  Name = 
REMARK  6 active torsions:
REMARK  status: ('A' for Active; 'I' for Inactive)
REMARK    1  A    between atoms: C_1  and  C_2
REMARK    2  A    between atoms: C_9  and  C_10
REMARK    3  A    between atoms: C_15  and  N_16
REMARK    4  A    between atoms: N_17  and  C_18
REMARK    5  A    between atoms: C_21  and  C_22
REMARK    6  A    between atoms: C_22  and  N_23
REMARK                            x       y       z     vdW  Elec       q    Type
REMARK                         _______ _______ _______ _____ _____    ______ ____
ROOT
ATOM      1  C   UNL     1      -2.732  14.165  24.286  0.00  0.00    +0.000 C 
ATOM      2  C   UNL     1      -2.344  13.446  23.029  0.00  0.00    +0.000 A 
ATOM      3  C   UNL     1      -3.141  13.524  21.853  0.00  0.00    +0.000 A 
ATOM      4  N   UNL     1      -2.800  12.815  20.730  0.00  0.00    +0.000 NA
ATOM      5  C   UNL     1      -1.681  12.049  20.758  0.00  0.00    +0.000 A 
ATOM      6  C   UNL     1      -0.890  11.961  21.857  0.00  0.00    +0.000 A 
ATOM      7  C   UNL     1      -1.182  12.654  23.021  0.00  0.00    +0.000 A 
ATOM      8  N   UNL     1       0.115  11.103  21.637  0.00  0.00    +0.000 NA
ATOM      9  C   UNL     1      -0.104  10.647  20.376  0.00  0.00    +0.000 A 
ATOM     10  N   UNL     1      -1.222  11.211  19.807  0.00  0.00    +0.000 N 
ENDROOT
BRANCH   9  11
ATOM     11  C   UNL     1       0.824   9.679  19.711  0.00  0.00    +0.000 A 
ATOM     12  C   UNL     1       1.231   9.908  18.379  0.00  0.00    +0.000 A 
ATOM     13  C   UNL     1       2.062   9.010  17.718  0.00  0.00    +0.000 A 
ATOM     14  C   UNL     1       2.513   7.883  18.391  0.00  0.00    +0.000 A 
ATOM     15  N   UNL     1       2.151   7.674  19.681  0.00  0.00    +0.000 NA
ATOM     16  C   UNL     1       1.333   8.523  20.364  0.00  0.00    +0.000 A 
BRANCH  16  17
ATOM     17  N   UNL     1       0.977   8.169  21.692  0.00  0.00    +0.000 N 
ATOM     18  H   UNL     1       0.282   7.425  21.848  0.00  0.00    +0.000 HD
ATOM     19  H   UNL     1       1.328   8.661  22.521  0.00  0.00    +0.000 HD
ENDBRANCH  16  17
ENDBRANCH   9  11
BRANCH  10  20
ATOM     20  C   UNL     1      -1.843  10.901  18.535  0.00  0.00    +0.000 A 
ATOM     21  C   UNL     1      -1.756  11.823  17.477  0.00  0.00    +0.000 A 
ATOM     22  C   UNL     1      -2.374  11.581  16.256  0.00  0.00    +0.000 A 
ATOM     23  C   UNL     1      -3.089  10.399  16.051  0.00  0.00    +0.000 A 
ATOM     24  C   UNL     1      -3.153   9.446  17.085  0.00  0.00    +0.000 A 
ATOM     25  C   UNL     1      -2.526   9.691  18.315  0.00  0.00    +0.000 A 
BRANCH  23  26
ATOM     26  C   UNL     1      -3.780  10.170  14.734  0.00  0.00    +0.000 C 
BRANCH  26  27
ATOM     27  N   UNL     1      -2.803  10.029  13.662  0.00  0.00    +0.000 NA
ATOM     28  H   UNL     1      -2.111  10.809  13.736  0.00  0.00    +0.000 HD
ATOM     29  H   UNL     1      -3.305  10.138  12.751  0.00  0.00    +0.000 HD
ENDBRANCH  26  27
ENDBRANCH  23  26
ENDBRANCH  10  20
TORSDOF 5
ENDMDL
MODEL 5
REMARK VINA RESULT:      -6.4      2.968      4.594
REMARK  Name = 
REMARK  6 active torsions:
REMARK  status: ('A' for Active; 'I' for Inactive)
REMARK    1  A    between atoms: C_1  and  C_2
REMARK    2  A    between atoms: C_9  and  C_10
REMARK    3  A    between atoms: C_15  and  N_16
REMARK    4  A    between atoms: N_17  and  C_18
REMARK    5  A    between atoms: C_21  and  C_22
REMARK    6  A    between atoms: C_22  and  N_23
REMARK                            x       y       z     vdW  Elec       q    Type
REMARK                         _______ _______ _______ _____ _____    ______ ____
ROOT
ATOM      1  C   UNL     1       7.405   4.910  14.054  0.00  0.00    +0.000 C 
ATOM      2  C   UNL     1       6.298   5.119  15.044  0.00  0.00    +0.000 A 
ATOM      3  C   UNL     1       5.691   6.393  15.222  0.00  0.00    +0.000 A 
ATOM      4  N   UNL     1       4.719   6.578  16.170  0.00  0.00    +0.000 NA
ATOM      5  C   UNL     1       4.337   5.518  16.927  0.00  0.00    +0.000 A 
ATOM      6  C   UNL     1       4.884   4.286  16.777  0.00  0.00    +0.000 A 
ATOM      7  C   UNL     1       5.870   4.037  15.835  0.00  0.00    +0.000 A 
ATOM      8  N   UNL     1       4.370   3.438  17.678  0.00  0.00    +0.000 NA
ATOM      9  C   UNL     1       3.511   4.200  18.402  0.00  0.00    +0.000 A 
ATOM     10  N   UNL     1       3.476   5.504  17.964  0.00  0.00    +0.000 N 
ENDROOT
BRANCH   9  11
ATOM     11  C   UNL     1       2.682   3.626  19.510  0.00  0.00    +0.000 A 
ATOM     12  C   UNL     1       3.277   3.376  20.765  0.00  0.00    +0.000 A 
ATOM     13  C   UNL     1       2.547   2.810  21.805  0.00  0.00    +0.000 A 
ATOM     14  C   UNL     1       1.207   2.507  21.605  0.00  0.00    +0.000 A 
ATOM     15  N   UNL     1       0.622   2.775  20.411  0.00  0.00    +0.000 NA
ATOM     16  C   UNL     1       1.301   3.321  19.364  0.00  0.00    +0.000 A 
BRANCH  16  17
ATOM     17  N   UNL     1       0.598   3.502  18.144  0.00  0.00    +0.000 N 
ATOM     18  H   UNL     1      -0.424   3.627  18.164  0.00  0.00    +0.000 HD
ATOM     19  H   UNL     1       1.044   3.451  17.222  0.00  0.00    +0.000 HD
ENDBRANCH  16  17
ENDBRANCH   9  11
BRANCH  10  20
ATOM     20  C   UNL     1       2.779   6.634  18.544  0.00  0.00    +0.000 A 
ATOM     21  C   UNL     1       2.395   7.708  17.722  0.00  0.00    +0.000 A 
ATOM     22  C   UNL     1       1.763   8.829  18.248  0.00  0.00    +0.000 A 
ATOM     23  C   UNL     1       1.483   8.903  19.614  0.00  0.00    +0.000 A 
ATOM     24  C   UNL     1       1.824   7.820  20.445  0.00  0.00    +0.000 A 
ATOM     25  C   UNL     1       2.459   6.689  19.913  0.00  0.00    +0.000 A 
BRANCH  23  26
ATOM     26  C   UNL     1       0.829  10.139  20.169  0.00  0.00    +0.000 C 
BRANCH  26  27
ATOM     27  N   UNL     1       0.988  10.196  21.617  0.00  0.00    +0.000 NA
ATOM     28  H   UNL     1       1.391  11.127  21.872  0.00  0.00    +0.000 HD
ATOM     29  H   UNL     1       1.681   9.465  21.895  0.00  0.00    +0.000 HD
ENDBRANCH  26  27
ENDBRANCH  23  26
ENDBRANCH  10  20
TORSDOF 5
ENDMDL
MODEL 6
REMARK VINA RESULT:      -6.4      7.181     11.341
REMARK  Name = 
REMARK  6 active torsions:
REMARK  status: ('A' for Active; 'I' for Inactive)
REMARK    1  A    between atoms: C_1  and  C_2
REMARK    2  A    between atoms: C_9  and  C_10
REMARK    3  A    between atoms: C_15  and  N_16
REMARK    4  A    between atoms: N_17  and  C_18
REMARK    5  A    between atoms: C_21  and  C_22
REMARK    6  A    between atoms: C_22  and  N_23
REMARK                            x       y       z     vdW  Elec       q    Type
REMARK                         _______ _______ _______ _____ _____    ______ ____
ROOT
ATOM      1  C   UNL     1      -2.616  14.588  24.259  0.00  0.00    +0.000 C 
ATOM      2  C   UNL     1      -2.264  13.810  23.026  0.00  0.00    +0.000 A 
ATOM      3  C   UNL     1      -3.069  13.870  21.855  0.00  0.00    +0.000 A 
ATOM      4  N   UNL     1      -2.762  13.110  20.757  0.00  0.00    +0.000 NA
ATOM      5  C   UNL     1      -1.666  12.310  20.803  0.00  0.00    +0.000 A 
ATOM      6  C   UNL     1      -0.868  12.238  21.897  0.00  0.00    +0.000 A 
ATOM      7  C   UNL     1      -1.127  12.982  23.038  0.00  0.00    +0.000 A 
ATOM      8  N   UNL     1       0.107  11.340  21.701  0.00  0.00    +0.000 NA
ATOM      9  C   UNL     1      -0.138  10.846  20.460  0.00  0.00    +0.000 A 
ATOM     10  N   UNL     1      -1.244  11.424  19.880  0.00  0.00    +0.000 N 
ENDROOT
BRANCH   9  11
ATOM     11  C   UNL     1       0.752   9.824  19.823  0.00  0.00    +0.000 A 
ATOM     12  C   UNL     1       1.158   9.995  18.483  0.00  0.00    +0.000 A 
ATOM     13  C   UNL     1       1.954   9.048  17.848  0.00  0.00    +0.000 A 
ATOM     14  C   UNL     1       2.371   7.929  18.556  0.00  0.00    +0.000 A 
ATOM     15  N   UNL     1       2.011   7.776  19.855  0.00  0.00    +0.000 NA
ATOM     16  C   UNL     1       1.226   8.674  20.513  0.00  0.00    +0.000 A 
BRANCH  16  17
ATOM     17  N   UNL     1       0.866   8.378  21.853  0.00  0.00    +0.000 N 
ATOM     18  H   UNL     1       1.500   7.811  22.434  0.00  0.00    +0.000 HD
ATOM     19  H   UNL     1      -0.033   8.646  22.269  0.00  0.00    +0.000 HD
ENDBRANCH  16  17
ENDBRANCH   9  11
BRANCH  10  20
ATOM     20  C   UNL     1      -1.886  11.086  18.626  0.00  0.00    +0.000 A 
ATOM     21  C   UNL     1      -2.640   9.903  18.529  0.00  0.00    +0.000 A 
ATOM     22  C   UNL     1      -3.236   9.523  17.331  0.00  0.00    +0.000 A 
ATOM     23  C   UNL     1      -3.107  10.325  16.195  0.00  0.00    +0.000 A 
ATOM     24  C   UNL     1      -2.391  11.533  16.285  0.00  0.00    +0.000 A 
ATOM     25  C   UNL     1      -1.793  11.917  17.494  0.00  0.00    +0.000 A 
BRANCH  23  26
ATOM     26  C   UNL     1      -3.731   9.880  14.901  0.00  0.00    +0.000 C 
BRANCH  26  27
ATOM     27  N   UNL     1      -2.901  10.277  13.770  0.00  0.00    +0.000 NA
ATOM     28  H   UNL     1      -1.897  10.152  14.033  0.00  0.00    +0.000 HD
ATOM     29  H   UNL     1      -3.058  11.296  13.595  0.00  0.00    +0.000 HD
ENDBRANCH  26  27
ENDBRANCH  23  26
ENDBRANCH  10  20
TORSDOF 5
ENDMDL
MODEL 7
REMARK VINA RESULT:      -6.4      0.838      1.361
REMARK  Name = 
REMARK  6 active torsions:
REMARK  status: ('A' for Active; 'I' for Inactive)
REMARK    1  A    between atoms: C_1  and  C_2
REMARK    2  A    between atoms: C_9  and  C_10
REMARK    3  A    between atoms: C_15  and  N_16
REMARK    4  A    between atoms: N_17  and  C_18
REMARK    5  A    between atoms: C_21  and  C_22
REMARK    6  A    between atoms: C_22  and  N_23
REMARK                            x       y       z     vdW  Elec       q    Type
REMARK                         _______ _______ _______ _____ _____    ______ ____
ROOT
ATOM      1  C   UNL     1       6.923   3.030  11.487  0.00  0.00    +0.000 C 
ATOM      2  C   UNL     1       6.719   3.805  12.754  0.00  0.00    +0.000 A 
ATOM      3  C   UNL     1       7.603   4.853  13.135  0.00  0.00    +0.000 A 
ATOM      4  N   UNL     1       7.432   5.513  14.323  0.00  0.00    +0.000 NA
ATOM      5  C   UNL     1       6.395   5.158  15.124  0.00  0.00    +0.000 A 
ATOM      6  C   UNL     1       5.524   4.173  14.787  0.00  0.00    +0.000 A 
ATOM      7  C   UNL     1       5.645   3.470  13.599  0.00  0.00    +0.000 A 
ATOM      8  N   UNL     1       4.632   3.988  15.769  0.00  0.00    +0.000 NA
ATOM      9  C   UNL     1       5.003   4.874  16.729  0.00  0.00    +0.000 A 
ATOM     10  N   UNL     1       6.105   5.610  16.360  0.00  0.00    +0.000 N 
ENDROOT
BRANCH   9  11
ATOM     11  C   UNL     1       4.236   5.026  18.006  0.00  0.00    +0.000 A 
ATOM     12  C   UNL     1       4.230   3.972  18.944  0.00  0.00    +0.000 A 
ATOM     13  C   UNL     1       3.499   4.064  20.124  0.00  0.00    +0.000 A 
ATOM     14  C   UNL     1       2.783   5.224  20.387  0.00  0.00    +0.000 A 
ATOM     15  N   UNL     1       2.811   6.254  19.504  0.00  0.00    +0.000 NA
ATOM     16  C   UNL     1       3.506   6.202  18.334  0.00  0.00    +0.000 A 
BRANCH  16  17
ATOM     17  N   UNL     1       3.414   7.318  17.463  0.00  0.00    +0.000 N 
ATOM     18  H   UNL     1       3.900   8.193  17.708  0.00  0.00    +0.000 HD
ATOM     19  H   UNL     1       2.830   7.330  16.619  0.00  0.00    +0.000 HD
ENDBRANCH  16  17
ENDBRANCH   9  11
BRANCH  10  20
ATOM     20  C   UNL     1       6.861   6.563  17.147  0.00  0.00    +0.000 A 
ATOM     21  C   UNL     1       6.809   7.930  16.820  0.00  0.00    +0.000 A 
ATOM     22  C   UNL     1       7.553   8.869  17.524  0.00  0.00    +0.000 A 
ATOM     23  C   UNL     1       8.364   8.470  18.589  0.00  0.00    +0.000 A 
ATOM     24  C   UNL     1       8.397   7.112  18.957  0.00  0.00    +0.000 A 
ATOM     25  C   UNL     1       7.643   6.166  18.247  0.00  0.00    +0.000 A 
BRANCH  23  26
ATOM     26  C   UNL     1       9.188   9.497  19.318  0.00  0.00    +0.000 C 
BRANCH  26  27
ATOM     27  N   UNL     1       9.194  10.758  18.589  0.00  0.00    +0.000 NA
ATOM     28  H   UNL     1       8.407  11.351  18.941  0.00  0.00    +0.000 HD
ATOM     29  H   UNL     1       9.006  10.551  17.582  0.00  0.00    +0.000 HD
ENDBRANCH  26  27
ENDBRANCH  23  26
ENDBRANCH  10  20
TORSDOF 5
ENDMDL
MODEL 8
REMARK VINA RESULT:      -6.2      2.459      6.902
REMARK  Name = 
REMARK  6 active torsions:
REMARK  status: ('A' for Active; 'I' for Inactive)
REMARK    1  A    between atoms: C_1  and  C_2
REMARK    2  A    between atoms: C_9  and  C_10
REMARK    3  A    between atoms: C_15  and  N_16
REMARK    4  A    between atoms: N_17  and  C_18
REMARK    5  A    between atoms: C_21  and  C_22
REMARK    6  A    between atoms: C_22  and  N_23
REMARK                            x       y       z     vdW  Elec       q    Type
REMARK                         _______ _______ _______ _____ _____    ______ ____
ROOT
ATOM      1  C   UNL     1       0.668  10.477  19.603  0.00  0.00    +0.000 C 
ATOM      2  C   UNL     1       1.388   9.215  19.234  0.00  0.00    +0.000 A 
ATOM      3  C   UNL     1       1.257   8.030  20.011  0.00  0.00    +0.000 A 
ATOM      4  N   UNL     1       1.966   6.902  19.689  0.00  0.00    +0.000 NA
ATOM      5  C   UNL     1       2.783   6.932  18.607  0.00  0.00    +0.000 A 
ATOM      6  C   UNL     1       2.923   8.039  17.835  0.00  0.00    +0.000 A 
ATOM      7  C   UNL     1       2.233   9.209  18.109  0.00  0.00    +0.000 A 
ATOM      8  N   UNL     1       3.824   7.819  16.869  0.00  0.00    +0.000 NA
ATOM      9  C   UNL     1       4.252   6.550  17.092  0.00  0.00    +0.000 A 
ATOM     10  N   UNL     1       3.629   5.975  18.176  0.00  0.00    +0.000 N 
ENDROOT
BRANCH   9  11
ATOM     11  C   UNL     1       5.254   5.882  16.202  0.00  0.00    +0.000 A 
ATOM     12  C   UNL     1       4.833   4.856  15.329  0.00  0.00    +0.000 A 
ATOM     13  C   UNL     1       5.743   4.189  14.515  0.00  0.00    +0.000 A 
ATOM     14  C   UNL     1       7.081   4.557  14.551  0.00  0.00    +0.000 A 
ATOM     15  N   UNL     1       7.485   5.564  15.365  0.00  0.00    +0.000 NA
ATOM     16  C   UNL     1       6.630   6.238  16.184  0.00  0.00    +0.000 A 
BRANCH  16  17
ATOM     17  N   UNL     1       7.179   7.234  17.034  0.00  0.00    +0.000 N 
ATOM     18  H   UNL     1       7.921   6.976  17.700  0.00  0.00    +0.000 HD
ATOM     19  H   UNL     1       6.832   8.198  17.071  0.00  0.00    +0.000 HD
ENDBRANCH  16  17
ENDBRANCH   9  11
BRANCH  10  20
ATOM     20  C   UNL     1       3.893   4.692  18.794  0.00  0.00    +0.000 A 
ATOM     21  C   UNL     1       5.010   4.543  19.636  0.00  0.00    +0.000 A 
ATOM     22  C   UNL     1       5.321   3.318  20.213  0.00  0.00    +0.000 A 
ATOM     23  C   UNL     1       4.513   2.203  19.976  0.00  0.00    +0.000 A 
ATOM     24  C   UNL     1       3.368   2.342  19.171  0.00  0.00    +0.000 A 
ATOM     25  C   UNL     1       3.054   3.580  18.591  0.00  0.00    +0.000 A 
BRANCH  23  26
ATOM     26  C   UNL     1       4.885   0.877  20.583  0.00  0.00    +0.000 C 
BRANCH  26  27
ATOM     27  N   UNL     1       5.774   1.067  21.722  0.00  0.00    +0.000 NA
ATOM     28  H   UNL     1       5.552   0.343  22.443  0.00  0.00    +0.000 HD
ATOM     29  H   UNL     1       5.568   2.003  22.141  0.00  0.00    +0.000 HD
ENDBRANCH  26  27
ENDBRANCH  23  26
ENDBRANCH  10  20
TORSDOF 5
ENDMDL
MODEL 9
REMARK VINA RESULT:      -6.2      2.791      6.112
REMARK  Name = 
REMARK  6 active torsions:
REMARK  status: ('A' for Active; 'I' for Inactive)
REMARK    1  A    between atoms: C_1  and  C_2
REMARK    2  A    between atoms: C_9  and  C_10
REMARK    3  A    between atoms: C_15  and  N_16
REMARK    4  A    between atoms: N_17  and  C_18
REMARK    5  A    between atoms: C_21  and  C_22
REMARK    6  A    between atoms: C_22  and  N_23
REMARK                            x       y       z     vdW  Elec       q    Type
REMARK                         _______ _______ _______ _____ _____    ______ ____
ROOT
ATOM      1  C   UNL     1       0.257  11.135  19.088  0.00  0.00    +0.000 C 
ATOM      2  C   UNL     1       1.135   9.934  18.902  0.00  0.00    +0.000 A 
ATOM      3  C   UNL     1       2.043   9.838  17.810  0.00  0.00    +0.000 A 
ATOM      4  N   UNL     1       2.797   8.709  17.626  0.00  0.00    +0.000 NA
ATOM      5  C   UNL     1       2.673   7.690  18.513  0.00  0.00    +0.000 A 
ATOM      6  C   UNL     1       1.829   7.751  19.574  0.00  0.00    +0.000 A 
ATOM      7  C   UNL     1       1.040   8.865  19.813  0.00  0.00    +0.000 A 
ATOM      8  N   UNL     1       1.860   6.600  20.258  0.00  0.00    +0.000 NA
ATOM      9  C   UNL     1       2.730   5.822  19.564  0.00  0.00    +0.000 A 
ATOM     10  N   UNL     1       3.246   6.470  18.466  0.00  0.00    +0.000 N 
ENDROOT
BRANCH   9  11
ATOM     11  C   UNL     1       3.091   4.440  20.014  0.00  0.00    +0.000 A 
ATOM     12  C   UNL     1       4.430   4.005  19.919  0.00  0.00    +0.000 A 
ATOM     13  C   UNL     1       4.794   2.715  20.292  0.00  0.00    +0.000 A 
ATOM     14  C   UNL     1       3.824   1.854  20.787  0.00  0.00    +0.000 A 
ATOM     15  N   UNL     1       2.541   2.278  20.911  0.00  0.00    +0.000 NA
ATOM     16  C   UNL     1       2.140   3.529  20.550  0.00  0.00    +0.000 A 
BRANCH  16  17
ATOM     17  N   UNL     1       0.760   3.839  20.671  0.00  0.00    +0.000 N 
ATOM     18  H   UNL     1       0.061   3.091  20.553  0.00  0.00    +0.000 HD
ATOM     19  H   UNL     1       0.406   4.792  20.809  0.00  0.00    +0.000 HD
ENDBRANCH  16  17
ENDBRANCH   9  11
BRANCH  10  20
ATOM     20  C   UNL     1       4.106   5.944  17.426  0.00  0.00    +0.000 A 
ATOM     21  C   UNL     1       5.244   6.671  17.033  0.00  0.00    +0.000 A 
ATOM     22  C   UNL     1       6.071   6.219  16.010  0.00  0.00    +0.000 A 
ATOM     23  C   UNL     1       5.790   5.017  15.357  0.00  0.00    +0.000 A 
ATOM     24  C   UNL     1       4.680   4.256  15.765  0.00  0.00    +0.000 A 
ATOM     25  C   UNL     1       3.848   4.711  16.799  0.00  0.00    +0.000 A 
BRANCH  23  26
ATOM     26  C   UNL     1       6.678   4.562  14.230  0.00  0.00    +0.000 C 
BRANCH  26  27
ATOM     27  N   UNL     1       7.777   5.498  14.035  0.00  0.00    +0.000 NA
ATOM     28  H   UNL     1       7.581   6.070  13.181  0.00  0.00    +0.000 HD
ATOM     29  H   UNL     1       8.645   4.945  13.852  0.00  0.00    +0.000 HD
ENDBRANCH  26  27
ENDBRANCH  23  26
ENDBRANCH  10  20
TORSDOF 5
ENDMDL
