MODEL 1
REMARK VINA RESULT:      -8.3      0.000      0.000
REMARK  Name = 
REMARK  12 active torsions:
REMARK  status: ('A' for Active; 'I' for Inactive)
REMARK    1  A    between atoms: C_1  and  C_2
REMARK    2  A    between atoms: C_2  and  N_3
REMARK    3  A    between atoms: N_3  and  C_4
REMARK    4  A    between atoms: N_3  and  C_6
REMARK    5  A    between atoms: C_4  and  C_5
REMARK    6  A    between atoms: C_9  and  C_10
REMARK    7  A    between atoms: N_11  and  N_12
REMARK    8  A    between atoms: C_13  and  C_15
REMARK    9  A    between atoms: C_25  and  C_26
REMARK   10  A    between atoms: C_26  and  N_27
REMARK   11  A    between atoms: N_27  and  C_28
REMARK   12  A    between atoms: N_27  and  C_29
REMARK                            x       y       z     vdW  Elec       q    Type
REMARK                         _______ _______ _______ _____ _____    ______ ____
ROOT
ATOM      1  C   UNL     1       3.291   7.580  17.864  0.00  0.00    +0.000 A 
ATOM      2  N   UNL     1       3.657   7.902  16.579  0.00  0.00    +0.000 NA
ATOM      3  N   UNL     1       4.740   7.204  16.259  0.00  0.00    +0.000 NA
ATOM      4  N   UNL     1       5.147   6.485  17.346  0.00  0.00    +0.000 N 
ATOM      5  C   UNL     1       6.299   5.644  17.333  0.00  0.00    +0.000 A 
ATOM      6  N   UNL     1       6.869   5.252  18.477  0.00  0.00    +0.000 NA
ATOM      7  O   UNL     1       7.866   4.368  18.090  0.00  0.00    +0.000 OA
ATOM      8  N   UNL     1       7.908   4.236  16.711  0.00  0.00    +0.000 NA
ATOM      9  C   UNL     1       6.953   5.041  16.243  0.00  0.00    +0.000 A 
ATOM     10  N   UNL     1       6.649   5.146  14.938  0.00  0.00    +0.000 N 
ATOM     11  C   UNL     1       4.204   6.654  18.360  0.00  0.00    +0.000 A 
ATOM     12  H   UNL     1       7.255   4.695  14.261  0.00  0.00    +0.000 HD
ATOM     13  H   UNL     1       6.095   5.916  14.576  0.00  0.00    +0.000 HD
ENDROOT
BRANCH   1  15
ATOM     14  N   UNL     1       1.345   9.010  17.740  0.00  0.00    +0.000 N 
ATOM     15  C   UNL     1       2.099   8.138  18.532  0.00  0.00    +0.000 C 
ATOM     16  O   UNL     1       1.818   7.863  19.696  0.00  0.00    +0.000 OA
ATOM     17  H   UNL     1       1.662   9.228  16.802  0.00  0.00    +0.000 HD
BRANCH  14  19
ATOM     18  C   UNL     1      -0.768   9.801  17.402  0.00  0.00    +0.000 C 
ATOM     19  N   UNL     1       0.209   9.604  18.240  0.00  0.00    +0.000 NA
BRANCH  18  23
ATOM     20  C   UNL     1      -4.482  11.669  18.678  0.00  0.00    +0.000 A 
ATOM     21  C   UNL     1      -4.461  10.631  17.730  0.00  0.00    +0.000 A 
ATOM     22  C   UNL     1      -3.265  10.035  17.290  0.00  0.00    +0.000 A 
ATOM     23  C   UNL     1      -2.041  10.469  17.789  0.00  0.00    +0.000 A 
ATOM     24  C   UNL     1      -2.027  11.532  18.701  0.00  0.00    +0.000 A 
ATOM     25  C   UNL     1      -3.232  12.124  19.131  0.00  0.00    +0.000 A 
BRANCH  20  26
ATOM     26  N   UNL     1      -5.677  12.198  19.193  0.00  0.00    +0.000 N 
BRANCH  26  28
ATOM     27  C   UNL     1      -7.194  13.227  17.486  0.00  0.00    +0.000 C 
ATOM     28  C   UNL     1      -6.178  13.450  18.599  0.00  0.00    +0.000 C 
ENDBRANCH  26  28
BRANCH  26  29
ATOM     29  C   UNL     1      -6.013  11.900  20.598  0.00  0.00    +0.000 C 
ATOM     30  C   UNL     1      -7.302  11.103  20.757  0.00  0.00    +0.000 C 
ENDBRANCH  26  29
ENDBRANCH  20  26
ENDBRANCH  18  23
ENDBRANCH  14  19
ENDBRANCH   1  15
BRANCH  11  31
ATOM     31  C   UNL     1       4.213   5.892  19.643  0.00  0.00    +0.000 C 
BRANCH  31  32
ATOM     32  N   UNL     1       3.365   4.671  19.631  0.00  0.00    +0.000 NA
ATOM     33  C   UNL     1       2.210   4.772  20.531  0.00  0.00    +0.000 C 
BRANCH  32  34
ATOM     34  C   UNL     1       2.922   4.377  18.232  0.00  0.00    +0.000 C 
ATOM     35  C   UNL     1       3.666   3.170  17.617  0.00  0.00    +0.000 C 
ATOM     36  C   UNL     1       3.351   1.879  18.370  0.00  0.00    +0.000 C 
ATOM     37  C   UNL     1       1.856   1.574  18.337  0.00  0.00    +0.000 C 
ATOM     38  C   UNL     1       0.986   2.763  18.743  0.00  0.00    +0.000 C 
ATOM     39  C   UNL     1       1.411   4.070  18.073  0.00  0.00    +0.000 C 
ENDBRANCH  32  34
ENDBRANCH  31  32
ENDBRANCH  11  31
TORSDOF 9
ENDMDL
MODEL 2
REMARK VINA RESULT:      -8.2      3.862     11.684
REMARK  Name = 
REMARK  12 active torsions:
REMARK  status: ('A' for Active; 'I' for Inactive)
REMARK    1  A    between atoms: C_1  and  C_2
REMARK    2  A    between atoms: C_2  and  N_3
REMARK    3  A    between atoms: N_3  and  C_4
REMARK    4  A    between atoms: N_3  and  C_6
REMARK    5  A    between atoms: C_4  and  C_5
REMARK    6  A    between atoms: C_9  and  C_10
REMARK    7  A    between atoms: N_11  and  N_12
REMARK    8  A    between atoms: C_13  and  C_15
REMARK    9  A    between atoms: C_25  and  C_26
REMARK   10  A    between atoms: C_26  and  N_27
REMARK   11  A    between atoms: N_27  and  C_28
REMARK   12  A    between atoms: N_27  and  C_29
REMARK                            x       y       z     vdW  Elec       q    Type
REMARK                         _______ _______ _______ _____ _____    ______ ____
ROOT
ATOM      1  C   UNL     1      -0.761  11.316  21.943  0.00  0.00    +0.000 A 
ATOM      2  N   UNL     1      -1.014  10.876  23.221  0.00  0.00    +0.000 NA
ATOM      3  N   UNL     1      -2.118  11.468  23.662  0.00  0.00    +0.000 NA
ATOM      4  N   UNL     1      -2.554  12.360  22.725  0.00  0.00    +0.000 N 
ATOM      5  C   UNL     1      -3.710  13.174  22.907  0.00  0.00    +0.000 A 
ATOM      6  N   UNL     1      -3.900  14.265  22.159  0.00  0.00    +0.000 NA
ATOM      7  O   UNL     1      -5.157  14.728  22.521  0.00  0.00    +0.000 OA
ATOM      8  N   UNL     1      -5.722  13.923  23.499  0.00  0.00    +0.000 NA
ATOM      9  C   UNL     1      -4.818  12.975  23.751  0.00  0.00    +0.000 A 
ATOM     10  N   UNL     1      -5.027  11.966  24.615  0.00  0.00    +0.000 N 
ATOM     11  C   UNL     1      -1.747  12.234  21.593  0.00  0.00    +0.000 A 
ATOM     12  H   UNL     1      -5.854  11.994  25.201  0.00  0.00    +0.000 HD
ATOM     13  H   UNL     1      -4.265  11.397  24.970  0.00  0.00    +0.000 HD
ENDROOT
BRANCH   1  15
ATOM     14  N   UNL     1       0.090   9.684  20.375  0.00  0.00    +0.000 N 
ATOM     15  C   UNL     1       0.368  10.830  21.127  0.00  0.00    +0.000 C 
ATOM     16  O   UNL     1       1.463  11.389  21.134  0.00  0.00    +0.000 OA
ATOM     17  H   UNL     1      -0.822   9.249  20.454  0.00  0.00    +0.000 HD
BRANCH  14  19
ATOM     18  C   UNL     1       1.482   7.940  19.904  0.00  0.00    +0.000 C 
ATOM     19  N   UNL     1       1.055   9.123  19.570  0.00  0.00    +0.000 NA
BRANCH  18  23
ATOM     20  C   UNL     1       4.716   5.914  17.817  0.00  0.00    +0.000 A 
ATOM     21  C   UNL     1       4.120   7.081  17.307  0.00  0.00    +0.000 A 
ATOM     22  C   UNL     1       3.057   7.733  17.960  0.00  0.00    +0.000 A 
ATOM     23  C   UNL     1       2.551   7.226  19.152  0.00  0.00    +0.000 A 
ATOM     24  C   UNL     1       3.094   6.040  19.662  0.00  0.00    +0.000 A 
ATOM     25  C   UNL     1       4.157   5.394  18.996  0.00  0.00    +0.000 A 
BRANCH  20  26
ATOM     26  N   UNL     1       5.841   5.319  17.222  0.00  0.00    +0.000 N 
BRANCH  26  28
ATOM     27  C   UNL     1       7.739   6.459  18.393  0.00  0.00    +0.000 C 
ATOM     28  C   UNL     1       7.049   6.149  17.071  0.00  0.00    +0.000 C 
ENDBRANCH  26  28
BRANCH  26  29
ATOM     29  C   UNL     1       5.613   4.222  16.263  0.00  0.00    +0.000 C 
ATOM     30  C   UNL     1       5.681   4.668  14.807  0.00  0.00    +0.000 C 
ENDBRANCH  26  29
ENDBRANCH  20  26
ENDBRANCH  18  23
ENDBRANCH  14  19
ENDBRANCH   1  15
BRANCH  11  31
ATOM     31  C   UNL     1      -2.016  12.921  20.297  0.00  0.00    +0.000 C 
BRANCH  31  32
ATOM     32  N   UNL     1      -0.807  13.492  19.647  0.00  0.00    +0.000 NA
ATOM     33  C   UNL     1      -0.667  13.083  18.245  0.00  0.00    +0.000 C 
BRANCH  32  34
ATOM     34  C   UNL     1      -0.828  14.985  19.764  0.00  0.00    +0.000 C 
ATOM     35  C   UNL     1      -0.589  15.468  21.213  0.00  0.00    +0.000 C 
ATOM     36  C   UNL     1       0.807  15.092  21.703  0.00  0.00    +0.000 C 
ATOM     37  C   UNL     1       1.887  15.710  20.820  0.00  0.00    +0.000 C 
ATOM     38  C   UNL     1       1.661  15.467  19.328  0.00  0.00    +0.000 C 
ATOM     39  C   UNL     1       0.219  15.725  18.892  0.00  0.00    +0.000 C 
ENDBRANCH  32  34
ENDBRANCH  31  32
ENDBRANCH  11  31
TORSDOF 9
ENDMDL
MODEL 3
REMARK VINA RESULT:      -8.2      3.281     11.166
REMARK  Name = 
REMARK  12 active torsions:
REMARK  status: ('A' for Active; 'I' for Inactive)
REMARK    1  A    between atoms: C_1  and  C_2
REMARK    2  A    between atoms: C_2  and  N_3
REMARK    3  A    between atoms: N_3  and  C_4
REMARK    4  A    between atoms: N_3  and  C_6
REMARK    5  A    between atoms: C_4  and  C_5
REMARK    6  A    between atoms: C_9  and  C_10
REMARK    7  A    between atoms: N_11  and  N_12
REMARK    8  A    between atoms: C_13  and  C_15
REMARK    9  A    between atoms: C_25  and  C_26
REMARK   10  A    between atoms: C_26  and  N_27
REMARK   11  A    between atoms: N_27  and  C_28
REMARK   12  A    between atoms: N_27  and  C_29
REMARK                            x       y       z     vdW  Elec       q    Type
REMARK                         _______ _______ _______ _____ _____    ______ ____
ROOT
ATOM      1  C   UNL     1      -1.020  11.462  22.125  0.00  0.00    +0.000 A 
ATOM      2  N   UNL     1      -1.262  11.113  23.431  0.00  0.00    +0.000 NA
ATOM      3  N   UNL     1      -2.402  11.676  23.817  0.00  0.00    +0.000 NA
ATOM      4  N   UNL     1      -2.875  12.465  22.807  0.00  0.00    +0.000 N 
ATOM      5  C   UNL     1      -4.076  13.225  22.916  0.00  0.00    +0.000 A 
ATOM      6  N   UNL     1      -4.317  14.241  22.081  0.00  0.00    +0.000 NA
ATOM      7  O   UNL     1      -5.602  14.661  22.396  0.00  0.00    +0.000 OA
ATOM      8  N   UNL     1      -6.132  13.907  23.432  0.00  0.00    +0.000 NA
ATOM      9  C   UNL     1      -5.182  13.034  23.765  0.00  0.00    +0.000 A 
ATOM     10  N   UNL     1      -5.345  12.087  24.706  0.00  0.00    +0.000 N 
ATOM     11  C   UNL     1      -2.050  12.294  21.695  0.00  0.00    +0.000 A 
ATOM     12  H   UNL     1      -6.179  12.116  25.283  0.00  0.00    +0.000 HD
ATOM     13  H   UNL     1      -4.557  11.591  25.111  0.00  0.00    +0.000 HD
ENDROOT
BRANCH   1  15
ATOM     14  N   UNL     1       0.466   9.633  21.580  0.00  0.00    +0.000 N 
ATOM     15  C   UNL     1       0.144  10.976  21.358  0.00  0.00    +0.000 C 
ATOM     16  O   UNL     1       0.777  11.711  20.603  0.00  0.00    +0.000 OA
ATOM     17  H   UNL     1      -0.073   9.100  22.253  0.00  0.00    +0.000 HD
BRANCH  14  19
ATOM     18  C   UNL     1       1.248   8.219  19.971  0.00  0.00    +0.000 C 
ATOM     19  N   UNL     1       1.530   9.051  20.931  0.00  0.00    +0.000 NA
BRANCH  18  23
ATOM     20  C   UNL     1       4.416   6.130  17.846  0.00  0.00    +0.000 A 
ATOM     21  C   UNL     1       3.837   7.308  17.343  0.00  0.00    +0.000 A 
ATOM     22  C   UNL     1       2.795   7.981  18.008  0.00  0.00    +0.000 A 
ATOM     23  C   UNL     1       2.294   7.484  19.207  0.00  0.00    +0.000 A 
ATOM     24  C   UNL     1       2.819   6.288  19.710  0.00  0.00    +0.000 A 
ATOM     25  C   UNL     1       3.861   5.621  19.031  0.00  0.00    +0.000 A 
BRANCH  20  26
ATOM     26  N   UNL     1       5.522   5.512  17.238  0.00  0.00    +0.000 N 
BRANCH  26  28
ATOM     27  C   UNL     1       6.610   4.445  15.250  0.00  0.00    +0.000 C 
ATOM     28  C   UNL     1       5.317   4.909  15.909  0.00  0.00    +0.000 C 
ENDBRANCH  26  28
BRANCH  26  29
ATOM     29  C   UNL     1       6.566   4.950  18.115  0.00  0.00    +0.000 C 
ATOM     30  C   UNL     1       7.611   5.973  18.544  0.00  0.00    +0.000 C 
ENDBRANCH  26  29
ENDBRANCH  20  26
ENDBRANCH  18  23
ENDBRANCH  14  19
ENDBRANCH   1  15
BRANCH  11  31
ATOM     31  C   UNL     1      -2.342  12.859  20.346  0.00  0.00    +0.000 C 
BRANCH  31  32
ATOM     32  N   UNL     1      -3.112  11.949  19.458  0.00  0.00    +0.000 NA
ATOM     33  C   UNL     1      -4.564  12.093  19.616  0.00  0.00    +0.000 C 
BRANCH  32  34
ATOM     34  C   UNL     1      -2.709  12.173  18.033  0.00  0.00    +0.000 C 
ATOM     35  C   UNL     1      -1.222  11.835  17.779  0.00  0.00    +0.000 C 
ATOM     36  C   UNL     1      -0.944  10.350  17.998  0.00  0.00    +0.000 C 
ATOM     37  C   UNL     1      -1.787   9.486  17.064  0.00  0.00    +0.000 C 
ATOM     38  C   UNL     1      -3.271   9.853  17.076  0.00  0.00    +0.000 C 
ATOM     39  C   UNL     1      -3.514  11.360  16.988  0.00  0.00    +0.000 C 
ENDBRANCH  32  34
ENDBRANCH  31  32
ENDBRANCH  11  31
TORSDOF 9
ENDMDL
MODEL 4
REMARK VINA RESULT:      -8.2      3.269     11.080
REMARK  Name = 
REMARK  12 active torsions:
REMARK  status: ('A' for Active; 'I' for Inactive)
REMARK    1  A    between atoms: C_1  and  C_2
REMARK    2  A    between atoms: C_2  and  N_3
REMARK    3  A    between atoms: N_3  and  C_4
REMARK    4  A    between atoms: N_3  and  C_6
REMARK    5  A    between atoms: C_4  and  C_5
REMARK    6  A    between atoms: C_9  and  C_10
REMARK    7  A    between atoms: N_11  and  N_12
REMARK    8  A    between atoms: C_13  and  C_15
REMARK    9  A    between atoms: C_25  and  C_26
REMARK   10  A    between atoms: C_26  and  N_27
REMARK   11  A    between atoms: N_27  and  C_28
REMARK   12  A    between atoms: N_27  and  C_29
REMARK                            x       y       z     vdW  Elec       q    Type
REMARK                         _______ _______ _______ _____ _____    ______ ____
ROOT
ATOM      1  C   UNL     1      -0.798  11.286  22.039  0.00  0.00    +0.000 A 
ATOM      2  N   UNL     1      -1.063  10.911  23.334  0.00  0.00    +0.000 NA
ATOM      3  N   UNL     1      -2.187  11.502  23.726  0.00  0.00    +0.000 NA
ATOM      4  N   UNL     1      -2.626  12.331  22.733  0.00  0.00    +0.000 N 
ATOM      5  C   UNL     1      -3.802  13.128  22.852  0.00  0.00    +0.000 A 
ATOM      6  N   UNL     1      -4.002  14.172  22.042  0.00  0.00    +0.000 NA
ATOM      7  O   UNL     1      -5.275  14.626  22.358  0.00  0.00    +0.000 OA
ATOM      8  N   UNL     1      -5.839  13.863  23.370  0.00  0.00    +0.000 NA
ATOM      9  C   UNL     1      -4.920  12.951  23.688  0.00  0.00    +0.000 A 
ATOM     10  N   UNL     1      -5.122  11.987  24.603  0.00  0.00    +0.000 N 
ATOM     11  C   UNL     1      -1.797  12.162  21.623  0.00  0.00    +0.000 A 
ATOM     12  H   UNL     1      -5.959  12.028  25.174  0.00  0.00    +0.000 HD
ATOM     13  H   UNL     1      -4.354  11.454  25.001  0.00  0.00    +0.000 HD
ENDROOT
BRANCH   1  15
ATOM     14  N   UNL     1       0.673   9.440  21.510  0.00  0.00    +0.000 N 
ATOM     15  C   UNL     1       0.355  10.781  21.268  0.00  0.00    +0.000 C 
ATOM     16  O   UNL     1       0.984  11.500  20.495  0.00  0.00    +0.000 OA
ATOM     17  H   UNL     1       0.138   8.921  22.197  0.00  0.00    +0.000 HD
BRANCH  14  19
ATOM     18  C   UNL     1       1.433   8.010  19.905  0.00  0.00    +0.000 C 
ATOM     19  N   UNL     1       1.728   8.843  20.860  0.00  0.00    +0.000 NA
BRANCH  18  23
ATOM     20  C   UNL     1       4.568   5.873  17.778  0.00  0.00    +0.000 A 
ATOM     21  C   UNL     1       4.003   7.057  17.273  0.00  0.00    +0.000 A 
ATOM     22  C   UNL     1       2.971   7.745  17.939  0.00  0.00    +0.000 A 
ATOM     23  C   UNL     1       2.467   7.259  19.140  0.00  0.00    +0.000 A 
ATOM     24  C   UNL     1       2.977   6.057  19.645  0.00  0.00    +0.000 A 
ATOM     25  C   UNL     1       4.008   5.375  18.967  0.00  0.00    +0.000 A 
BRANCH  20  26
ATOM     26  N   UNL     1       5.664   5.239  17.170  0.00  0.00    +0.000 N 
BRANCH  26  28
ATOM     27  C   UNL     1       7.596   6.130  18.492  0.00  0.00    +0.000 C 
ATOM     28  C   UNL     1       6.938   5.978  17.126  0.00  0.00    +0.000 C 
ENDBRANCH  26  28
BRANCH  26  29
ATOM     29  C   UNL     1       5.386   4.247  16.114  0.00  0.00    +0.000 C 
ATOM     30  C   UNL     1       5.745   4.735  14.715  0.00  0.00    +0.000 C 
ENDBRANCH  26  29
ENDBRANCH  20  26
ENDBRANCH  18  23
ENDBRANCH  14  19
ENDBRANCH   1  15
BRANCH  11  31
ATOM     31  C   UNL     1      -2.059  12.770  20.287  0.00  0.00    +0.000 C 
BRANCH  31  32
ATOM     32  N   UNL     1      -2.886  11.927  19.385  0.00  0.00    +0.000 NA
ATOM     33  C   UNL     1      -4.325  12.174  19.534  0.00  0.00    +0.000 C 
BRANCH  32  34
ATOM     34  C   UNL     1      -2.457  12.134  17.965  0.00  0.00    +0.000 C 
ATOM     35  C   UNL     1      -1.009  11.659  17.709  0.00  0.00    +0.000 C 
ATOM     36  C   UNL     1      -0.874  10.151  17.906  0.00  0.00    +0.000 C 
ATOM     37  C   UNL     1      -1.792   9.387  16.955  0.00  0.00    +0.000 C 
ATOM     38  C   UNL     1      -3.234   9.894  16.969  0.00  0.00    +0.000 C 
ATOM     39  C   UNL     1      -3.332  11.418  16.905  0.00  0.00    +0.000 C 
ENDBRANCH  32  34
ENDBRANCH  31  32
ENDBRANCH  11  31
TORSDOF 9
ENDMDL
MODEL 5
REMARK VINA RESULT:      -8.1      0.838      1.751
REMARK  Name = 
REMARK  12 active torsions:
REMARK  status: ('A' for Active; 'I' for Inactive)
REMARK    1  A    between atoms: C_1  and  C_2
REMARK    2  A    between atoms: C_2  and  N_3
REMARK    3  A    between atoms: N_3  and  C_4
REMARK    4  A    between atoms: N_3  and  C_6
REMARK    5  A    between atoms: C_4  and  C_5
REMARK    6  A    between atoms: C_9  and  C_10
REMARK    7  A    between atoms: N_11  and  N_12
REMARK    8  A    between atoms: C_13  and  C_15
REMARK    9  A    between atoms: C_25  and  C_26
REMARK   10  A    between atoms: C_26  and  N_27
REMARK   11  A    between atoms: N_27  and  C_28
REMARK   12  A    between atoms: N_27  and  C_29
REMARK                            x       y       z     vdW  Elec       q    Type
REMARK                         _______ _______ _______ _____ _____    ______ ____
ROOT
ATOM      1  C   UNL     1       3.493   7.431  17.863  0.00  0.00    +0.000 A 
ATOM      2  N   UNL     1       3.837   7.826  16.593  0.00  0.00    +0.000 NA
ATOM      3  N   UNL     1       4.904   7.136  16.207  0.00  0.00    +0.000 NA
ATOM      4  N   UNL     1       5.324   6.347  17.239  0.00  0.00    +0.000 N 
ATOM      5  C   UNL     1       6.463   5.495  17.151  0.00  0.00    +0.000 A 
ATOM      6  N   UNL     1       7.052   5.027  18.256  0.00  0.00    +0.000 NA
ATOM      7  O   UNL     1       8.029   4.156  17.795  0.00  0.00    +0.000 OA
ATOM      8  N   UNL     1       8.039   4.108  16.409  0.00  0.00    +0.000 NA
ATOM      9  C   UNL     1       7.086   4.951  16.012  0.00  0.00    +0.000 A 
ATOM     10  N   UNL     1       6.756   5.139  14.722  0.00  0.00    +0.000 N 
ATOM     11  C   UNL     1       4.404   6.466  18.283  0.00  0.00    +0.000 A 
ATOM     12  H   UNL     1       7.341   4.722  14.007  0.00  0.00    +0.000 HD
ATOM     13  H   UNL     1       6.205   5.937  14.420  0.00  0.00    +0.000 HD
ENDROOT
BRANCH   1  15
ATOM     14  N   UNL     1       1.511   8.816  17.837  0.00  0.00    +0.000 N 
ATOM     15  C   UNL     1       2.324   7.962  18.590  0.00  0.00    +0.000 C 
ATOM     16  O   UNL     1       2.107   7.681  19.767  0.00  0.00    +0.000 OA
ATOM     17  H   UNL     1       1.777   9.040  16.885  0.00  0.00    +0.000 HD
BRANCH  14  19
ATOM     18  C   UNL     1      -0.538   9.781  17.569  0.00  0.00    +0.000 C 
ATOM     19  N   UNL     1       0.388   9.384  18.392  0.00  0.00    +0.000 NA
BRANCH  18  23
ATOM     20  C   UNL     1      -4.186  11.828  18.758  0.00  0.00    +0.000 A 
ATOM     21  C   UNL     1      -2.955  12.082  19.386  0.00  0.00    +0.000 A 
ATOM     22  C   UNL     1      -1.772  11.409  19.028  0.00  0.00    +0.000 A 
ATOM     23  C   UNL     1      -1.790  10.449  18.022  0.00  0.00    +0.000 A 
ATOM     24  C   UNL     1      -3.010  10.142  17.408  0.00  0.00    +0.000 A 
ATOM     25  C   UNL     1      -4.190  10.820  17.779  0.00  0.00    +0.000 A 
BRANCH  20  26
ATOM     26  N   UNL     1      -5.346  12.568  19.043  0.00  0.00    +0.000 N 
BRANCH  26  28
ATOM     27  C   UNL     1      -5.642  13.779  21.215  0.00  0.00    +0.000 C 
ATOM     28  C   UNL     1      -5.874  12.502  20.417  0.00  0.00    +0.000 C 
ENDBRANCH  26  28
BRANCH  26  29
ATOM     29  C   UNL     1      -6.288  12.825  17.937  0.00  0.00    +0.000 C 
ATOM     30  C   UNL     1      -7.704  13.137  18.408  0.00  0.00    +0.000 C 
ENDBRANCH  26  29
ENDBRANCH  20  26
ENDBRANCH  18  23
ENDBRANCH  14  19
ENDBRANCH   1  15
BRANCH  11  31
ATOM     31  C   UNL     1       4.430   5.627  19.516  0.00  0.00    +0.000 C 
BRANCH  31  32
ATOM     32  N   UNL     1       3.823   4.280  19.349  0.00  0.00    +0.000 NA
ATOM     33  C   UNL     1       4.739   3.193  19.716  0.00  0.00    +0.000 C 
BRANCH  32  34
ATOM     34  C   UNL     1       2.556   4.195  20.142  0.00  0.00    +0.000 C 
ATOM     35  C   UNL     1       1.318   4.638  19.329  0.00  0.00    +0.000 C 
ATOM     36  C   UNL     1       1.064   3.703  18.149  0.00  0.00    +0.000 C 
ATOM     37  C   UNL     1       0.826   2.271  18.622  0.00  0.00    +0.000 C 
ATOM     38  C   UNL     1       1.890   1.772  19.598  0.00  0.00    +0.000 C 
ATOM     39  C   UNL     1       2.220   2.786  20.693  0.00  0.00    +0.000 C 
ENDBRANCH  32  34
ENDBRANCH  31  32
ENDBRANCH  11  31
TORSDOF 9
ENDMDL
MODEL 6
REMARK VINA RESULT:      -8.0      2.065      2.473
REMARK  Name = 
REMARK  12 active torsions:
REMARK  status: ('A' for Active; 'I' for Inactive)
REMARK    1  A    between atoms: C_1  and  C_2
REMARK    2  A    between atoms: C_2  and  N_3
REMARK    3  A    between atoms: N_3  and  C_4
REMARK    4  A    between atoms: N_3  and  C_6
REMARK    5  A    between atoms: C_4  and  C_5
REMARK    6  A    between atoms: C_9  and  C_10
REMARK    7  A    between atoms: N_11  and  N_12
REMARK    8  A    between atoms: C_13  and  C_15
REMARK    9  A    between atoms: C_25  and  C_26
REMARK   10  A    between atoms: C_26  and  N_27
REMARK   11  A    between atoms: N_27  and  C_28
REMARK   12  A    between atoms: N_27  and  C_29
REMARK                            x       y       z     vdW  Elec       q    Type
REMARK                         _______ _______ _______ _____ _____    ______ ____
ROOT
ATOM      1  C   UNL     1       3.349   7.487  17.723  0.00  0.00    +0.000 A 
ATOM      2  N   UNL     1       3.838   7.784  16.473  0.00  0.00    +0.000 NA
ATOM      3  N   UNL     1       4.962   7.103  16.285  0.00  0.00    +0.000 NA
ATOM      4  N   UNL     1       5.271   6.422  17.428  0.00  0.00    +0.000 N 
ATOM      5  C   UNL     1       6.435   5.609  17.556  0.00  0.00    +0.000 A 
ATOM      6  N   UNL     1       6.892   5.260  18.762  0.00  0.00    +0.000 NA
ATOM      7  O   UNL     1       7.942   4.389  18.504  0.00  0.00    +0.000 OA
ATOM      8  N   UNL     1       8.127   4.223  17.140  0.00  0.00    +0.000 NA
ATOM      9  C   UNL     1       7.209   4.993  16.556  0.00  0.00    +0.000 A 
ATOM     10  N   UNL     1       7.038   5.057  15.223  0.00  0.00    +0.000 N 
ATOM     11  C   UNL     1       4.225   6.596  18.336  0.00  0.00    +0.000 A 
ATOM     12  H   UNL     1       7.719   4.602  14.625  0.00  0.00    +0.000 HD
ATOM     13  H   UNL     1       6.508   5.804  14.785  0.00  0.00    +0.000 HD
ENDROOT
BRANCH   1  15
ATOM     14  N   UNL     1       2.158   8.502  19.566  0.00  0.00    +0.000 N 
ATOM     15  C   UNL     1       2.084   8.035  18.250  0.00  0.00    +0.000 C 
ATOM     16  O   UNL     1       1.054   8.053  17.579  0.00  0.00    +0.000 OA
ATOM     17  H   UNL     1       3.029   8.413  20.075  0.00  0.00    +0.000 HD
BRANCH  14  19
ATOM     18  C   UNL     1       0.886  10.324  20.083  0.00  0.00    +0.000 C 
ATOM     19  N   UNL     1       1.050   9.037  20.182  0.00  0.00    +0.000 NA
BRANCH  18  23
ATOM     20  C   UNL     1      -2.494  12.290  21.987  0.00  0.00    +0.000 A 
ATOM     21  C   UNL     1      -2.249  12.406  20.607  0.00  0.00    +0.000 A 
ATOM     22  C   UNL     1      -1.145  11.795  19.983  0.00  0.00    +0.000 A 
ATOM     23  C   UNL     1      -0.243  11.047  20.731  0.00  0.00    +0.000 A 
ATOM     24  C   UNL     1      -0.435  10.951  22.114  0.00  0.00    +0.000 A 
ATOM     25  C   UNL     1      -1.542  11.571  22.729  0.00  0.00    +0.000 A 
BRANCH  20  26
ATOM     26  N   UNL     1      -3.646  12.814  22.596  0.00  0.00    +0.000 N 
BRANCH  26  28
ATOM     27  C   UNL     1      -4.661  15.042  22.068  0.00  0.00    +0.000 C 
ATOM     28  C   UNL     1      -4.590  13.556  21.741  0.00  0.00    +0.000 C 
ENDBRANCH  26  28
BRANCH  26  29
ATOM     29  C   UNL     1      -3.573  13.157  24.029  0.00  0.00    +0.000 C 
ATOM     30  C   UNL     1      -4.548  12.365  24.892  0.00  0.00    +0.000 C 
ENDBRANCH  26  29
ENDBRANCH  20  26
ENDBRANCH  18  23
ENDBRANCH  14  19
ENDBRANCH   1  15
BRANCH  11  31
ATOM     31  C   UNL     1       4.119   5.868  19.633  0.00  0.00    +0.000 C 
BRANCH  31  32
ATOM     32  N   UNL     1       3.123   4.764  19.632  0.00  0.00    +0.000 NA
ATOM     33  C   UNL     1       1.877   5.120  20.322  0.00  0.00    +0.000 C 
BRANCH  32  34
ATOM     34  C   UNL     1       2.845   4.337  18.224  0.00  0.00    +0.000 C 
ATOM     35  C   UNL     1       3.705   3.127  17.792  0.00  0.00    +0.000 C 
ATOM     36  C   UNL     1       3.372   1.885  18.615  0.00  0.00    +0.000 C 
ATOM     37  C   UNL     1       1.905   1.496  18.456  0.00  0.00    +0.000 C 
ATOM     38  C   UNL     1       0.943   2.664  18.670  0.00  0.00    +0.000 C 
ATOM     39  C   UNL     1       1.375   3.935  17.939  0.00  0.00    +0.000 C 
ENDBRANCH  32  34
ENDBRANCH  31  32
ENDBRANCH  11  31
TORSDOF 9
ENDMDL
MODEL 7
REMARK VINA RESULT:      -8.0      3.947     11.828
REMARK  Name = 
REMARK  12 active torsions:
REMARK  status: ('A' for Active; 'I' for Inactive)
REMARK    1  A    between atoms: C_1  and  C_2
REMARK    2  A    between atoms: C_2  and  N_3
REMARK    3  A    between atoms: N_3  and  C_4
REMARK    4  A    between atoms: N_3  and  C_6
REMARK    5  A    between atoms: C_4  and  C_5
REMARK    6  A    between atoms: C_9  and  C_10
REMARK    7  A    between atoms: N_11  and  N_12
REMARK    8  A    between atoms: C_13  and  C_15
REMARK    9  A    between atoms: C_25  and  C_26
REMARK   10  A    between atoms: C_26  and  N_27
REMARK   11  A    between atoms: N_27  and  C_28
REMARK   12  A    between atoms: N_27  and  C_29
REMARK                            x       y       z     vdW  Elec       q    Type
REMARK                         _______ _______ _______ _____ _____    ______ ____
ROOT
ATOM      1  C   UNL     1      -0.776  11.564  21.934  0.00  0.00    +0.000 A 
ATOM      2  N   UNL     1      -1.039  11.122  23.208  0.00  0.00    +0.000 NA
ATOM      3  N   UNL     1      -2.147  11.712  23.643  0.00  0.00    +0.000 NA
ATOM      4  N   UNL     1      -2.575  12.606  22.703  0.00  0.00    +0.000 N 
ATOM      5  C   UNL     1      -3.733  13.420  22.878  0.00  0.00    +0.000 A 
ATOM      6  N   UNL     1      -3.917  14.512  22.131  0.00  0.00    +0.000 NA
ATOM      7  O   UNL     1      -5.177  14.974  22.485  0.00  0.00    +0.000 OA
ATOM      8  N   UNL     1      -5.749  14.167  23.456  0.00  0.00    +0.000 NA
ATOM      9  C   UNL     1      -4.848  13.219  23.713  0.00  0.00    +0.000 A 
ATOM     10  N   UNL     1      -5.064  12.208  24.573  0.00  0.00    +0.000 N 
ATOM     11  C   UNL     1      -1.759  12.484  21.578  0.00  0.00    +0.000 A 
ATOM     12  H   UNL     1      -5.895  12.234  25.153  0.00  0.00    +0.000 HD
ATOM     13  H   UNL     1      -4.304  11.638  24.932  0.00  0.00    +0.000 HD
ENDROOT
BRANCH   1  15
ATOM     14  N   UNL     1       0.152   9.838  20.517  0.00  0.00    +0.000 N 
ATOM     15  C   UNL     1       0.360  11.080  21.125  0.00  0.00    +0.000 C 
ATOM     16  O   UNL     1       1.403  11.722  21.021  0.00  0.00    +0.000 OA
ATOM     17  H   UNL     1      -0.717   9.343  20.686  0.00  0.00    +0.000 HD
BRANCH  14  19
ATOM     18  C   UNL     1       1.369   8.002  19.925  0.00  0.00    +0.000 C 
ATOM     19  N   UNL     1       1.131   9.268  19.737  0.00  0.00    +0.000 NA
BRANCH  18  23
ATOM     20  C   UNL     1       4.568   5.893  17.867  0.00  0.00    +0.000 A 
ATOM     21  C   UNL     1       4.010   7.077  17.354  0.00  0.00    +0.000 A 
ATOM     22  C   UNL     1       2.959   7.757  17.997  0.00  0.00    +0.000 A 
ATOM     23  C   UNL     1       2.426   7.261  19.183  0.00  0.00    +0.000 A 
ATOM     24  C   UNL     1       2.930   6.059  19.695  0.00  0.00    +0.000 A 
ATOM     25  C   UNL     1       3.982   5.386  19.039  0.00  0.00    +0.000 A 
BRANCH  20  26
ATOM     26  N   UNL     1       5.682   5.268  17.283  0.00  0.00    +0.000 N 
BRANCH  26  28
ATOM     27  C   UNL     1       6.646   4.287  15.190  0.00  0.00    +0.000 C 
ATOM     28  C   UNL     1       5.441   4.403  16.114  0.00  0.00    +0.000 C 
ENDBRANCH  26  28
BRANCH  26  29
ATOM     29  C   UNL     1       6.842   4.979  18.148  0.00  0.00    +0.000 C 
ATOM     30  C   UNL     1       7.669   6.215  18.484  0.00  0.00    +0.000 C 
ENDBRANCH  26  29
ENDBRANCH  20  26
ENDBRANCH  18  23
ENDBRANCH  14  19
ENDBRANCH   1  15
BRANCH  11  31
ATOM     31  C   UNL     1      -2.019  13.174  20.281  0.00  0.00    +0.000 C 
BRANCH  31  32
ATOM     32  N   UNL     1      -0.814  13.797  19.672  0.00  0.00    +0.000 NA
ATOM     33  C   UNL     1      -0.554  13.319  18.308  0.00  0.00    +0.000 C 
BRANCH  32  34
ATOM     34  C   UNL     1      -0.951  15.287  19.694  0.00  0.00    +0.000 C 
ATOM     35  C   UNL     1      -0.723  15.882  21.102  0.00  0.00    +0.000 C 
ATOM     36  C   UNL     1       0.708  15.648  21.580  0.00  0.00    +0.000 C 
ATOM     37  C   UNL     1       1.718  16.290  20.632  0.00  0.00    +0.000 C 
ATOM     38  C   UNL     1       1.482  15.932  19.165  0.00  0.00    +0.000 C 
ATOM     39  C   UNL     1       0.015  16.049  18.750  0.00  0.00    +0.000 C 
ENDBRANCH  32  34
ENDBRANCH  31  32
ENDBRANCH  11  31
TORSDOF 9
ENDMDL
MODEL 8
REMARK VINA RESULT:      -8.0      0.429      1.115
REMARK  Name = 
REMARK  12 active torsions:
REMARK  status: ('A' for Active; 'I' for Inactive)
REMARK    1  A    between atoms: C_1  and  C_2
REMARK    2  A    between atoms: C_2  and  N_3
REMARK    3  A    between atoms: N_3  and  C_4
REMARK    4  A    between atoms: N_3  and  C_6
REMARK    5  A    between atoms: C_4  and  C_5
REMARK    6  A    between atoms: C_9  and  C_10
REMARK    7  A    between atoms: N_11  and  N_12
REMARK    8  A    between atoms: C_13  and  C_15
REMARK    9  A    between atoms: C_25  and  C_26
REMARK   10  A    between atoms: C_26  and  N_27
REMARK   11  A    between atoms: N_27  and  C_28
REMARK   12  A    between atoms: N_27  and  C_29
REMARK                            x       y       z     vdW  Elec       q    Type
REMARK                         _______ _______ _______ _____ _____    ______ ____
ROOT
ATOM      1  C   UNL     1       3.355   7.491  17.769  0.00  0.00    +0.000 A 
ATOM      2  N   UNL     1       3.747   7.718  16.472  0.00  0.00    +0.000 NA
ATOM      3  N   UNL     1       4.835   6.996  16.225  0.00  0.00    +0.000 NA
ATOM      4  N   UNL     1       5.218   6.358  17.370  0.00  0.00    +0.000 N 
ATOM      5  C   UNL     1       6.368   5.518  17.442  0.00  0.00    +0.000 A 
ATOM      6  N   UNL     1       6.914   5.209  18.622  0.00  0.00    +0.000 NA
ATOM      7  O   UNL     1       7.916   4.298  18.322  0.00  0.00    +0.000 OA
ATOM      8  N   UNL     1       7.984   4.065  16.957  0.00  0.00    +0.000 NA
ATOM      9  C   UNL     1       7.041   4.835  16.413  0.00  0.00    +0.000 A 
ATOM     10  N   UNL     1       6.763   4.845  15.097  0.00  0.00    +0.000 N 
ATOM     11  C   UNL     1       4.256   6.603  18.351  0.00  0.00    +0.000 A 
ATOM     12  H   UNL     1       7.381   4.344  14.467  0.00  0.00    +0.000 HD
ATOM     13  H   UNL     1       6.219   5.587  14.668  0.00  0.00    +0.000 HD
ENDROOT
BRANCH   1  15
ATOM     14  N   UNL     1       1.764   9.312  17.793  0.00  0.00    +0.000 N 
ATOM     15  C   UNL     1       2.152   8.099  18.371  0.00  0.00    +0.000 C 
ATOM     16  O   UNL     1       1.563   7.575  19.315  0.00  0.00    +0.000 OA
ATOM     17  H   UNL     1       2.325   9.707  17.048  0.00  0.00    +0.000 HD
BRANCH  14  19
ATOM     18  C   UNL     1      -0.442   9.852  17.580  0.00  0.00    +0.000 C 
ATOM     19  N   UNL     1       0.660   9.987  18.260  0.00  0.00    +0.000 NA
BRANCH  18  23
ATOM     20  C   UNL     1      -4.133  11.817  18.777  0.00  0.00    +0.000 A 
ATOM     21  C   UNL     1      -4.115  10.801  17.805  0.00  0.00    +0.000 A 
ATOM     22  C   UNL     1      -2.924  10.174  17.391  0.00  0.00    +0.000 A 
ATOM     23  C   UNL     1      -1.705  10.554  17.941  0.00  0.00    +0.000 A 
ATOM     24  C   UNL     1      -1.685  11.594  18.878  0.00  0.00    +0.000 A 
ATOM     25  C   UNL     1      -2.884  12.218  19.282  0.00  0.00    +0.000 A 
BRANCH  20  26
ATOM     26  N   UNL     1      -5.326  12.374  19.265  0.00  0.00    +0.000 N 
BRANCH  26  28
ATOM     27  C   UNL     1      -5.903  12.492  21.700  0.00  0.00    +0.000 C 
ATOM     28  C   UNL     1      -5.977  11.698  20.402  0.00  0.00    +0.000 C 
ENDBRANCH  26  28
BRANCH  26  29
ATOM     29  C   UNL     1      -6.166  13.137  18.323  0.00  0.00    +0.000 C 
ATOM     30  C   UNL     1      -7.615  12.666  18.285  0.00  0.00    +0.000 C 
ENDBRANCH  26  29
ENDBRANCH  20  26
ENDBRANCH  18  23
ENDBRANCH  14  19
ENDBRANCH   1  15
BRANCH  11  31
ATOM     31  C   UNL     1       4.237   5.937  19.685  0.00  0.00    +0.000 C 
BRANCH  31  32
ATOM     32  N   UNL     1       3.465   4.667  19.721  0.00  0.00    +0.000 NA
ATOM     33  C   UNL     1       2.358   4.701  20.685  0.00  0.00    +0.000 C 
BRANCH  32  34
ATOM     34  C   UNL     1       2.962   4.343  18.349  0.00  0.00    +0.000 C 
ATOM     35  C   UNL     1       3.654   3.101  17.743  0.00  0.00    +0.000 C 
ATOM     36  C   UNL     1       3.338   1.841  18.546  0.00  0.00    +0.000 C 
ATOM     37  C   UNL     1       1.836   1.570  18.579  0.00  0.00    +0.000 C 
ATOM     38  C   UNL     1       1.010   2.792  18.981  0.00  0.00    +0.000 C 
ATOM     39  C   UNL     1       1.439   4.067  18.257  0.00  0.00    +0.000 C 
ENDBRANCH  32  34
ENDBRANCH  31  32
ENDBRANCH  11  31
TORSDOF 9
ENDMDL
MODEL 9
REMARK VINA RESULT:      -7.9      3.841     11.700
REMARK  Name = 
REMARK  12 active torsions:
REMARK  status: ('A' for Active; 'I' for Inactive)
REMARK    1  A    between atoms: C_1  and  C_2
REMARK    2  A    between atoms: C_2  and  N_3
REMARK    3  A    between atoms: N_3  and  C_4
REMARK    4  A    between atoms: N_3  and  C_6
REMARK    5  A    between atoms: C_4  and  C_5
REMARK    6  A    between atoms: C_9  and  C_10
REMARK    7  A    between atoms: N_11  and  N_12
REMARK    8  A    between atoms: C_13  and  C_15
REMARK    9  A    between atoms: C_25  and  C_26
REMARK   10  A    between atoms: C_26  and  N_27
REMARK   11  A    between atoms: N_27  and  C_28
REMARK   12  A    between atoms: N_27  and  C_29
REMARK                            x       y       z     vdW  Elec       q    Type
REMARK                         _______ _______ _______ _____ _____    ______ ____
ROOT
ATOM      1  C   UNL     1      -1.318  12.273  21.755  0.00  0.00    +0.000 A 
ATOM      2  N   UNL     1      -0.724  12.370  22.990  0.00  0.00    +0.000 NA
ATOM      3  N   UNL     1      -1.320  13.342  23.672  0.00  0.00    +0.000 NA
ATOM      4  N   UNL     1      -2.246  13.947  22.873  0.00  0.00    +0.000 N 
ATOM      5  C   UNL     1      -3.045  15.046  23.306  0.00  0.00    +0.000 A 
ATOM      6  N   UNL     1      -3.661  15.832  22.418  0.00  0.00    +0.000 NA
ATOM      7  O   UNL     1      -4.426  16.700  23.185  0.00  0.00    +0.000 OA
ATOM      8  N   UNL     1      -4.261  16.447  24.538  0.00  0.00    +0.000 NA
ATOM      9  C   UNL     1      -3.392  15.439  24.612  0.00  0.00    +0.000 A 
ATOM     10  N   UNL     1      -3.016  14.870  25.771  0.00  0.00    +0.000 N 
ATOM     11  C   UNL     1      -2.313  13.244  21.670  0.00  0.00    +0.000 A 
ATOM     12  H   UNL     1      -3.303  15.307  26.640  0.00  0.00    +0.000 HD
ATOM     13  H   UNL     1      -2.196  14.275  25.837  0.00  0.00    +0.000 HD
ENDROOT
BRANCH   1  15
ATOM     14  N   UNL     1       0.066  10.381  21.162  0.00  0.00    +0.000 N 
ATOM     15  C   UNL     1      -0.935  11.265  20.747  0.00  0.00    +0.000 C 
ATOM     16  O   UNL     1      -1.452  11.232  19.632  0.00  0.00    +0.000 OA
ATOM     17  H   UNL     1       0.479  10.497  22.080  0.00  0.00    +0.000 HD
BRANCH  14  19
ATOM     18  C   UNL     1       1.264   8.466  20.850  0.00  0.00    +0.000 C 
ATOM     19  N   UNL     1       0.520   9.392  20.320  0.00  0.00    +0.000 NA
BRANCH  18  23
ATOM     20  C   UNL     1       3.135   5.228  18.628  0.00  0.00    +0.000 A 
ATOM     21  C   UNL     1       3.080   6.539  18.123  0.00  0.00    +0.000 A 
ATOM     22  C   UNL     1       2.456   7.591  18.821  0.00  0.00    +0.000 A 
ATOM     23  C   UNL     1       1.859   7.356  20.055  0.00  0.00    +0.000 A 
ATOM     24  C   UNL     1       1.859   6.051  20.563  0.00  0.00    +0.000 A 
ATOM     25  C   UNL     1       2.483   5.005  19.852  0.00  0.00    +0.000 A 
BRANCH  20  26
ATOM     26  N   UNL     1       3.842   4.200  17.984  0.00  0.00    +0.000 N 
BRANCH  26  28
ATOM     27  C   UNL     1       5.131   4.292  15.838  0.00  0.00    +0.000 C 
ATOM     28  C   UNL     1       5.119   4.554  17.338  0.00  0.00    +0.000 C 
ENDBRANCH  26  28
BRANCH  26  29
ATOM     29  C   UNL     1       3.069   3.066  17.444  0.00  0.00    +0.000 C 
ATOM     30  C   UNL     1       3.325   1.754  18.178  0.00  0.00    +0.000 C 
ENDBRANCH  26  29
ENDBRANCH  20  26
ENDBRANCH  18  23
ENDBRANCH  14  19
ENDBRANCH   1  15
BRANCH  11  31
ATOM     31  C   UNL     1      -3.330  13.500  20.609  0.00  0.00    +0.000 C 
BRANCH  31  32
ATOM     32  N   UNL     1      -4.511  12.600  20.668  0.00  0.00    +0.000 NA
ATOM     33  C   UNL     1      -5.161  12.599  21.984  0.00  0.00    +0.000 C 
BRANCH  32  34
ATOM     34  C   UNL     1      -5.487  12.977  19.596  0.00  0.00    +0.000 C 
ATOM     35  C   UNL     1      -5.162  12.312  18.240  0.00  0.00    +0.000 C 
ATOM     36  C   UNL     1      -5.289  10.792  18.320  0.00  0.00    +0.000 C 
ATOM     37  C   UNL     1      -6.703  10.378  18.717  0.00  0.00    +0.000 C 
ATOM     38  C   UNL     1      -7.226  11.115  19.950  0.00  0.00    +0.000 C 
ATOM     39  C   UNL     1      -6.965  12.620  19.900  0.00  0.00    +0.000 C 
ENDBRANCH  32  34
ENDBRANCH  31  32
ENDBRANCH  11  31
TORSDOF 9
ENDMDL
