MODEL 1
REMARK VINA RESULT:      -4.6      0.000      0.000
REMARK  Name = 
REMARK  12 active torsions:
REMARK  status: ('A' for Active; 'I' for Inactive)
REMARK    1  A    between atoms: C_1  and  N_2
REMARK    2  A    between atoms: N_2  and  C_3
REMARK    3  A    between atoms: N_2  and  C_4
REMARK    4  A    between atoms: C_4  and  C_5
REMARK    5  A    between atoms: C_5  and  O_6
REMARK    6  A    between atoms: O_6  and  C_7
REMARK    7  A    between atoms: C_7  and  O_9
REMARK    8  A    between atoms: O_9  and  C_10
REMARK    9  A    between atoms: C_10  and  C_11
REMARK   10  A    between atoms: C_11  and  N_12
REMARK   11  A    between atoms: N_12  and  C_13
REMARK   12  A    between atoms: N_12  and  C_14
REMARK                            x       y       z     vdW  Elec       q    Type
REMARK                         _______ _______ _______ _____ _____    ______ ____
ROOT
ATOM      1  C   UNL     1       5.312   4.773  19.267  0.00  0.00    +0.000 C 
ATOM      2  S   UNL     1       4.029   5.835  19.300  0.00  0.00    +0.000 S 
ENDROOT
BRANCH   1   3
ATOM      3  O   UNL     1       6.626   5.125  19.340  0.00  0.00    +0.000 OA
BRANCH   3   4
ATOM      4  C   UNL     1       7.460   5.048  18.162  0.00  0.00    +0.000 C 
BRANCH   4   5
ATOM      5  C   UNL     1       7.221   6.246  17.232  0.00  0.00    +0.000 C 
BRANCH   5   7
ATOM      6  C   UNL     1       6.722   4.399  15.759  0.00  0.00    +0.000 C 
ATOM      7  N   UNL     1       6.671   5.853  15.919  0.00  0.00    +0.000 NA
ATOM      8  C   UNL     1       5.301   6.325  15.713  0.00  0.00    +0.000 C 
ENDBRANCH   5   7
ENDBRANCH   4   5
ENDBRANCH   3   4
ENDBRANCH   1   3
BRANCH   1   9
ATOM      9  O   UNL     1       5.202   3.421  19.153  0.00  0.00    +0.000 OA
BRANCH   9  10
ATOM     10  C   UNL     1       4.064   2.846  18.470  0.00  0.00    +0.000 C 
BRANCH  10  11
ATOM     11  C   UNL     1       3.157   2.108  19.463  0.00  0.00    +0.000 C 
BRANCH  11  12
ATOM     12  N   UNL     1       1.915   2.848  19.767  0.00  0.00    +0.000 NA
ATOM     13  C   UNL     1       0.811   2.453  18.890  0.00  0.00    +0.000 C 
ATOM     14  C   UNL     1       1.529   2.647  21.166  0.00  0.00    +0.000 C 
ENDBRANCH  11  12
ENDBRANCH  10  11
ENDBRANCH   9  10
ENDBRANCH   1   9
TORSDOF 8
ENDMDL
MODEL 2
REMARK VINA RESULT:      -4.3      1.775      5.790
REMARK  Name = 
REMARK  12 active torsions:
REMARK  status: ('A' for Active; 'I' for Inactive)
REMARK    1  A    between atoms: C_1  and  N_2
REMARK    2  A    between atoms: N_2  and  C_3
REMARK    3  A    between atoms: N_2  and  C_4
REMARK    4  A    between atoms: C_4  and  C_5
REMARK    5  A    between atoms: C_5  and  O_6
REMARK    6  A    between atoms: O_6  and  C_7
REMARK    7  A    between atoms: C_7  and  O_9
REMARK    8  A    between atoms: O_9  and  C_10
REMARK    9  A    between atoms: C_10  and  C_11
REMARK   10  A    between atoms: C_11  and  N_12
REMARK   11  A    between atoms: N_12  and  C_13
REMARK   12  A    between atoms: N_12  and  C_14
REMARK                            x       y       z     vdW  Elec       q    Type
REMARK                         _______ _______ _______ _____ _____    ______ ____
ROOT
ATOM      1  C   UNL     1       3.764   4.386  17.320  0.00  0.00    +0.000 C 
ATOM      2  S   UNL     1       3.586   5.936  17.902  0.00  0.00    +0.000 S 
ENDROOT
BRANCH   1   3
ATOM      3  O   UNL     1       2.791   3.431  17.315  0.00  0.00    +0.000 OA
BRANCH   3   4
ATOM      4  C   UNL     1       1.580   3.631  18.079  0.00  0.00    +0.000 C 
BRANCH   4   5
ATOM      5  C   UNL     1       1.414   2.545  19.151  0.00  0.00    +0.000 C 
BRANCH   5   7
ATOM      6  C   UNL     1       2.554   2.714  21.273  0.00  0.00    +0.000 C 
ATOM      7  N   UNL     1       1.358   3.095  20.521  0.00  0.00    +0.000 NA
ATOM      8  C   UNL     1       1.204   4.551  20.543  0.00  0.00    +0.000 C 
ENDBRANCH   5   7
ENDBRANCH   4   5
ENDBRANCH   3   4
ENDBRANCH   1   3
BRANCH   1   9
ATOM      9  O   UNL     1       4.909   3.880  16.786  0.00  0.00    +0.000 OA
BRANCH   9  10
ATOM     10  C   UNL     1       5.946   4.778  16.325  0.00  0.00    +0.000 C 
BRANCH  10  11
ATOM     11  C   UNL     1       7.249   4.535  17.097  0.00  0.00    +0.000 C 
BRANCH  11  12
ATOM     12  N   UNL     1       7.693   5.720  17.862  0.00  0.00    +0.000 NA
ATOM     13  C   UNL     1       7.216   6.969  17.266  0.00  0.00    +0.000 C 
ATOM     14  C   UNL     1       7.236   5.631  19.251  0.00  0.00    +0.000 C 
ENDBRANCH  11  12
ENDBRANCH  10  11
ENDBRANCH   9  10
ENDBRANCH   1   9
TORSDOF 8
ENDMDL
MODEL 3
REMARK VINA RESULT:      -4.3      2.078      2.860
REMARK  Name = 
REMARK  12 active torsions:
REMARK  status: ('A' for Active; 'I' for Inactive)
REMARK    1  A    between atoms: C_1  and  N_2
REMARK    2  A    between atoms: N_2  and  C_3
REMARK    3  A    between atoms: N_2  and  C_4
REMARK    4  A    between atoms: C_4  and  C_5
REMARK    5  A    between atoms: C_5  and  O_6
REMARK    6  A    between atoms: O_6  and  C_7
REMARK    7  A    between atoms: C_7  and  O_9
REMARK    8  A    between atoms: O_9  and  C_10
REMARK    9  A    between atoms: C_10  and  C_11
REMARK   10  A    between atoms: C_11  and  N_12
REMARK   11  A    between atoms: N_12  and  C_13
REMARK   12  A    between atoms: N_12  and  C_14
REMARK                            x       y       z     vdW  Elec       q    Type
REMARK                         _______ _______ _______ _____ _____    ______ ____
ROOT
ATOM      1  C   UNL     1       3.246   2.702  17.626  0.00  0.00    +0.000 C 
ATOM      2  S   UNL     1       3.793   1.394  18.497  0.00  0.00    +0.000 S 
ENDROOT
BRANCH   1   3
ATOM      3  O   UNL     1       4.038   3.622  17.007  0.00  0.00    +0.000 OA
BRANCH   3   4
ATOM      4  C   UNL     1       4.913   4.464  17.791  0.00  0.00    +0.000 C 
BRANCH   4   5
ATOM      5  C   UNL     1       5.485   5.611  16.946  0.00  0.00    +0.000 C 
BRANCH   5   7
ATOM      6  C   UNL     1       7.600   4.635  17.584  0.00  0.00    +0.000 C 
ATOM      7  N   UNL     1       6.890   5.386  16.548  0.00  0.00    +0.000 NA
ATOM      8  C   UNL     1       7.012   4.694  15.264  0.00  0.00    +0.000 C 
ENDBRANCH   5   7
ENDBRANCH   4   5
ENDBRANCH   3   4
ENDBRANCH   1   3
BRANCH   1   9
ATOM      9  O   UNL     1       1.935   3.018  17.433  0.00  0.00    +0.000 OA
BRANCH   9  10
ATOM     10  C   UNL     1       1.281   3.950  18.326  0.00  0.00    +0.000 C 
BRANCH  10  11
ATOM     11  C   UNL     1       0.737   3.219  19.560  0.00  0.00    +0.000 C 
BRANCH  11  12
ATOM     12  N   UNL     1       1.213   3.805  20.831  0.00  0.00    +0.000 NA
ATOM     13  C   UNL     1       1.902   2.819  21.667  0.00  0.00    +0.000 C 
ATOM     14  C   UNL     1       2.105   4.937  20.569  0.00  0.00    +0.000 C 
ENDBRANCH  11  12
ENDBRANCH  10  11
ENDBRANCH   9  10
ENDBRANCH   1   9
TORSDOF 8
ENDMDL
MODEL 4
REMARK VINA RESULT:      -4.3      1.787      5.907
REMARK  Name = 
REMARK  12 active torsions:
REMARK  status: ('A' for Active; 'I' for Inactive)
REMARK    1  A    between atoms: C_1  and  N_2
REMARK    2  A    between atoms: N_2  and  C_3
REMARK    3  A    between atoms: N_2  and  C_4
REMARK    4  A    between atoms: C_4  and  C_5
REMARK    5  A    between atoms: C_5  and  O_6
REMARK    6  A    between atoms: O_6  and  C_7
REMARK    7  A    between atoms: C_7  and  O_9
REMARK    8  A    between atoms: O_9  and  C_10
REMARK    9  A    between atoms: C_10  and  C_11
REMARK   10  A    between atoms: C_11  and  N_12
REMARK   11  A    between atoms: N_12  and  C_13
REMARK   12  A    between atoms: N_12  and  C_14
REMARK                            x       y       z     vdW  Elec       q    Type
REMARK                         _______ _______ _______ _____ _____    ______ ____
ROOT
ATOM      1  C   UNL     1       2.661   5.634  18.282  0.00  0.00    +0.000 C 
ATOM      2  S   UNL     1       2.429   6.704  19.537  0.00  0.00    +0.000 S 
ENDROOT
BRANCH   1   3
ATOM      3  O   UNL     1       1.711   4.801  17.774  0.00  0.00    +0.000 OA
BRANCH   3   4
ATOM      4  C   UNL     1       1.822   3.373  17.974  0.00  0.00    +0.000 C 
BRANCH   4   5
ATOM      5  C   UNL     1       1.098   2.934  19.255  0.00  0.00    +0.000 C 
BRANCH   5   7
ATOM      6  C   UNL     1       3.398   2.448  19.812  0.00  0.00    +0.000 C 
ATOM      7  N   UNL     1       2.028   2.513  20.323  0.00  0.00    +0.000 NA
ATOM      8  C   UNL     1       1.978   3.387  21.496  0.00  0.00    +0.000 C 
ENDBRANCH   5   7
ENDBRANCH   4   5
ENDBRANCH   3   4
ENDBRANCH   1   3
BRANCH   1   9
ATOM      9  O   UNL     1       3.835   5.456  17.616  0.00  0.00    +0.000 OA
BRANCH   9  10
ATOM     10  C   UNL     1       4.538   6.601  17.079  0.00  0.00    +0.000 C 
BRANCH  10  11
ATOM     11  C   UNL     1       5.360   6.197  15.847  0.00  0.00    +0.000 C 
BRANCH  11  12
ATOM     12  N   UNL     1       6.793   6.004  16.152  0.00  0.00    +0.000 NA
ATOM     13  C   UNL     1       7.213   6.766  17.330  0.00  0.00    +0.000 C 
ATOM     14  C   UNL     1       7.086   4.583  16.354  0.00  0.00    +0.000 C 
ENDBRANCH  11  12
ENDBRANCH  10  11
ENDBRANCH   9  10
ENDBRANCH   1   9
TORSDOF 8
ENDMDL
MODEL 5
REMARK VINA RESULT:      -4.3      1.864      5.854
REMARK  Name = 
REMARK  12 active torsions:
REMARK  status: ('A' for Active; 'I' for Inactive)
REMARK    1  A    between atoms: C_1  and  N_2
REMARK    2  A    between atoms: N_2  and  C_3
REMARK    3  A    between atoms: N_2  and  C_4
REMARK    4  A    between atoms: C_4  and  C_5
REMARK    5  A    between atoms: C_5  and  O_6
REMARK    6  A    between atoms: O_6  and  C_7
REMARK    7  A    between atoms: C_7  and  O_9
REMARK    8  A    between atoms: O_9  and  C_10
REMARK    9  A    between atoms: C_10  and  C_11
REMARK   10  A    between atoms: C_11  and  N_12
REMARK   11  A    between atoms: N_12  and  C_13
REMARK   12  A    between atoms: N_12  and  C_14
REMARK                            x       y       z     vdW  Elec       q    Type
REMARK                         _______ _______ _______ _____ _____    ______ ____
ROOT
ATOM      1  C   UNL     1       4.231   3.525  17.593  0.00  0.00    +0.000 C 
ATOM      2  S   UNL     1       4.791   3.797  19.137  0.00  0.00    +0.000 S 
ENDROOT
BRANCH   1   3
ATOM      3  O   UNL     1       2.928   3.319  17.254  0.00  0.00    +0.000 OA
BRANCH   3   4
ATOM      4  C   UNL     1       1.876   3.965  18.006  0.00  0.00    +0.000 C 
BRANCH   4   5
ATOM      5  C   UNL     1       1.143   2.963  18.910  0.00  0.00    +0.000 C 
BRANCH   5   7
ATOM      6  C   UNL     1       1.608   2.612  21.254  0.00  0.00    +0.000 C 
ATOM      7  N   UNL     1       0.934   3.473  20.281  0.00  0.00    +0.000 NA
ATOM      8  C   UNL     1       1.386   4.855  20.448  0.00  0.00    +0.000 C 
ENDBRANCH   5   7
ENDBRANCH   4   5
ENDBRANCH   3   4
ENDBRANCH   1   3
BRANCH   1   9
ATOM      9  O   UNL     1       5.012   3.464  16.479  0.00  0.00    +0.000 OA
BRANCH   9  10
ATOM     10  C   UNL     1       5.273   4.667  15.717  0.00  0.00    +0.000 C 
BRANCH  10  11
ATOM     11  C   UNL     1       6.610   5.291  16.140  0.00  0.00    +0.000 C 
BRANCH  11  12
ATOM     12  N   UNL     1       6.478   6.703  16.556  0.00  0.00    +0.000 NA
ATOM     13  C   UNL     1       5.124   7.017  17.016  0.00  0.00    +0.000 C 
ATOM     14  C   UNL     1       7.443   7.015  17.614  0.00  0.00    +0.000 C 
ENDBRANCH  11  12
ENDBRANCH  10  11
ENDBRANCH   9  10
ENDBRANCH   1   9
TORSDOF 8
ENDMDL
MODEL 6
REMARK VINA RESULT:      -4.3      1.548      5.276
REMARK  Name = 
REMARK  12 active torsions:
REMARK  status: ('A' for Active; 'I' for Inactive)
REMARK    1  A    between atoms: C_1  and  N_2
REMARK    2  A    between atoms: N_2  and  C_3
REMARK    3  A    between atoms: N_2  and  C_4
REMARK    4  A    between atoms: C_4  and  C_5
REMARK    5  A    between atoms: C_5  and  O_6
REMARK    6  A    between atoms: O_6  and  C_7
REMARK    7  A    between atoms: C_7  and  O_9
REMARK    8  A    between atoms: O_9  and  C_10
REMARK    9  A    between atoms: C_10  and  C_11
REMARK   10  A    between atoms: C_11  and  N_12
REMARK   11  A    between atoms: N_12  and  C_13
REMARK   12  A    between atoms: N_12  and  C_14
REMARK                            x       y       z     vdW  Elec       q    Type
REMARK                         _______ _______ _______ _____ _____    ______ ____
ROOT
ATOM      1  C   UNL     1       3.820   5.700  18.294  0.00  0.00    +0.000 C 
ATOM      2  S   UNL     1       2.851   7.054  18.256  0.00  0.00    +0.000 S 
ENDROOT
BRANCH   1   3
ATOM      3  O   UNL     1       4.311   5.115  19.422  0.00  0.00    +0.000 OA
BRANCH   3   4
ATOM      4  C   UNL     1       4.374   3.674  19.519  0.00  0.00    +0.000 C 
BRANCH   4   5
ATOM      5  C   UNL     1       3.067   3.098  20.083  0.00  0.00    +0.000 C 
BRANCH   5   7
ATOM      6  C   UNL     1       1.179   2.614  18.657  0.00  0.00    +0.000 C 
ATOM      7  N   UNL     1       2.444   2.103  19.187  0.00  0.00    +0.000 NA
ATOM      8  C   UNL     1       3.319   1.708  18.082  0.00  0.00    +0.000 C 
ENDBRANCH   5   7
ENDBRANCH   4   5
ENDBRANCH   3   4
ENDBRANCH   1   3
BRANCH   1   9
ATOM      9  O   UNL     1       4.247   5.016  17.196  0.00  0.00    +0.000 OA
BRANCH   9  10
ATOM     10  C   UNL     1       5.331   5.544  16.396  0.00  0.00    +0.000 C 
BRANCH  10  11
ATOM     11  C   UNL     1       6.670   4.942  16.842  0.00  0.00    +0.000 C 
BRANCH  11  12
ATOM     12  N   UNL     1       7.563   5.933  17.477  0.00  0.00    +0.000 NA
ATOM     13  C   UNL     1       7.064   7.302  17.322  0.00  0.00    +0.000 C 
ATOM     14  C   UNL     1       7.733   5.630  18.900  0.00  0.00    +0.000 C 
ENDBRANCH  11  12
ENDBRANCH  10  11
ENDBRANCH   9  10
ENDBRANCH   1   9
TORSDOF 8
ENDMDL
MODEL 7
REMARK VINA RESULT:      -4.3      1.652      1.957
REMARK  Name = 
REMARK  12 active torsions:
REMARK  status: ('A' for Active; 'I' for Inactive)
REMARK    1  A    between atoms: C_1  and  N_2
REMARK    2  A    between atoms: N_2  and  C_3
REMARK    3  A    between atoms: N_2  and  C_4
REMARK    4  A    between atoms: C_4  and  C_5
REMARK    5  A    between atoms: C_5  and  O_6
REMARK    6  A    between atoms: O_6  and  C_7
REMARK    7  A    between atoms: C_7  and  O_9
REMARK    8  A    between atoms: O_9  and  C_10
REMARK    9  A    between atoms: C_10  and  C_11
REMARK   10  A    between atoms: C_11  and  N_12
REMARK   11  A    between atoms: N_12  and  C_13
REMARK   12  A    between atoms: N_12  and  C_14
REMARK                            x       y       z     vdW  Elec       q    Type
REMARK                         _______ _______ _______ _____ _____    ______ ____
ROOT
ATOM      1  C   UNL     1       4.853   3.771  19.424  0.00  0.00    +0.000 C 
ATOM      2  S   UNL     1       4.374   2.212  19.758  0.00  0.00    +0.000 S 
ENDROOT
BRANCH   1   3
ATOM      3  O   UNL     1       6.086   4.134  18.971  0.00  0.00    +0.000 OA
BRANCH   3   4
ATOM      4  C   UNL     1       6.469   5.528  18.963  0.00  0.00    +0.000 C 
BRANCH   4   5
ATOM      5  C   UNL     1       6.949   5.964  17.571  0.00  0.00    +0.000 C 
BRANCH   5   7
ATOM      6  C   UNL     1       5.157   6.335  15.995  0.00  0.00    +0.000 C 
ATOM      7  N   UNL     1       6.150   5.375  16.477  0.00  0.00    +0.000 NA
ATOM      8  C   UNL     1       6.974   4.911  15.359  0.00  0.00    +0.000 C 
ENDBRANCH   5   7
ENDBRANCH   4   5
ENDBRANCH   3   4
ENDBRANCH   1   3
BRANCH   1   9
ATOM      9  O   UNL     1       4.072   4.876  19.572  0.00  0.00    +0.000 OA
BRANCH   9  10
ATOM     10  C   UNL     1       2.698   4.851  19.121  0.00  0.00    +0.000 C 
BRANCH  10  11
ATOM     11  C   UNL     1       1.739   4.925  20.317  0.00  0.00    +0.000 C 
BRANCH  11  12
ATOM     12  N   UNL     1       0.888   3.723  20.445  0.00  0.00    +0.000 NA
ATOM     13  C   UNL     1       0.841   2.947  19.204  0.00  0.00    +0.000 C 
ATOM     14  C   UNL     1       1.366   2.874  21.539  0.00  0.00    +0.000 C 
ENDBRANCH  11  12
ENDBRANCH  10  11
ENDBRANCH   9  10
ENDBRANCH   1   9
TORSDOF 8
ENDMDL
MODEL 8
REMARK VINA RESULT:      -4.3      1.966      5.625
REMARK  Name = 
REMARK  12 active torsions:
REMARK  status: ('A' for Active; 'I' for Inactive)
REMARK    1  A    between atoms: C_1  and  N_2
REMARK    2  A    between atoms: N_2  and  C_3
REMARK    3  A    between atoms: N_2  and  C_4
REMARK    4  A    between atoms: C_4  and  C_5
REMARK    5  A    between atoms: C_5  and  O_6
REMARK    6  A    between atoms: O_6  and  C_7
REMARK    7  A    between atoms: C_7  and  O_9
REMARK    8  A    between atoms: O_9  and  C_10
REMARK    9  A    between atoms: C_10  and  C_11
REMARK   10  A    between atoms: C_11  and  N_12
REMARK   11  A    between atoms: N_12  and  C_13
REMARK   12  A    between atoms: N_12  and  C_14
REMARK                            x       y       z     vdW  Elec       q    Type
REMARK                         _______ _______ _______ _____ _____    ______ ____
ROOT
ATOM      1  C   UNL     1       2.813   6.166  18.066  0.00  0.00    +0.000 C 
ATOM      2  S   UNL     1       2.574   7.814  18.092  0.00  0.00    +0.000 S 
ENDROOT
BRANCH   1   3
ATOM      3  O   UNL     1       1.988   5.243  18.633  0.00  0.00    +0.000 OA
BRANCH   3   4
ATOM      4  C   UNL     1       1.629   4.049  17.901  0.00  0.00    +0.000 C 
BRANCH   4   5
ATOM      5  C   UNL     1       1.344   2.878  18.853  0.00  0.00    +0.000 C 
BRANCH   5   7
ATOM      6  C   UNL     1       3.421   1.978  18.012  0.00  0.00    +0.000 C 
ATOM      7  N   UNL     1       2.555   2.101  19.186  0.00  0.00    +0.000 NA
ATOM      8  C   UNL     1       3.310   2.676  20.300  0.00  0.00    +0.000 C 
ENDBRANCH   5   7
ENDBRANCH   4   5
ENDBRANCH   3   4
ENDBRANCH   1   3
BRANCH   1   9
ATOM      9  O   UNL     1       3.871   5.541  17.480  0.00  0.00    +0.000 OA
BRANCH   9  10
ATOM     10  C   UNL     1       5.207   5.750  17.996  0.00  0.00    +0.000 C 
BRANCH  10  11
ATOM     11  C   UNL     1       6.108   6.366  16.918  0.00  0.00    +0.000 C 
BRANCH  11  12
ATOM     12  N   UNL     1       7.264   5.510  16.579  0.00  0.00    +0.000 NA
ATOM     13  C   UNL     1       7.629   4.616  17.680  0.00  0.00    +0.000 C 
ATOM     14  C   UNL     1       6.980   4.721  15.377  0.00  0.00    +0.000 C 
ENDBRANCH  11  12
ENDBRANCH  10  11
ENDBRANCH   9  10
ENDBRANCH   1   9
TORSDOF 8
ENDMDL
MODEL 9
REMARK VINA RESULT:      -4.2      0.757      5.431
REMARK  Name = 
REMARK  12 active torsions:
REMARK  status: ('A' for Active; 'I' for Inactive)
REMARK    1  A    between atoms: C_1  and  N_2
REMARK    2  A    between atoms: N_2  and  C_3
REMARK    3  A    between atoms: N_2  and  C_4
REMARK    4  A    between atoms: C_4  and  C_5
REMARK    5  A    between atoms: C_5  and  O_6
REMARK    6  A    between atoms: O_6  and  C_7
REMARK    7  A    between atoms: C_7  and  O_9
REMARK    8  A    between atoms: O_9  and  C_10
REMARK    9  A    between atoms: C_10  and  C_11
REMARK   10  A    between atoms: C_11  and  N_12
REMARK   11  A    between atoms: N_12  and  C_13
REMARK   12  A    between atoms: N_12  and  C_14
REMARK                            x       y       z     vdW  Elec       q    Type
REMARK                         _______ _______ _______ _____ _____    ______ ____
ROOT
ATOM      1  C   UNL     1       4.827   4.826  19.225  0.00  0.00    +0.000 C 
ATOM      2  S   UNL     1       3.449   5.742  19.408  0.00  0.00    +0.000 S 
ENDROOT
BRANCH   1   3
ATOM      3  O   UNL     1       4.854   3.486  18.979  0.00  0.00    +0.000 OA
BRANCH   3   4
ATOM      4  C   UNL     1       3.814   2.878  18.180  0.00  0.00    +0.000 C 
BRANCH   4   5
ATOM      5  C   UNL     1       3.170   1.693  18.915  0.00  0.00    +0.000 C 
BRANCH   5   7
ATOM      6  C   UNL     1       1.864   2.562  20.752  0.00  0.00    +0.000 C 
ATOM      7  N   UNL     1       1.809   1.992  19.405  0.00  0.00    +0.000 NA
ATOM      8  C   UNL     1       1.071   2.893  18.517  0.00  0.00    +0.000 C 
ENDBRANCH   5   7
ENDBRANCH   4   5
ENDBRANCH   3   4
ENDBRANCH   1   3
BRANCH   1   9
ATOM      9  O   UNL     1       6.099   5.305  19.310  0.00  0.00    +0.000 OA
BRANCH   9  10
ATOM     10  C   UNL     1       6.677   6.012  18.187  0.00  0.00    +0.000 C 
BRANCH  10  11
ATOM     11  C   UNL     1       7.164   5.022  17.122  0.00  0.00    +0.000 C 
BRANCH  11  12
ATOM     12  N   UNL     1       6.245   4.921  15.968  0.00  0.00    +0.000 NA
ATOM     13  C   UNL     1       5.410   6.115  15.825  0.00  0.00    +0.000 C 
ATOM     14  C   UNL     1       6.999   4.696  14.733  0.00  0.00    +0.000 C 
ENDBRANCH  11  12
ENDBRANCH  10  11
ENDBRANCH   9  10
ENDBRANCH   1   9
TORSDOF 8
ENDMDL
