MODEL 1
REMARK VINA RESULT:      -7.4      0.000      0.000
REMARK  Name = 
REMARK  4 active torsions:
REMARK  status: ('A' for Active; 'I' for Inactive)
REMARK    1  A    between atoms: C_1  and  N_2
REMARK    2  A    between atoms: C_5  and  C_6
REMARK    3  A    between atoms: C_6  and  C_8
REMARK    4  A    between atoms: C_12  and  C_13
REMARK                            x       y       z     vdW  Elec       q    Type
REMARK                         _______ _______ _______ _____ _____    ______ ____
ROOT
ATOM      1  C   UNL     1       2.969   5.990  18.122  0.00  0.00    +0.000 C 
ATOM      2  O   UNL     1       2.815   7.206  18.006  0.00  0.00    +0.000 OA
ENDROOT
BRANCH   1   7
ATOM      3  C   UNL     1       1.478   2.704  21.384  0.00  0.00    +0.000 C 
ATOM      4  N   UNL     1       1.762   3.336  20.116  0.00  0.00    +0.000 N 
ATOM      5  C   UNL     1       1.474   2.689  18.867  0.00  0.00    +0.000 C 
ATOM      6  C   UNL     1       1.919   3.693  17.824  0.00  0.00    +0.000 C 
ATOM      7  C   UNL     1       1.828   5.067  18.515  0.00  0.00    +0.000 C 
ATOM      8  C   UNL     1       1.819   4.712  19.985  0.00  0.00    +0.000 C 
ATOM      9  O   UNL     1       1.796   5.512  20.909  0.00  0.00    +0.000 OA
ENDBRANCH   1   7
BRANCH   1  10
ATOM     10  C   UNL     1       4.344   5.448  17.920  0.00  0.00    +0.000 A 
ATOM     11  C   UNL     1       5.201   5.378  19.013  0.00  0.00    +0.000 A 
ATOM     12  N   UNL     1       6.462   4.886  18.954  0.00  0.00    +0.000 NA
ATOM     13  C   UNL     1       6.887   4.452  17.743  0.00  0.00    +0.000 A 
ATOM     14  C   UNL     1       6.123   4.462  16.577  0.00  0.00    +0.000 A 
ATOM     15  C   UNL     1       4.824   4.981  16.696  0.00  0.00    +0.000 A 
BRANCH  14  16
ATOM     16  C   UNL     1       6.659   3.975  15.257  0.00  0.00    +0.000 C 
ATOM     17  C   UNL     1       5.821   4.100  14.008  0.00  0.00    +0.000 C 
ATOM     18  C   UNL     1       7.024   4.977  14.182  0.00  0.00    +0.000 C 
ENDBRANCH  14  16
ENDBRANCH   1  10
TORSDOF 3
ENDMDL
MODEL 2
REMARK VINA RESULT:      -7.2      1.910      2.491
REMARK  Name = 
REMARK  4 active torsions:
REMARK  status: ('A' for Active; 'I' for Inactive)
REMARK    1  A    between atoms: C_1  and  N_2
REMARK    2  A    between atoms: C_5  and  C_6
REMARK    3  A    between atoms: C_6  and  C_8
REMARK    4  A    between atoms: C_12  and  C_13
REMARK                            x       y       z     vdW  Elec       q    Type
REMARK                         _______ _______ _______ _____ _____    ______ ____
ROOT
ATOM      1  C   UNL     1       5.049   4.067  17.877  0.00  0.00    +0.000 C 
ATOM      2  O   UNL     1       5.686   4.098  18.930  0.00  0.00    +0.000 OA
ENDROOT
BRANCH   1   7
ATOM      3  C   UNL     1       0.987   3.643  20.519  0.00  0.00    +0.000 C 
ATOM      4  N   UNL     1       2.055   3.327  19.597  0.00  0.00    +0.000 N 
ATOM      5  C   UNL     1       2.110   2.070  18.906  0.00  0.00    +0.000 C 
ATOM      6  C   UNL     1       3.364   2.172  18.062  0.00  0.00    +0.000 C 
ATOM      7  C   UNL     1       3.581   3.680  17.834  0.00  0.00    +0.000 C 
ATOM      8  C   UNL     1       2.758   4.316  18.932  0.00  0.00    +0.000 C 
ATOM      9  O   UNL     1       2.672   5.515  19.153  0.00  0.00    +0.000 OA
ENDBRANCH   1   7
BRANCH   1  10
ATOM     10  C   UNL     1       5.789   4.368  16.617  0.00  0.00    +0.000 A 
ATOM     11  C   UNL     1       6.703   5.417  16.613  0.00  0.00    +0.000 A 
ATOM     12  N   UNL     1       7.446   5.767  15.537  0.00  0.00    +0.000 NA
ATOM     13  C   UNL     1       7.261   5.040  14.409  0.00  0.00    +0.000 A 
ATOM     14  C   UNL     1       6.382   3.964  14.287  0.00  0.00    +0.000 A 
ATOM     15  C   UNL     1       5.639   3.643  15.434  0.00  0.00    +0.000 A 
BRANCH  14  16
ATOM     16  C   UNL     1       6.212   3.202  13.000  0.00  0.00    +0.000 C 
ATOM     17  C   UNL     1       5.036   3.492  12.099  0.00  0.00    +0.000 C 
ATOM     18  C   UNL     1       6.412   3.913  11.678  0.00  0.00    +0.000 C 
ENDBRANCH  14  16
ENDBRANCH   1  10
TORSDOF 3
ENDMDL
MODEL 3
REMARK VINA RESULT:      -7.1      1.916      2.738
REMARK  Name = 
REMARK  4 active torsions:
REMARK  status: ('A' for Active; 'I' for Inactive)
REMARK    1  A    between atoms: C_1  and  N_2
REMARK    2  A    between atoms: C_5  and  C_6
REMARK    3  A    between atoms: C_6  and  C_8
REMARK    4  A    between atoms: C_12  and  C_13
REMARK                            x       y       z     vdW  Elec       q    Type
REMARK                         _______ _______ _______ _____ _____    ______ ____
ROOT
ATOM      1  C   UNL     1       4.208   4.837  16.975  0.00  0.00    +0.000 C 
ATOM      2  O   UNL     1       3.825   5.964  17.292  0.00  0.00    +0.000 OA
ENDROOT
BRANCH   1   7
ATOM      3  C   UNL     1       0.820   3.116  20.011  0.00  0.00    +0.000 C 
ATOM      4  N   UNL     1       2.105   3.354  19.395  0.00  0.00    +0.000 N 
ATOM      5  C   UNL     1       3.309   2.757  19.899  0.00  0.00    +0.000 C 
ATOM      6  C   UNL     1       4.389   3.267  18.966  0.00  0.00    +0.000 C 
ATOM      7  C   UNL     1       3.668   3.584  17.642  0.00  0.00    +0.000 C 
ATOM      8  C   UNL     1       2.219   3.702  18.059  0.00  0.00    +0.000 C 
ATOM      9  O   UNL     1       1.287   3.988  17.322  0.00  0.00    +0.000 OA
ENDBRANCH   1   7
BRANCH   1  10
ATOM     10  C   UNL     1       5.278   4.741  15.940  0.00  0.00    +0.000 A 
ATOM     11  C   UNL     1       6.591   5.018  16.308  0.00  0.00    +0.000 A 
ATOM     12  N   UNL     1       7.645   4.942  15.461  0.00  0.00    +0.000 NA
ATOM     13  C   UNL     1       7.373   4.581  14.185  0.00  0.00    +0.000 A 
ATOM     14  C   UNL     1       6.104   4.272  13.695  0.00  0.00    +0.000 A 
ATOM     15  C   UNL     1       5.048   4.365  14.616  0.00  0.00    +0.000 A 
BRANCH  14  16
ATOM     16  C   UNL     1       5.865   3.888  12.259  0.00  0.00    +0.000 C 
ATOM     17  C   UNL     1       5.847   2.433  11.858  0.00  0.00    +0.000 C 
ATOM     18  C   UNL     1       4.566   3.211  11.872  0.00  0.00    +0.000 C 
ENDBRANCH  14  16
ENDBRANCH   1  10
TORSDOF 3
ENDMDL
MODEL 4
REMARK VINA RESULT:      -6.9      1.990      2.713
REMARK  Name = 
REMARK  4 active torsions:
REMARK  status: ('A' for Active; 'I' for Inactive)
REMARK    1  A    between atoms: C_1  and  N_2
REMARK    2  A    between atoms: C_5  and  C_6
REMARK    3  A    between atoms: C_6  and  C_8
REMARK    4  A    between atoms: C_12  and  C_13
REMARK                            x       y       z     vdW  Elec       q    Type
REMARK                         _______ _______ _______ _____ _____    ______ ____
ROOT
ATOM      1  C   UNL     1       3.951   3.966  17.155  0.00  0.00    +0.000 C 
ATOM      2  O   UNL     1       2.998   3.331  16.700  0.00  0.00    +0.000 OA
ENDROOT
BRANCH   1   7
ATOM      3  C   UNL     1       2.215   3.332  21.655  0.00  0.00    +0.000 C 
ATOM      4  N   UNL     1       2.581   3.970  20.411  0.00  0.00    +0.000 N 
ATOM      5  C   UNL     1       2.326   5.362  20.172  0.00  0.00    +0.000 C 
ATOM      6  C   UNL     1       2.866   5.598  18.775  0.00  0.00    +0.000 C 
ATOM      7  C   UNL     1       3.948   4.521  18.569  0.00  0.00    +0.000 C 
ATOM      8  C   UNL     1       3.611   3.488  19.621  0.00  0.00    +0.000 C 
ATOM      9  O   UNL     1       4.196   2.429  19.792  0.00  0.00    +0.000 OA
ENDBRANCH   1   7
BRANCH   1  10
ATOM     10  C   UNL     1       5.101   4.227  16.242  0.00  0.00    +0.000 A 
ATOM     11  C   UNL     1       6.280   4.732  16.781  0.00  0.00    +0.000 A 
ATOM     12  N   UNL     1       7.394   4.987  16.054  0.00  0.00    +0.000 NA
ATOM     13  C   UNL     1       7.323   4.733  14.725  0.00  0.00    +0.000 A 
ATOM     14  C   UNL     1       6.205   4.221  14.069  0.00  0.00    +0.000 A 
ATOM     15  C   UNL     1       5.079   3.973  14.871  0.00  0.00    +0.000 A 
BRANCH  14  16
ATOM     16  C   UNL     1       6.184   3.971  12.584  0.00  0.00    +0.000 C 
ATOM     17  C   UNL     1       6.177   2.558  12.055  0.00  0.00    +0.000 C 
ATOM     18  C   UNL     1       4.940   3.397  11.939  0.00  0.00    +0.000 C 
ENDBRANCH  14  16
ENDBRANCH   1  10
TORSDOF 3
ENDMDL
MODEL 5
REMARK VINA RESULT:      -6.9      2.166      3.242
REMARK  Name = 
REMARK  4 active torsions:
REMARK  status: ('A' for Active; 'I' for Inactive)
REMARK    1  A    between atoms: C_1  and  N_2
REMARK    2  A    between atoms: C_5  and  C_6
REMARK    3  A    between atoms: C_6  and  C_8
REMARK    4  A    between atoms: C_12  and  C_13
REMARK                            x       y       z     vdW  Elec       q    Type
REMARK                         _______ _______ _______ _____ _____    ______ ____
ROOT
ATOM      1  C   UNL     1       4.728   3.957  17.012  0.00  0.00    +0.000 C 
ATOM      2  O   UNL     1       4.136   2.877  16.999  0.00  0.00    +0.000 OA
ENDROOT
BRANCH   1   7
ATOM      3  C   UNL     1       1.932   5.179  20.800  0.00  0.00    +0.000 C 
ATOM      4  N   UNL     1       2.696   5.285  19.578  0.00  0.00    +0.000 N 
ATOM      5  C   UNL     1       2.805   6.522  18.859  0.00  0.00    +0.000 C 
ATOM      6  C   UNL     1       3.682   6.179  17.672  0.00  0.00    +0.000 C 
ATOM      7  C   UNL     1       4.527   4.973  18.124  0.00  0.00    +0.000 C 
ATOM      8  C   UNL     1       3.748   4.429  19.301  0.00  0.00    +0.000 C 
ATOM      9  O   UNL     1       4.040   3.435  19.949  0.00  0.00    +0.000 OA
ENDBRANCH   1   7
BRANCH   1  10
ATOM     10  C   UNL     1       5.617   4.269  15.855  0.00  0.00    +0.000 A 
ATOM     11  C   UNL     1       6.753   5.040  16.074  0.00  0.00    +0.000 A 
ATOM     12  N   UNL     1       7.642   5.367  15.106  0.00  0.00    +0.000 NA
ATOM     13  C   UNL     1       7.378   4.908  13.860  0.00  0.00    +0.000 A 
ATOM     14  C   UNL     1       6.279   4.122  13.514  0.00  0.00    +0.000 A 
ATOM     15  C   UNL     1       5.391   3.812  14.556  0.00  0.00    +0.000 A 
BRANCH  14  16
ATOM     16  C   UNL     1       6.035   3.652  12.104  0.00  0.00    +0.000 C 
ATOM     17  C   UNL     1       5.680   2.210  11.839  0.00  0.00    +0.000 C 
ATOM     18  C   UNL     1       4.633   3.271  11.675  0.00  0.00    +0.000 C 
ENDBRANCH  14  16
ENDBRANCH   1  10
TORSDOF 3
ENDMDL
MODEL 6
REMARK VINA RESULT:      -6.7      1.378      1.839
REMARK  Name = 
REMARK  4 active torsions:
REMARK  status: ('A' for Active; 'I' for Inactive)
REMARK    1  A    between atoms: C_1  and  N_2
REMARK    2  A    between atoms: C_5  and  C_6
REMARK    3  A    between atoms: C_6  and  C_8
REMARK    4  A    between atoms: C_12  and  C_13
REMARK                            x       y       z     vdW  Elec       q    Type
REMARK                         _______ _______ _______ _____ _____    ______ ____
ROOT
ATOM      1  C   UNL     1       3.795   5.726  18.946  0.00  0.00    +0.000 C 
ATOM      2  O   UNL     1       3.421   6.900  18.948  0.00  0.00    +0.000 OA
ENDROOT
BRANCH   1   7
ATOM      3  C   UNL     1       0.635   2.028  18.977  0.00  0.00    +0.000 C 
ATOM      4  N   UNL     1       1.312   3.248  19.355  0.00  0.00    +0.000 N 
ATOM      5  C   UNL     1       0.890   4.028  20.484  0.00  0.00    +0.000 C 
ATOM      6  C   UNL     1       1.863   5.189  20.510  0.00  0.00    +0.000 C 
ATOM      7  C   UNL     1       3.137   4.669  19.816  0.00  0.00    +0.000 C 
ATOM      8  C   UNL     1       2.640   3.472  19.037  0.00  0.00    +0.000 C 
ATOM      9  O   UNL     1       3.318   2.772  18.300  0.00  0.00    +0.000 OA
ENDBRANCH   1   7
BRANCH   1  10
ATOM     10  C   UNL     1       4.970   5.380  18.094  0.00  0.00    +0.000 A 
ATOM     11  C   UNL     1       6.144   4.965  18.713  0.00  0.00    +0.000 A 
ATOM     12  N   UNL     1       7.265   4.605  18.042  0.00  0.00    +0.000 NA
ATOM     13  C   UNL     1       7.211   4.672  16.691  0.00  0.00    +0.000 A 
ATOM     14  C   UNL     1       6.093   5.064  15.954  0.00  0.00    +0.000 A 
ATOM     15  C   UNL     1       4.959   5.425  16.700  0.00  0.00    +0.000 A 
BRANCH  14  16
ATOM     16  C   UNL     1       6.100   5.129  14.450  0.00  0.00    +0.000 C 
ATOM     17  C   UNL     1       7.300   4.637  13.677  0.00  0.00    +0.000 C 
ATOM     18  C   UNL     1       6.025   3.848  13.646  0.00  0.00    +0.000 C 
ENDBRANCH  14  16
ENDBRANCH   1  10
TORSDOF 3
ENDMDL
MODEL 7
REMARK VINA RESULT:      -6.7      1.870      2.832
REMARK  Name = 
REMARK  4 active torsions:
REMARK  status: ('A' for Active; 'I' for Inactive)
REMARK    1  A    between atoms: C_1  and  N_2
REMARK    2  A    between atoms: C_5  and  C_6
REMARK    3  A    between atoms: C_6  and  C_8
REMARK    4  A    between atoms: C_12  and  C_13
REMARK                            x       y       z     vdW  Elec       q    Type
REMARK                         _______ _______ _______ _____ _____    ______ ____
ROOT
ATOM      1  C   UNL     1       4.658   3.948  18.416  0.00  0.00    +0.000 C 
ATOM      2  O   UNL     1       5.129   3.206  19.279  0.00  0.00    +0.000 OA
ENDROOT
BRANCH   1   7
ATOM      3  C   UNL     1       1.960   7.643  20.068  0.00  0.00    +0.000 C 
ATOM      4  N   UNL     1       2.408   6.296  19.794  0.00  0.00    +0.000 N 
ATOM      5  C   UNL     1       1.680   5.148  20.254  0.00  0.00    +0.000 C 
ATOM      6  C   UNL     1       2.491   3.973  19.746  0.00  0.00    +0.000 C 
ATOM      7  C   UNL     1       3.247   4.502  18.513  0.00  0.00    +0.000 C 
ATOM      8  C   UNL     1       3.201   6.002  18.698  0.00  0.00    +0.000 C 
ATOM      9  O   UNL     1       3.721   6.826  17.961  0.00  0.00    +0.000 OA
ENDBRANCH   1   7
BRANCH   1  10
ATOM     10  C   UNL     1       5.506   4.242  17.225  0.00  0.00    +0.000 A 
ATOM     11  C   UNL     1       6.798   4.718  17.425  0.00  0.00    +0.000 A 
ATOM     12  N   UNL     1       7.664   4.997  16.422  0.00  0.00    +0.000 NA
ATOM     13  C   UNL     1       7.214   4.801  15.160  0.00  0.00    +0.000 A 
ATOM     14  C   UNL     1       5.947   4.322  14.829  0.00  0.00    +0.000 A 
ATOM     15  C   UNL     1       5.091   4.047  15.907  0.00  0.00    +0.000 A 
BRANCH  14  16
ATOM     16  C   UNL     1       5.502   4.136  13.402  0.00  0.00    +0.000 C 
ATOM     17  C   UNL     1       6.524   4.076  12.293  0.00  0.00    +0.000 C 
ATOM     18  C   UNL     1       5.792   2.830  12.693  0.00  0.00    +0.000 C 
ENDBRANCH  14  16
ENDBRANCH   1  10
TORSDOF 3
ENDMDL
MODEL 8
REMARK VINA RESULT:      -6.6      1.862      2.564
REMARK  Name = 
REMARK  4 active torsions:
REMARK  status: ('A' for Active; 'I' for Inactive)
REMARK    1  A    between atoms: C_1  and  N_2
REMARK    2  A    between atoms: C_5  and  C_6
REMARK    3  A    between atoms: C_6  and  C_8
REMARK    4  A    between atoms: C_12  and  C_13
REMARK                            x       y       z     vdW  Elec       q    Type
REMARK                         _______ _______ _______ _____ _____    ______ ____
ROOT
ATOM      1  C   UNL     1       3.355   2.400  18.556  0.00  0.00    +0.000 C 
ATOM      2  O   UNL     1       3.381   1.223  18.194  0.00  0.00    +0.000 OA
ENDROOT
BRANCH   1   7
ATOM      3  C   UNL     1       1.583   6.410  20.663  0.00  0.00    +0.000 C 
ATOM      4  N   UNL     1       2.052   5.055  20.488  0.00  0.00    +0.000 N 
ATOM      5  C   UNL     1       2.095   4.122  21.578  0.00  0.00    +0.000 C 
ATOM      6  C   UNL     1       2.636   2.853  20.953  0.00  0.00    +0.000 C 
ATOM      7  C   UNL     1       2.261   2.941  19.462  0.00  0.00    +0.000 C 
ATOM      8  C   UNL     1       1.990   4.416  19.262  0.00  0.00    +0.000 C 
ATOM      9  O   UNL     1       1.694   4.947  18.202  0.00  0.00    +0.000 OA
ENDBRANCH   1   7
BRANCH   1  10
ATOM     10  C   UNL     1       4.414   3.307  18.024  0.00  0.00    +0.000 A 
ATOM     11  C   UNL     1       5.357   3.823  18.906  0.00  0.00    +0.000 A 
ATOM     12  N   UNL     1       6.374   4.636  18.533  0.00  0.00    +0.000 NA
ATOM     13  C   UNL     1       6.445   4.954  17.219  0.00  0.00    +0.000 A 
ATOM     14  C   UNL     1       5.567   4.497  16.237  0.00  0.00    +0.000 A 
ATOM     15  C   UNL     1       4.533   3.656  16.679  0.00  0.00    +0.000 A 
BRANCH  14  16
ATOM     16  C   UNL     1       5.694   4.898  14.791  0.00  0.00    +0.000 C 
ATOM     17  C   UNL     1       7.056   4.996  14.150  0.00  0.00    +0.000 C 
ATOM     18  C   UNL     1       6.138   3.874  13.767  0.00  0.00    +0.000 C 
ENDBRANCH  14  16
ENDBRANCH   1  10
TORSDOF 3
ENDMDL
MODEL 9
REMARK VINA RESULT:      -6.6      2.324      5.331
REMARK  Name = 
REMARK  4 active torsions:
REMARK  status: ('A' for Active; 'I' for Inactive)
REMARK    1  A    between atoms: C_1  and  N_2
REMARK    2  A    between atoms: C_5  and  C_6
REMARK    3  A    between atoms: C_6  and  C_8
REMARK    4  A    between atoms: C_12  and  C_13
REMARK                            x       y       z     vdW  Elec       q    Type
REMARK                         _______ _______ _______ _____ _____    ______ ____
ROOT
ATOM      1  C   UNL     1       3.150   4.035  17.485  0.00  0.00    +0.000 C 
ATOM      2  O   UNL     1       2.344   3.246  16.990  0.00  0.00    +0.000 OA
ENDROOT
BRANCH   1   7
ATOM      3  C   UNL     1       7.558   5.634  18.779  0.00  0.00    +0.000 C 
ATOM      4  N   UNL     1       6.408   5.311  17.964  0.00  0.00    +0.000 N 
ATOM      5  C   UNL     1       6.377   5.588  16.557  0.00  0.00    +0.000 C 
ATOM      6  C   UNL     1       5.014   5.092  16.117  0.00  0.00    +0.000 C 
ATOM      7  C   UNL     1       4.628   4.004  17.136  0.00  0.00    +0.000 C 
ATOM      8  C   UNL     1       5.531   4.299  18.314  0.00  0.00    +0.000 C 
ATOM      9  O   UNL     1       5.533   3.697  19.377  0.00  0.00    +0.000 OA
ENDBRANCH   1   7
BRANCH   1  10
ATOM     10  C   UNL     1       2.632   5.000  18.499  0.00  0.00    +0.000 A 
ATOM     11  C   UNL     1       2.195   4.509  19.726  0.00  0.00    +0.000 A 
ATOM     12  N   UNL     1       1.727   5.291  20.728  0.00  0.00    +0.000 NA
ATOM     13  C   UNL     1       1.687   6.623  20.489  0.00  0.00    +0.000 A 
ATOM     14  C   UNL     1       2.102   7.237  19.308  0.00  0.00    +0.000 A 
ATOM     15  C   UNL     1       2.580   6.380  18.304  0.00  0.00    +0.000 A 
BRANCH  14  16
ATOM     16  C   UNL     1       2.020   8.726  19.100  0.00  0.00    +0.000 C 
ATOM     17  C   UNL     1       2.123   9.302  17.708  0.00  0.00    +0.000 C 
ATOM     18  C   UNL     1       0.804   9.321  18.421  0.00  0.00    +0.000 C 
ENDBRANCH  14  16
ENDBRANCH   1  10
TORSDOF 3
ENDMDL
