MODEL 1
REMARK VINA RESULT:      -6.7      0.000      0.000
REMARK  Name = 
REMARK  10 active torsions:
REMARK  status: ('A' for Active; 'I' for Inactive)
REMARK    1  A    between atoms: C_1  and  O_2
REMARK    2  A    between atoms: O_2  and  C_3
REMARK    3  A    between atoms: C_3  and  C_4
REMARK    4  A    between atoms: C_4  and  C_5
REMARK    5  A    between atoms: C_5  and  N_6
REMARK    6  A    between atoms: N_6  and  C_7
REMARK    7  A    between atoms: N_6  and  C_8
REMARK    8  A    between atoms: N_12  and  C_13
REMARK    9  A    between atoms: C_13  and  C_14
REMARK   10  A    between atoms: C_17  and  C_18
REMARK                            x       y       z     vdW  Elec       q    Type
REMARK                         _______ _______ _______ _____ _____    ______ ____
ROOT
ATOM      1  C   UNL     1       4.502   4.406  18.957  0.00  0.00    +0.000 C 
ATOM      2  C   UNL     1       3.871   5.814  18.949  0.00  0.00    +0.000 C 
ATOM      3  C   UNL     1       4.000   6.528  17.609  0.00  0.00    +0.000 C 
ATOM      4  C   UNL     1       5.417   6.462  17.024  0.00  0.00    +0.000 C 
ATOM      5  N   UNL     1       5.963   5.107  17.055  0.00  0.00    +0.000 NA
ATOM      6  C   UNL     1       5.953   4.527  18.401  0.00  0.00    +0.000 C 
ENDROOT
BRANCH   1   7
ATOM      7  N   UNL     1       3.730   3.286  18.349  0.00  0.00    +0.000 NA
ATOM      8  C   UNL     1       2.603   3.658  17.491  0.00  0.00    +0.000 C 
BRANCH   7   9
ATOM      9  C   UNL     1       3.344   2.248  19.319  0.00  0.00    +0.000 C 
BRANCH   9  10
ATOM     10  C   UNL     1       1.827   2.195  19.525  0.00  0.00    +0.000 C 
BRANCH  10  11
ATOM     11  C   UNL     1       1.375   2.882  20.802  0.00  0.00    +0.000 C 
BRANCH  11  13
ATOM     12  C   UNL     1       1.389   5.242  20.883  0.00  0.00    +0.000 C 
ATOM     13  O   UNL     1       0.719   4.087  20.406  0.00  0.00    +0.000 OA
ENDBRANCH  11  13
ENDBRANCH  10  11
ENDBRANCH   9  10
ENDBRANCH   7   9
ENDBRANCH   1   7
BRANCH   5  14
ATOM     14  C   UNL     1       7.247   4.921  16.364  0.00  0.00    +0.000 C 
BRANCH  14  15
ATOM     15  C   UNL     1       7.032   4.764  14.888  0.00  0.00    +0.000 A 
ATOM     16  N   UNL     1       7.754   5.407  13.963  0.00  0.00    +0.000 NA
ATOM     17  O   UNL     1       7.345   4.809  12.769  0.00  0.00    +0.000 OA
ATOM     18  C   UNL     1       6.406   3.877  13.106  0.00  0.00    +0.000 A 
ATOM     19  C   UNL     1       5.890   3.019  12.026  0.00  0.00    +0.000 C 
ATOM     20  N   UNL     1       6.136   3.841  14.387  0.00  0.00    +0.000 NA
ENDBRANCH  14  15
ENDBRANCH   5  14
TORSDOF 7
ENDMDL
MODEL 2
REMARK VINA RESULT:      -6.7      1.318      1.942
REMARK  Name = 
REMARK  10 active torsions:
REMARK  status: ('A' for Active; 'I' for Inactive)
REMARK    1  A    between atoms: C_1  and  O_2
REMARK    2  A    between atoms: O_2  and  C_3
REMARK    3  A    between atoms: C_3  and  C_4
REMARK    4  A    between atoms: C_4  and  C_5
REMARK    5  A    between atoms: C_5  and  N_6
REMARK    6  A    between atoms: N_6  and  C_7
REMARK    7  A    between atoms: N_6  and  C_8
REMARK    8  A    between atoms: N_12  and  C_13
REMARK    9  A    between atoms: C_13  and  C_14
REMARK   10  A    between atoms: C_17  and  C_18
REMARK                            x       y       z     vdW  Elec       q    Type
REMARK                         _______ _______ _______ _____ _____    ______ ____
ROOT
ATOM      1  C   UNL     1       3.755   5.431  19.930  0.00  0.00    +0.000 C 
ATOM      2  C   UNL     1       3.052   6.572  19.166  0.00  0.00    +0.000 C 
ATOM      3  C   UNL     1       3.171   6.452  17.652  0.00  0.00    +0.000 C 
ATOM      4  C   UNL     1       4.602   6.158  17.181  0.00  0.00    +0.000 C 
ATOM      5  N   UNL     1       5.216   5.069  17.936  0.00  0.00    +0.000 NA
ATOM      6  C   UNL     1       5.208   5.311  19.382  0.00  0.00    +0.000 C 
ENDROOT
BRANCH   1   7
ATOM      7  N   UNL     1       3.056   4.120  20.035  0.00  0.00    +0.000 NA
ATOM      8  C   UNL     1       2.344   3.857  21.287  0.00  0.00    +0.000 C 
BRANCH   7   9
ATOM      9  C   UNL     1       3.897   2.976  19.648  0.00  0.00    +0.000 C 
BRANCH   9  10
ATOM     10  C   UNL     1       3.155   2.009  18.719  0.00  0.00    +0.000 C 
BRANCH  10  11
ATOM     11  C   UNL     1       2.592   2.687  17.482  0.00  0.00    +0.000 C 
BRANCH  11  13
ATOM     12  C   UNL     1       0.613   2.128  18.643  0.00  0.00    +0.000 C 
ATOM     13  O   UNL     1       1.255   3.072  17.802  0.00  0.00    +0.000 OA
ENDBRANCH  11  13
ENDBRANCH  10  11
ENDBRANCH   9  10
ENDBRANCH   7   9
ENDBRANCH   1   7
BRANCH   5  14
ATOM     14  C   UNL     1       6.523   4.610  17.443  0.00  0.00    +0.000 C 
BRANCH  14  15
ATOM     15  C   UNL     1       6.588   4.720  15.948  0.00  0.00    +0.000 A 
ATOM     16  N   UNL     1       7.387   5.579  15.305  0.00  0.00    +0.000 NA
ATOM     17  O   UNL     1       7.262   5.189  13.969  0.00  0.00    +0.000 OA
ATOM     18  C   UNL     1       6.385   4.144  13.952  0.00  0.00    +0.000 A 
ATOM     19  C   UNL     1       6.162   3.471  12.663  0.00  0.00    +0.000 C 
ATOM     20  N   UNL     1       5.900   3.845  15.132  0.00  0.00    +0.000 NA
ENDBRANCH  14  15
ENDBRANCH   5  14
TORSDOF 7
ENDMDL
MODEL 3
REMARK VINA RESULT:      -6.5      2.549      3.753
REMARK  Name = 
REMARK  10 active torsions:
REMARK  status: ('A' for Active; 'I' for Inactive)
REMARK    1  A    between atoms: C_1  and  O_2
REMARK    2  A    between atoms: O_2  and  C_3
REMARK    3  A    between atoms: C_3  and  C_4
REMARK    4  A    between atoms: C_4  and  C_5
REMARK    5  A    between atoms: C_5  and  N_6
REMARK    6  A    between atoms: N_6  and  C_7
REMARK    7  A    between atoms: N_6  and  C_8
REMARK    8  A    between atoms: N_12  and  C_13
REMARK    9  A    between atoms: C_13  and  C_14
REMARK   10  A    between atoms: C_17  and  C_18
REMARK                            x       y       z     vdW  Elec       q    Type
REMARK                         _______ _______ _______ _____ _____    ______ ____
ROOT
ATOM      1  C   UNL     1       2.638   5.732  17.944  0.00  0.00    +0.000 C 
ATOM      2  C   UNL     1       1.816   4.454  17.680  0.00  0.00    +0.000 C 
ATOM      3  C   UNL     1       2.522   3.178  18.123  0.00  0.00    +0.000 C 
ATOM      4  C   UNL     1       3.982   3.104  17.656  0.00  0.00    +0.000 C 
ATOM      5  N   UNL     1       4.711   4.339  17.934  0.00  0.00    +0.000 NA
ATOM      6  C   UNL     1       4.063   5.518  17.352  0.00  0.00    +0.000 C 
ENDROOT
BRANCH   1   7
ATOM      7  N   UNL     1       2.652   6.286  19.327  0.00  0.00    +0.000 NA
ATOM      8  C   UNL     1       2.094   5.434  20.379  0.00  0.00    +0.000 C 
BRANCH   7   9
ATOM      9  C   UNL     1       2.122   7.657  19.413  0.00  0.00    +0.000 C 
BRANCH   9  10
ATOM     10  C   UNL     1       2.148   8.367  18.056  0.00  0.00    +0.000 C 
BRANCH  10  11
ATOM     11  C   UNL     1       1.382   9.678  18.055  0.00  0.00    +0.000 C 
BRANCH  11  13
ATOM     12  C   UNL     1      -0.527  10.541  19.144  0.00  0.00    +0.000 C 
ATOM     13  O   UNL     1       0.608   9.699  19.254  0.00  0.00    +0.000 OA
ENDBRANCH  11  13
ENDBRANCH  10  11
ENDBRANCH   9  10
ENDBRANCH   7   9
ENDBRANCH   1   7
BRANCH   5  14
ATOM     14  C   UNL     1       6.157   4.298  17.672  0.00  0.00    +0.000 C 
BRANCH  14  15
ATOM     15  C   UNL     1       6.441   4.623  16.235  0.00  0.00    +0.000 A 
ATOM     16  N   UNL     1       7.260   5.607  15.848  0.00  0.00    +0.000 NA
ATOM     17  O   UNL     1       7.370   5.404  14.470  0.00  0.00    +0.000 OA
ATOM     18  C   UNL     1       6.588   4.325  14.175  0.00  0.00    +0.000 A 
ATOM     19  C   UNL     1       6.616   3.831  12.789  0.00  0.00    +0.000 C 
ATOM     20  N   UNL     1       5.953   3.836  15.211  0.00  0.00    +0.000 NA
ENDBRANCH  14  15
ENDBRANCH   5  14
TORSDOF 7
ENDMDL
MODEL 4
REMARK VINA RESULT:      -6.5      2.922      4.604
REMARK  Name = 
REMARK  10 active torsions:
REMARK  status: ('A' for Active; 'I' for Inactive)
REMARK    1  A    between atoms: C_1  and  O_2
REMARK    2  A    between atoms: O_2  and  C_3
REMARK    3  A    between atoms: C_3  and  C_4
REMARK    4  A    between atoms: C_4  and  C_5
REMARK    5  A    between atoms: C_5  and  N_6
REMARK    6  A    between atoms: N_6  and  C_7
REMARK    7  A    between atoms: N_6  and  C_8
REMARK    8  A    between atoms: N_12  and  C_13
REMARK    9  A    between atoms: C_13  and  C_14
REMARK   10  A    between atoms: C_17  and  C_18
REMARK                            x       y       z     vdW  Elec       q    Type
REMARK                         _______ _______ _______ _____ _____    ______ ____
ROOT
ATOM      1  C   UNL     1       1.941   4.446  18.510  0.00  0.00    +0.000 C 
ATOM      2  C   UNL     1       1.445   2.997  18.694  0.00  0.00    +0.000 C 
ATOM      3  C   UNL     1       2.574   1.988  18.868  0.00  0.00    +0.000 C 
ATOM      4  C   UNL     1       3.693   2.151  17.831  0.00  0.00    +0.000 C 
ATOM      5  N   UNL     1       4.124   3.541  17.700  0.00  0.00    +0.000 NA
ATOM      6  C   UNL     1       3.016   4.446  17.382  0.00  0.00    +0.000 C 
ENDROOT
BRANCH   1   7
ATOM      7  N   UNL     1       2.358   5.206  19.721  0.00  0.00    +0.000 NA
ATOM      8  C   UNL     1       1.317   5.477  20.715  0.00  0.00    +0.000 C 
BRANCH   7   9
ATOM      9  C   UNL     1       3.131   6.420  19.412  0.00  0.00    +0.000 C 
BRANCH   9  10
ATOM     10  C   UNL     1       2.233   7.558  18.915  0.00  0.00    +0.000 C 
BRANCH  10  11
ATOM     11  C   UNL     1       2.728   8.188  17.625  0.00  0.00    +0.000 C 
BRANCH  11  13
ATOM     12  C   UNL     1       1.092   9.636  18.519  0.00  0.00    +0.000 C 
ATOM     13  O   UNL     1       2.066   9.447  17.507  0.00  0.00    +0.000 OA
ENDBRANCH  11  13
ENDBRANCH  10  11
ENDBRANCH   9  10
ENDBRANCH   7   9
ENDBRANCH   1   7
BRANCH   5  14
ATOM     14  C   UNL     1       5.304   3.765  16.852  0.00  0.00    +0.000 C 
BRANCH  14  15
ATOM     15  C   UNL     1       6.210   4.787  17.473  0.00  0.00    +0.000 A 
ATOM     16  N   UNL     1       7.214   4.479  18.302  0.00  0.00    +0.000 NA
ATOM     17  O   UNL     1       7.884   5.695  18.455  0.00  0.00    +0.000 OA
ATOM     18  C   UNL     1       7.197   6.610  17.711  0.00  0.00    +0.000 A 
ATOM     19  C   UNL     1       7.768   7.964  17.613  0.00  0.00    +0.000 C 
ATOM     20  N   UNL     1       6.131   6.121  17.127  0.00  0.00    +0.000 NA
ENDBRANCH  14  15
ENDBRANCH   5  14
TORSDOF 7
ENDMDL
MODEL 5
REMARK VINA RESULT:      -6.5      1.037      1.139
REMARK  Name = 
REMARK  10 active torsions:
REMARK  status: ('A' for Active; 'I' for Inactive)
REMARK    1  A    between atoms: C_1  and  O_2
REMARK    2  A    between atoms: O_2  and  C_3
REMARK    3  A    between atoms: C_3  and  C_4
REMARK    4  A    between atoms: C_4  and  C_5
REMARK    5  A    between atoms: C_5  and  N_6
REMARK    6  A    between atoms: N_6  and  C_7
REMARK    7  A    between atoms: N_6  and  C_8
REMARK    8  A    between atoms: N_12  and  C_13
REMARK    9  A    between atoms: C_13  and  C_14
REMARK   10  A    between atoms: C_17  and  C_18
REMARK                            x       y       z     vdW  Elec       q    Type
REMARK                         _______ _______ _______ _____ _____    ______ ____
ROOT
ATOM      1  C   UNL     1       3.869   4.466  19.018  0.00  0.00    +0.000 C 
ATOM      2  C   UNL     1       3.566   5.976  19.100  0.00  0.00    +0.000 C 
ATOM      3  C   UNL     1       4.034   6.756  17.877  0.00  0.00    +0.000 C 
ATOM      4  C   UNL     1       5.471   6.417  17.459  0.00  0.00    +0.000 C 
ATOM      5  N   UNL     1       5.700   4.975  17.395  0.00  0.00    +0.000 NA
ATOM      6  C   UNL     1       5.375   4.298  18.654  0.00  0.00    +0.000 C 
ENDROOT
BRANCH   1   7
ATOM      7  N   UNL     1       2.967   3.612  18.197  0.00  0.00    +0.000 NA
ATOM      8  C   UNL     1       3.377   3.366  16.813  0.00  0.00    +0.000 C 
BRANCH   7   9
ATOM      9  C   UNL     1       1.553   4.014  18.271  0.00  0.00    +0.000 C 
BRANCH   9  10
ATOM     10  C   UNL     1       0.949   3.733  19.651  0.00  0.00    +0.000 C 
BRANCH  10  11
ATOM     11  C   UNL     1       1.124   2.291  20.095  0.00  0.00    +0.000 C 
BRANCH  11  13
ATOM     12  C   UNL     1       2.085   3.657  21.764  0.00  0.00    +0.000 C 
ATOM     13  O   UNL     1       1.774   2.333  21.366  0.00  0.00    +0.000 OA
ENDBRANCH  11  13
ENDBRANCH  10  11
ENDBRANCH   9  10
ENDBRANCH   7   9
ENDBRANCH   1   7
BRANCH   5  14
ATOM     14  C   UNL     1       6.997   4.560  16.844  0.00  0.00    +0.000 C 
BRANCH  14  15
ATOM     15  C   UNL     1       6.990   4.666  15.347  0.00  0.00    +0.000 A 
ATOM     16  N   UNL     1       7.784   5.494  14.660  0.00  0.00    +0.000 NA
ATOM     17  O   UNL     1       7.577   5.107  13.334  0.00  0.00    +0.000 OA
ATOM     18  C   UNL     1       6.664   4.093  13.367  0.00  0.00    +0.000 A 
ATOM     19  C   UNL     1       6.352   3.426  12.092  0.00  0.00    +0.000 C 
ATOM     20  N   UNL     1       6.230   3.813  14.571  0.00  0.00    +0.000 NA
ENDBRANCH  14  15
ENDBRANCH   5  14
TORSDOF 7
ENDMDL
MODEL 6
REMARK VINA RESULT:      -6.4      1.289      1.672
REMARK  Name = 
REMARK  10 active torsions:
REMARK  status: ('A' for Active; 'I' for Inactive)
REMARK    1  A    between atoms: C_1  and  O_2
REMARK    2  A    between atoms: O_2  and  C_3
REMARK    3  A    between atoms: C_3  and  C_4
REMARK    4  A    between atoms: C_4  and  C_5
REMARK    5  A    between atoms: C_5  and  N_6
REMARK    6  A    between atoms: N_6  and  C_7
REMARK    7  A    between atoms: N_6  and  C_8
REMARK    8  A    between atoms: N_12  and  C_13
REMARK    9  A    between atoms: C_13  and  C_14
REMARK   10  A    between atoms: C_17  and  C_18
REMARK                            x       y       z     vdW  Elec       q    Type
REMARK                         _______ _______ _______ _____ _____    ______ ____
ROOT
ATOM      1  C   UNL     1       4.078   5.150  19.469  0.00  0.00    +0.000 C 
ATOM      2  C   UNL     1       3.255   6.429  19.213  0.00  0.00    +0.000 C 
ATOM      3  C   UNL     1       3.369   6.949  17.786  0.00  0.00    +0.000 C 
ATOM      4  C   UNL     1       4.817   7.013  17.282  0.00  0.00    +0.000 C 
ATOM      5  N   UNL     1       5.548   5.776  17.548  0.00  0.00    +0.000 NA
ATOM      6  C   UNL     1       5.530   5.406  18.966  0.00  0.00    +0.000 C 
ENDROOT
BRANCH   1   7
ATOM      7  N   UNL     1       3.517   3.849  19.010  0.00  0.00    +0.000 NA
ATOM      8  C   UNL     1       4.484   2.810  18.649  0.00  0.00    +0.000 C 
BRANCH   7   9
ATOM      9  C   UNL     1       2.477   3.992  17.978  0.00  0.00    +0.000 C 
BRANCH   9  10
ATOM     10  C   UNL     1       1.179   3.280  18.372  0.00  0.00    +0.000 C 
BRANCH  10  11
ATOM     11  C   UNL     1       0.789   3.511  19.821  0.00  0.00    +0.000 C 
BRANCH  11  13
ATOM     12  C   UNL     1       1.780   2.757  21.828  0.00  0.00    +0.000 C 
ATOM     13  O   UNL     1       1.273   2.387  20.557  0.00  0.00    +0.000 OA
ENDBRANCH  11  13
ENDBRANCH  10  11
ENDBRANCH   9  10
ENDBRANCH   7   9
ENDBRANCH   1   7
BRANCH   5  14
ATOM     14  C   UNL     1       6.889   5.687  16.952  0.00  0.00    +0.000 C 
BRANCH  14  15
ATOM     15  C   UNL     1       6.843   4.915  15.667  0.00  0.00    +0.000 A 
ATOM     16  N   UNL     1       6.073   3.837  15.479  0.00  0.00    +0.000 NA
ATOM     17  O   UNL     1       6.202   3.588  14.111  0.00  0.00    +0.000 OA
ATOM     18  C   UNL     1       7.053   4.539  13.625  0.00  0.00    +0.000 A 
ATOM     19  C   UNL     1       7.272   4.567  12.169  0.00  0.00    +0.000 C 
ATOM     20  N   UNL     1       7.517   5.350  14.543  0.00  0.00    +0.000 NA
ENDBRANCH  14  15
ENDBRANCH   5  14
TORSDOF 7
ENDMDL
MODEL 7
REMARK VINA RESULT:      -6.4      1.564      1.982
REMARK  Name = 
REMARK  10 active torsions:
REMARK  status: ('A' for Active; 'I' for Inactive)
REMARK    1  A    between atoms: C_1  and  O_2
REMARK    2  A    between atoms: O_2  and  C_3
REMARK    3  A    between atoms: C_3  and  C_4
REMARK    4  A    between atoms: C_4  and  C_5
REMARK    5  A    between atoms: C_5  and  N_6
REMARK    6  A    between atoms: N_6  and  C_7
REMARK    7  A    between atoms: N_6  and  C_8
REMARK    8  A    between atoms: N_12  and  C_13
REMARK    9  A    between atoms: C_13  and  C_14
REMARK   10  A    between atoms: C_17  and  C_18
REMARK                            x       y       z     vdW  Elec       q    Type
REMARK                         _______ _______ _______ _____ _____    ______ ____
ROOT
ATOM      1  C   UNL     1       3.373   4.970  19.040  0.00  0.00    +0.000 C 
ATOM      2  C   UNL     1       2.285   6.018  19.349  0.00  0.00    +0.000 C 
ATOM      3  C   UNL     1       2.187   7.118  18.299  0.00  0.00    +0.000 C 
ATOM      4  C   UNL     1       3.550   7.710  17.917  0.00  0.00    +0.000 C 
ATOM      5  N   UNL     1       4.540   6.673  17.633  0.00  0.00    +0.000 NA
ATOM      6  C   UNL     1       4.701   5.730  18.743  0.00  0.00    +0.000 C 
ENDROOT
BRANCH   1   7
ATOM      7  N   UNL     1       3.065   3.910  18.040  0.00  0.00    +0.000 NA
ATOM      8  C   UNL     1       1.686   3.853  17.551  0.00  0.00    +0.000 C 
BRANCH   7   9
ATOM      9  C   UNL     1       3.548   2.576  18.434  0.00  0.00    +0.000 C 
BRANCH   9  10
ATOM     10  C   UNL     1       2.833   2.056  19.685  0.00  0.00    +0.000 C 
BRANCH  10  11
ATOM     11  C   UNL     1       3.650   2.230  20.953  0.00  0.00    +0.000 C 
BRANCH  11  13
ATOM     12  C   UNL     1       1.432   2.841  21.485  0.00  0.00    +0.000 C 
ATOM     13  O   UNL     1       2.725   2.559  21.991  0.00  0.00    +0.000 OA
ENDBRANCH  11  13
ENDBRANCH  10  11
ENDBRANCH   9  10
ENDBRANCH   7   9
ENDBRANCH   1   7
BRANCH   5  14
ATOM     14  C   UNL     1       5.824   7.148  17.098  0.00  0.00    +0.000 C 
BRANCH  14  15
ATOM     15  C   UNL     1       6.359   6.182  16.082  0.00  0.00    +0.000 A 
ATOM     16  N   UNL     1       7.568   5.615  16.165  0.00  0.00    +0.000 NA
ATOM     17  O   UNL     1       7.544   4.665  15.142  0.00  0.00    +0.000 OA
ATOM     18  C   UNL     1       6.323   4.774  14.541  0.00  0.00    +0.000 A 
ATOM     19  C   UNL     1       5.999   3.797  13.490  0.00  0.00    +0.000 C 
ATOM     20  N   UNL     1       5.573   5.724  15.043  0.00  0.00    +0.000 NA
ENDBRANCH  14  15
ENDBRANCH   5  14
TORSDOF 7
ENDMDL
MODEL 8
REMARK VINA RESULT:      -6.4      1.047      1.264
REMARK  Name = 
REMARK  10 active torsions:
REMARK  status: ('A' for Active; 'I' for Inactive)
REMARK    1  A    between atoms: C_1  and  O_2
REMARK    2  A    between atoms: O_2  and  C_3
REMARK    3  A    between atoms: C_3  and  C_4
REMARK    4  A    between atoms: C_4  and  C_5
REMARK    5  A    between atoms: C_5  and  N_6
REMARK    6  A    between atoms: N_6  and  C_7
REMARK    7  A    between atoms: N_6  and  C_8
REMARK    8  A    between atoms: N_12  and  C_13
REMARK    9  A    between atoms: C_13  and  C_14
REMARK   10  A    between atoms: C_17  and  C_18
REMARK                            x       y       z     vdW  Elec       q    Type
REMARK                         _______ _______ _______ _____ _____    ______ ____
ROOT
ATOM      1  C   UNL     1       4.842   4.621  19.349  0.00  0.00    +0.000 C 
ATOM      2  C   UNL     1       3.815   5.771  19.391  0.00  0.00    +0.000 C 
ATOM      3  C   UNL     1       3.593   6.434  18.037  0.00  0.00    +0.000 C 
ATOM      4  C   UNL     1       4.901   6.776  17.311  0.00  0.00    +0.000 C 
ATOM      5  N   UNL     1       5.834   5.651  17.300  0.00  0.00    +0.000 NA
ATOM      6  C   UNL     1       6.128   5.151  18.646  0.00  0.00    +0.000 C 
ENDROOT
BRANCH   1   7
ATOM      7  N   UNL     1       4.395   3.296  18.836  0.00  0.00    +0.000 NA
ATOM      8  C   UNL     1       3.300   3.307  17.863  0.00  0.00    +0.000 C 
BRANCH   7   9
ATOM      9  C   UNL     1       4.155   2.307  19.899  0.00  0.00    +0.000 C 
BRANCH   9  10
ATOM     10  C   UNL     1       2.668   2.195  20.250  0.00  0.00    +0.000 C 
BRANCH  10  11
ATOM     11  C   UNL     1       2.339   2.735  21.631  0.00  0.00    +0.000 C 
BRANCH  11  13
ATOM     12  C   UNL     1       0.871   4.121  20.407  0.00  0.00    +0.000 C 
ATOM     13  O   UNL     1       1.837   4.058  21.442  0.00  0.00    +0.000 OA
ENDBRANCH  11  13
ENDBRANCH  10  11
ENDBRANCH   9  10
ENDBRANCH   7   9
ENDBRANCH   1   7
BRANCH   5  14
ATOM     14  C   UNL     1       7.042   5.834  16.484  0.00  0.00    +0.000 C 
BRANCH  14  15
ATOM     15  C   UNL     1       6.968   4.996  15.242  0.00  0.00    +0.000 A 
ATOM     16  N   UNL     1       6.209   3.900  15.133  0.00  0.00    +0.000 NA
ATOM     17  O   UNL     1       6.301   3.583  13.776  0.00  0.00    +0.000 OA
ATOM     18  C   UNL     1       7.122   4.519  13.216  0.00  0.00    +0.000 A 
ATOM     19  C   UNL     1       7.296   4.474  11.755  0.00  0.00    +0.000 C 
ATOM     20  N   UNL     1       7.602   5.382  14.077  0.00  0.00    +0.000 NA
ENDBRANCH  14  15
ENDBRANCH   5  14
TORSDOF 7
ENDMDL
MODEL 9
REMARK VINA RESULT:      -6.4      2.901      4.559
REMARK  Name = 
REMARK  10 active torsions:
REMARK  status: ('A' for Active; 'I' for Inactive)
REMARK    1  A    between atoms: C_1  and  O_2
REMARK    2  A    between atoms: O_2  and  C_3
REMARK    3  A    between atoms: C_3  and  C_4
REMARK    4  A    between atoms: C_4  and  C_5
REMARK    5  A    between atoms: C_5  and  N_6
REMARK    6  A    between atoms: N_6  and  C_7
REMARK    7  A    between atoms: N_6  and  C_8
REMARK    8  A    between atoms: N_12  and  C_13
REMARK    9  A    between atoms: C_13  and  C_14
REMARK   10  A    between atoms: C_17  and  C_18
REMARK                            x       y       z     vdW  Elec       q    Type
REMARK                         _______ _______ _______ _____ _____    ______ ____
ROOT
ATOM      1  C   UNL     1       2.049   4.852  18.492  0.00  0.00    +0.000 C 
ATOM      2  C   UNL     1       1.457   3.430  18.576  0.00  0.00    +0.000 C 
ATOM      3  C   UNL     1       2.511   2.345  18.762  0.00  0.00    +0.000 C 
ATOM      4  C   UNL     1       3.697   2.484  17.798  0.00  0.00    +0.000 C 
ATOM      5  N   UNL     1       4.218   3.849  17.760  0.00  0.00    +0.000 NA
ATOM      6  C   UNL     1       3.186   4.836  17.427  0.00  0.00    +0.000 C 
ENDROOT
BRANCH   1   7
ATOM      7  N   UNL     1       2.441   5.527  19.760  0.00  0.00    +0.000 NA
ATOM      8  C   UNL     1       1.905   4.956  20.998  0.00  0.00    +0.000 C 
BRANCH   7   9
ATOM      9  C   UNL     1       2.261   6.988  19.724  0.00  0.00    +0.000 C 
BRANCH   9  10
ATOM     10  C   UNL     1       1.573   7.510  20.989  0.00  0.00    +0.000 C 
BRANCH  10  11
ATOM     11  C   UNL     1       0.877   8.844  20.781  0.00  0.00    +0.000 C 
BRANCH  11  13
ATOM     12  C   UNL     1      -0.229   9.411  22.789  0.00  0.00    +0.000 C 
ATOM     13  O   UNL     1      -0.343   8.786  21.522  0.00  0.00    +0.000 OA
ENDBRANCH  11  13
ENDBRANCH  10  11
ENDBRANCH   9  10
ENDBRANCH   7   9
ENDBRANCH   1   7
BRANCH   5  14
ATOM     14  C   UNL     1       5.456   4.037  16.991  0.00  0.00    +0.000 C 
BRANCH  14  15
ATOM     15  C   UNL     1       6.317   5.086  17.631  0.00  0.00    +0.000 A 
ATOM     16  N   UNL     1       7.200   4.826  18.602  0.00  0.00    +0.000 NA
ATOM     17  O   UNL     1       7.891   6.032  18.734  0.00  0.00    +0.000 OA
ATOM     18  C   UNL     1       7.337   6.896  17.834  0.00  0.00    +0.000 A 
ATOM     19  C   UNL     1       7.965   8.219  17.694  0.00  0.00    +0.000 C 
ATOM     20  N   UNL     1       6.332   6.385  17.165  0.00  0.00    +0.000 NA
ENDBRANCH  14  15
ENDBRANCH   5  14
TORSDOF 7
ENDMDL
