MODEL 1
REMARK VINA RESULT:      -6.6      0.000      0.000
REMARK  Name = 
REMARK  10 active torsions:
REMARK  status: ('A' for Active; 'I' for Inactive)
REMARK    1  A    between atoms: C_2  and  C_3
REMARK    2  A    between atoms: C_3  and  O_4
REMARK    3  A    between atoms: O_4  and  C_5
REMARK    4  A    between atoms: C_8  and  C_9
REMARK    5  A    between atoms: C_9  and  N_10
REMARK    6  A    between atoms: N_10  and  C_11
REMARK    7  A    between atoms: C_11  and  C_12
REMARK    8  A    between atoms: C_19  and  O_20
REMARK    9  A    between atoms: O_20  and  C_21
REMARK   10  A    between atoms: C_21  and  C_22
REMARK                            x       y       z     vdW  Elec       q    Type
REMARK                         _______ _______ _______ _____ _____    ______ ____
ROOT
ATOM      1  C   UNL     1       5.437   4.497  15.638  0.00  0.00    +0.000 A 
ATOM      2  C   UNL     1       5.477   5.893  15.483  0.00  0.00    +0.000 A 
ATOM      3  C   UNL     1       4.754   6.745  16.319  0.00  0.00    +0.000 A 
ATOM      4  C   UNL     1       3.950   6.223  17.328  0.00  0.00    +0.000 A 
ATOM      5  C   UNL     1       3.847   4.827  17.439  0.00  0.00    +0.000 A 
ATOM      6  C   UNL     1       4.561   3.956  16.595  0.00  0.00    +0.000 A 
ENDROOT
BRANCH   1   7
ATOM      7  O   UNL     1       6.230   3.668  14.872  0.00  0.00    +0.000 OA
BRANCH   7   8
ATOM      8  C   UNL     1       6.640   4.235  13.621  0.00  0.00    +0.000 C 
BRANCH   8  10
ATOM      9  C   UNL     1       4.931   3.335  11.962  0.00  0.00    +0.000 C 
ATOM     10  C   UNL     1       6.182   3.445  12.431  0.00  0.00    +0.000 C 
ENDBRANCH   8  10
ENDBRANCH   7   8
ENDBRANCH   1   7
BRANCH   4  11
ATOM     11  C   UNL     1       3.212   7.137  18.274  0.00  0.00    +0.000 C 
BRANCH  11  12
ATOM     12  N   UNL     1       3.291   6.629  19.639  0.00  0.00    +0.000 NA
ATOM     13  H   UNL     1       3.824   7.284  20.210  0.00  0.00    +0.000 HD
BRANCH  12  14
ATOM     14  C   UNL     1       1.971   6.434  20.227  0.00  0.00    +0.000 C 
BRANCH  14  15
ATOM     15  C   UNL     1       1.783   4.999  20.636  0.00  0.00    +0.000 A 
ATOM     16  C   UNL     1       0.882   4.162  19.967  0.00  0.00    +0.000 A 
ATOM     17  C   UNL     1       0.742   2.836  20.362  0.00  0.00    +0.000 A 
ATOM     18  C   UNL     1       1.507   2.385  21.424  0.00  0.00    +0.000 A 
ATOM     19  N   UNL     1       2.381   3.160  22.104  0.00  0.00    +0.000 NA
ATOM     20  C   UNL     1       2.498   4.446  21.694  0.00  0.00    +0.000 A 
ENDBRANCH  14  15
ENDBRANCH  12  14
ENDBRANCH  11  12
ENDBRANCH   4  11
BRANCH   6  21
ATOM     21  O   UNL     1       4.315   2.640  16.881  0.00  0.00    +0.000 OA
BRANCH  21  22
ATOM     22  C   UNL     1       3.209   2.332  17.720  0.00  0.00    +0.000 C 
ATOM     23  C   UNL     1       3.669   1.306  18.749  0.00  0.00    +0.000 C 
ENDBRANCH  21  22
ENDBRANCH   6  21
TORSDOF 9
ENDMDL
MODEL 2
REMARK VINA RESULT:      -6.5      1.808      2.827
REMARK  Name = 
REMARK  10 active torsions:
REMARK  status: ('A' for Active; 'I' for Inactive)
REMARK    1  A    between atoms: C_2  and  C_3
REMARK    2  A    between atoms: C_3  and  O_4
REMARK    3  A    between atoms: O_4  and  C_5
REMARK    4  A    between atoms: C_8  and  C_9
REMARK    5  A    between atoms: C_9  and  N_10
REMARK    6  A    between atoms: N_10  and  C_11
REMARK    7  A    between atoms: C_11  and  C_12
REMARK    8  A    between atoms: C_19  and  O_20
REMARK    9  A    between atoms: O_20  and  C_21
REMARK   10  A    between atoms: C_21  and  C_22
REMARK                            x       y       z     vdW  Elec       q    Type
REMARK                         _______ _______ _______ _____ _____    ______ ____
ROOT
ATOM      1  C   UNL     1       5.748   5.269  16.028  0.00  0.00    +0.000 A 
ATOM      2  C   UNL     1       4.596   4.523  16.330  0.00  0.00    +0.000 A 
ATOM      3  C   UNL     1       3.616   5.007  17.198  0.00  0.00    +0.000 A 
ATOM      4  C   UNL     1       3.768   6.250  17.807  0.00  0.00    +0.000 A 
ATOM      5  C   UNL     1       4.953   6.965  17.567  0.00  0.00    +0.000 A 
ATOM      6  C   UNL     1       5.955   6.484  16.703  0.00  0.00    +0.000 A 
ENDROOT
BRANCH   1   7
ATOM      7  O   UNL     1       6.663   4.827  15.094  0.00  0.00    +0.000 OA
BRANCH   7   8
ATOM      8  C   UNL     1       6.267   3.639  14.397  0.00  0.00    +0.000 C 
BRANCH   8  10
ATOM      9  C   UNL     1       5.789   2.916  12.003  0.00  0.00    +0.000 C 
ATOM     10  C   UNL     1       6.114   3.840  12.918  0.00  0.00    +0.000 C 
ENDBRANCH   8  10
ENDBRANCH   7   8
ENDBRANCH   1   7
BRANCH   4  11
ATOM     11  C   UNL     1       2.688   6.806  18.699  0.00  0.00    +0.000 C 
BRANCH  11  12
ATOM     12  N   UNL     1       2.927   6.427  20.087  0.00  0.00    +0.000 NA
ATOM     13  H   UNL     1       3.042   7.269  20.649  0.00  0.00    +0.000 HD
BRANCH  12  14
ATOM     14  C   UNL     1       1.839   5.623  20.631  0.00  0.00    +0.000 C 
BRANCH  14  15
ATOM     15  C   UNL     1       1.898   4.221  20.090  0.00  0.00    +0.000 A 
ATOM     16  C   UNL     1       0.809   3.651  19.419  0.00  0.00    +0.000 A 
ATOM     17  C   UNL     1       0.901   2.357  18.920  0.00  0.00    +0.000 A 
ATOM     18  C   UNL     1       2.084   1.665  19.111  0.00  0.00    +0.000 A 
ATOM     19  N   UNL     1       3.156   2.172  19.760  0.00  0.00    +0.000 NA
ATOM     20  C   UNL     1       3.037   3.436  20.232  0.00  0.00    +0.000 A 
ENDBRANCH  14  15
ENDBRANCH  12  14
ENDBRANCH  11  12
ENDBRANCH   4  11
BRANCH   6  21
ATOM     21  O   UNL     1       7.017   7.343  16.614  0.00  0.00    +0.000 OA
BRANCH  21  22
ATOM     22  C   UNL     1       7.620   7.791  17.820  0.00  0.00    +0.000 C 
ATOM     23  C   UNL     1       8.070   6.566  18.608  0.00  0.00    +0.000 C 
ENDBRANCH  21  22
ENDBRANCH   6  21
TORSDOF 9
ENDMDL
MODEL 3
REMARK VINA RESULT:      -6.4      2.735      6.990
REMARK  Name = 
REMARK  10 active torsions:
REMARK  status: ('A' for Active; 'I' for Inactive)
REMARK    1  A    between atoms: C_2  and  C_3
REMARK    2  A    between atoms: C_3  and  O_4
REMARK    3  A    between atoms: O_4  and  C_5
REMARK    4  A    between atoms: C_8  and  C_9
REMARK    5  A    between atoms: C_9  and  N_10
REMARK    6  A    between atoms: N_10  and  C_11
REMARK    7  A    between atoms: C_11  and  C_12
REMARK    8  A    between atoms: C_19  and  O_20
REMARK    9  A    between atoms: O_20  and  C_21
REMARK   10  A    between atoms: C_21  and  C_22
REMARK                            x       y       z     vdW  Elec       q    Type
REMARK                         _______ _______ _______ _____ _____    ______ ____
ROOT
ATOM      1  C   UNL     1       2.517   3.822  17.767  0.00  0.00    +0.000 A 
ATOM      2  C   UNL     1       3.524   2.853  17.621  0.00  0.00    +0.000 A 
ATOM      3  C   UNL     1       4.877   3.184  17.695  0.00  0.00    +0.000 A 
ATOM      4  C   UNL     1       5.267   4.505  17.901  0.00  0.00    +0.000 A 
ATOM      5  C   UNL     1       4.267   5.488  17.972  0.00  0.00    +0.000 A 
ATOM      6  C   UNL     1       2.899   5.169  17.887  0.00  0.00    +0.000 A 
ENDROOT
BRANCH   1   7
ATOM      7  O   UNL     1       1.182   3.472  17.791  0.00  0.00    +0.000 OA
BRANCH   7   8
ATOM      8  C   UNL     1       0.828   2.575  18.852  0.00  0.00    +0.000 C 
BRANCH   8  10
ATOM      9  C   UNL     1       1.555   2.979  21.258  0.00  0.00    +0.000 C 
ATOM     10  C   UNL     1       0.777   3.237  20.198  0.00  0.00    +0.000 C 
ENDBRANCH   8  10
ENDBRANCH   7   8
ENDBRANCH   1   7
BRANCH   4  11
ATOM     11  C   UNL     1       6.725   4.863  18.042  0.00  0.00    +0.000 C 
BRANCH  11  12
ATOM     12  N   UNL     1       7.420   4.679  16.772  0.00  0.00    +0.000 NA
ATOM     13  H   UNL     1       7.276   3.724  16.447  0.00  0.00    +0.000 HD
BRANCH  12  14
ATOM     14  C   UNL     1       6.958   5.616  15.754  0.00  0.00    +0.000 C 
BRANCH  14  15
ATOM     15  C   UNL     1       6.749   4.909  14.444  0.00  0.00    +0.000 A 
ATOM     16  C   UNL     1       7.667   5.032  13.394  0.00  0.00    +0.000 A 
ATOM     17  C   UNL     1       7.450   4.355  12.199  0.00  0.00    +0.000 A 
ATOM     18  C   UNL     1       6.313   3.574  12.087  0.00  0.00    +0.000 A 
ATOM     19  N   UNL     1       5.396   3.434  13.070  0.00  0.00    +0.000 NA
ATOM     20  C   UNL     1       5.636   4.103  14.223  0.00  0.00    +0.000 A 
ENDBRANCH  14  15
ENDBRANCH  12  14
ENDBRANCH  11  12
ENDBRANCH   4  11
BRANCH   6  21
ATOM     21  O   UNL     1       2.102   6.279  17.984  0.00  0.00    +0.000 OA
BRANCH  21  22
ATOM     22  C   UNL     1       2.690   7.488  18.446  0.00  0.00    +0.000 C 
ATOM     23  C   UNL     1       1.928   8.652  17.824  0.00  0.00    +0.000 C 
ENDBRANCH  21  22
ENDBRANCH   6  21
TORSDOF 9
ENDMDL
MODEL 4
REMARK VINA RESULT:      -6.4      2.350      4.469
REMARK  Name = 
REMARK  10 active torsions:
REMARK  status: ('A' for Active; 'I' for Inactive)
REMARK    1  A    between atoms: C_2  and  C_3
REMARK    2  A    between atoms: C_3  and  O_4
REMARK    3  A    between atoms: O_4  and  C_5
REMARK    4  A    between atoms: C_8  and  C_9
REMARK    5  A    between atoms: C_9  and  N_10
REMARK    6  A    between atoms: N_10  and  C_11
REMARK    7  A    between atoms: C_11  and  C_12
REMARK    8  A    between atoms: C_19  and  O_20
REMARK    9  A    between atoms: O_20  and  C_21
REMARK   10  A    between atoms: C_21  and  C_22
REMARK                            x       y       z     vdW  Elec       q    Type
REMARK                         _______ _______ _______ _____ _____    ______ ____
ROOT
ATOM      1  C   UNL     1       6.539   5.872  16.724  0.00  0.00    +0.000 A 
ATOM      2  C   UNL     1       5.771   5.730  17.892  0.00  0.00    +0.000 A 
ATOM      3  C   UNL     1       4.798   4.736  18.014  0.00  0.00    +0.000 A 
ATOM      4  C   UNL     1       4.551   3.862  16.959  0.00  0.00    +0.000 A 
ATOM      5  C   UNL     1       5.263   4.048  15.763  0.00  0.00    +0.000 A 
ATOM      6  C   UNL     1       6.238   5.054  15.622  0.00  0.00    +0.000 A 
ENDROOT
BRANCH   1   7
ATOM      7  O   UNL     1       7.564   6.792  16.649  0.00  0.00    +0.000 OA
BRANCH   7   8
ATOM      8  C   UNL     1       7.872   7.435  17.892  0.00  0.00    +0.000 C 
BRANCH   8  10
ATOM      9  C   UNL     1       8.764   9.743  18.492  0.00  0.00    +0.000 C 
ATOM     10  C   UNL     1       7.972   8.928  17.781  0.00  0.00    +0.000 C 
ENDBRANCH   8  10
ENDBRANCH   7   8
ENDBRANCH   1   7
BRANCH   4  11
ATOM     11  C   UNL     1       3.544   2.749  17.103  0.00  0.00    +0.000 C 
BRANCH  11  12
ATOM     12  N   UNL     1       2.187   3.278  17.042  0.00  0.00    +0.000 NA
ATOM     13  H   UNL     1       1.803   3.113  16.113  0.00  0.00    +0.000 HD
BRANCH  12  14
ATOM     14  C   UNL     1       1.317   2.670  18.043  0.00  0.00    +0.000 C 
BRANCH  14  15
ATOM     15  C   UNL     1       1.649   3.188  19.415  0.00  0.00    +0.000 A 
ATOM     16  C   UNL     1       1.903   2.318  20.482  0.00  0.00    +0.000 A 
ATOM     17  C   UNL     1       2.220   2.830  21.735  0.00  0.00    +0.000 A 
ATOM     18  C   UNL     1       2.269   4.204  21.887  0.00  0.00    +0.000 A 
ATOM     19  N   UNL     1       2.022   5.081  20.888  0.00  0.00    +0.000 NA
ATOM     20  C   UNL     1       1.719   4.552  19.679  0.00  0.00    +0.000 A 
ENDBRANCH  14  15
ENDBRANCH  12  14
ENDBRANCH  11  12
ENDBRANCH   4  11
BRANCH   6  21
ATOM     21  O   UNL     1       6.808   5.051  14.377  0.00  0.00    +0.000 OA
BRANCH  21  22
ATOM     22  C   UNL     1       6.529   3.957  13.514  0.00  0.00    +0.000 C 
ATOM     23  C   UNL     1       7.103   4.280  12.140  0.00  0.00    +0.000 C 
ENDBRANCH  21  22
ENDBRANCH   6  21
TORSDOF 9
ENDMDL
MODEL 5
REMARK VINA RESULT:      -6.4      1.595      2.933
REMARK  Name = 
REMARK  10 active torsions:
REMARK  status: ('A' for Active; 'I' for Inactive)
REMARK    1  A    between atoms: C_2  and  C_3
REMARK    2  A    between atoms: C_3  and  O_4
REMARK    3  A    between atoms: O_4  and  C_5
REMARK    4  A    between atoms: C_8  and  C_9
REMARK    5  A    between atoms: C_9  and  N_10
REMARK    6  A    between atoms: N_10  and  C_11
REMARK    7  A    between atoms: C_11  and  C_12
REMARK    8  A    between atoms: C_19  and  O_20
REMARK    9  A    between atoms: O_20  and  C_21
REMARK   10  A    between atoms: C_21  and  C_22
REMARK                            x       y       z     vdW  Elec       q    Type
REMARK                         _______ _______ _______ _____ _____    ______ ____
ROOT
ATOM      1  C   UNL     1       5.923   4.879  16.377  0.00  0.00    +0.000 A 
ATOM      2  C   UNL     1       4.754   4.144  16.638  0.00  0.00    +0.000 A 
ATOM      3  C   UNL     1       3.662   4.713  17.296  0.00  0.00    +0.000 A 
ATOM      4  C   UNL     1       3.714   6.034  17.730  0.00  0.00    +0.000 A 
ATOM      5  C   UNL     1       4.907   6.749  17.538  0.00  0.00    +0.000 A 
ATOM      6  C   UNL     1       6.020   6.184  16.888  0.00  0.00    +0.000 A 
ENDROOT
BRANCH   1   7
ATOM      7  O   UNL     1       6.958   4.340  15.641  0.00  0.00    +0.000 OA
BRANCH   7   8
ATOM      8  C   UNL     1       6.930   4.680  14.249  0.00  0.00    +0.000 C 
BRANCH   8  10
ATOM      9  C   UNL     1       6.045   3.271  12.322  0.00  0.00    +0.000 C 
ATOM     10  C   UNL     1       5.883   3.934  13.475  0.00  0.00    +0.000 C 
ENDBRANCH   8  10
ENDBRANCH   7   8
ENDBRANCH   1   7
BRANCH   4  11
ATOM     11  C   UNL     1       2.518   6.675  18.388  0.00  0.00    +0.000 C 
BRANCH  11  12
ATOM     12  N   UNL     1       2.748   6.836  19.819  0.00  0.00    +0.000 NA
ATOM     13  H   UNL     1       2.888   7.824  20.027  0.00  0.00    +0.000 HD
BRANCH  12  14
ATOM     14  C   UNL     1       1.638   6.324  20.614  0.00  0.00    +0.000 C 
BRANCH  14  15
ATOM     15  C   UNL     1       1.707   4.824  20.711  0.00  0.00    +0.000 A 
ATOM     16  C   UNL     1       0.992   4.003  19.832  0.00  0.00    +0.000 A 
ATOM     17  C   UNL     1       1.088   2.620  19.941  0.00  0.00    +0.000 A 
ATOM     18  C   UNL     1       1.896   2.097  20.934  0.00  0.00    +0.000 A 
ATOM     19  N   UNL     1       2.596   2.852  21.811  0.00  0.00    +0.000 NA
ATOM     20  C   UNL     1       2.485   4.195  21.677  0.00  0.00    +0.000 A 
ENDBRANCH  14  15
ENDBRANCH  12  14
ENDBRANCH  11  12
ENDBRANCH   4  11
BRANCH   6  21
ATOM     21  O   UNL     1       7.071   7.058  16.808  0.00  0.00    +0.000 OA
BRANCH  21  22
ATOM     22  C   UNL     1       7.302   7.932  17.905  0.00  0.00    +0.000 C 
ATOM     23  C   UNL     1       8.365   8.942  17.490  0.00  0.00    +0.000 C 
ENDBRANCH  21  22
ENDBRANCH   6  21
TORSDOF 9
ENDMDL
MODEL 6
REMARK VINA RESULT:      -6.3      3.135      6.701
REMARK  Name = 
REMARK  10 active torsions:
REMARK  status: ('A' for Active; 'I' for Inactive)
REMARK    1  A    between atoms: C_2  and  C_3
REMARK    2  A    between atoms: C_3  and  O_4
REMARK    3  A    between atoms: O_4  and  C_5
REMARK    4  A    between atoms: C_8  and  C_9
REMARK    5  A    between atoms: C_9  and  N_10
REMARK    6  A    between atoms: N_10  and  C_11
REMARK    7  A    between atoms: C_11  and  C_12
REMARK    8  A    between atoms: C_19  and  O_20
REMARK    9  A    between atoms: O_20  and  C_21
REMARK   10  A    between atoms: C_21  and  C_22
REMARK                            x       y       z     vdW  Elec       q    Type
REMARK                         _______ _______ _______ _____ _____    ______ ____
ROOT
ATOM      1  C   UNL     1       2.350   6.785  19.649  0.00  0.00    +0.000 A 
ATOM      2  C   UNL     1       2.927   7.210  18.440  0.00  0.00    +0.000 A 
ATOM      3  C   UNL     1       3.385   6.299  17.487  0.00  0.00    +0.000 A 
ATOM      4  C   UNL     1       3.296   4.930  17.723  0.00  0.00    +0.000 A 
ATOM      5  C   UNL     1       2.790   4.502  18.961  0.00  0.00    +0.000 A 
ATOM      6  C   UNL     1       2.336   5.410  19.936  0.00  0.00    +0.000 A 
ENDROOT
BRANCH   1   7
ATOM      7  O   UNL     1       1.811   7.689  20.542  0.00  0.00    +0.000 OA
BRANCH   7   8
ATOM      8  C   UNL     1       1.210   8.836  19.929  0.00  0.00    +0.000 C 
BRANCH   8  10
ATOM      9  C   UNL     1      -0.237   9.185  21.994  0.00  0.00    +0.000 C 
ATOM     10  C   UNL     1       0.334   9.619  20.862  0.00  0.00    +0.000 C 
ENDBRANCH   8  10
ENDBRANCH   7   8
ENDBRANCH   1   7
BRANCH   4  11
ATOM     11  C   UNL     1       3.733   3.939  16.674  0.00  0.00    +0.000 C 
BRANCH  11  12
ATOM     12  N   UNL     1       5.064   3.426  16.980  0.00  0.00    +0.000 NA
ATOM     13  H   UNL     1       5.097   2.431  16.766  0.00  0.00    +0.000 HD
BRANCH  12  14
ATOM     14  C   UNL     1       6.105   4.121  16.231  0.00  0.00    +0.000 C 
BRANCH  14  15
ATOM     15  C   UNL     1       6.826   5.101  17.114  0.00  0.00    +0.000 A 
ATOM     16  C   UNL     1       6.954   6.448  16.756  0.00  0.00    +0.000 A 
ATOM     17  C   UNL     1       7.616   7.332  17.602  0.00  0.00    +0.000 A 
ATOM     18  C   UNL     1       8.138   6.838  18.784  0.00  0.00    +0.000 A 
ATOM     19  N   UNL     1       8.047   5.543  19.164  0.00  0.00    +0.000 NA
ATOM     20  C   UNL     1       7.394   4.708  18.322  0.00  0.00    +0.000 A 
ENDBRANCH  14  15
ENDBRANCH  12  14
ENDBRANCH  11  12
ENDBRANCH   4  11
BRANCH   6  21
ATOM     21  O   UNL     1       1.882   4.775  21.062  0.00  0.00    +0.000 OA
BRANCH  21  22
ATOM     22  C   UNL     1       2.500   3.552  21.437  0.00  0.00    +0.000 C 
ATOM     23  C   UNL     1       1.401   2.538  21.734  0.00  0.00    +0.000 C 
ENDBRANCH  21  22
ENDBRANCH   6  21
TORSDOF 9
ENDMDL
MODEL 7
REMARK VINA RESULT:      -6.3      2.215      3.458
REMARK  Name = 
REMARK  10 active torsions:
REMARK  status: ('A' for Active; 'I' for Inactive)
REMARK    1  A    between atoms: C_2  and  C_3
REMARK    2  A    between atoms: C_3  and  O_4
REMARK    3  A    between atoms: O_4  and  C_5
REMARK    4  A    between atoms: C_8  and  C_9
REMARK    5  A    between atoms: C_9  and  N_10
REMARK    6  A    between atoms: N_10  and  C_11
REMARK    7  A    between atoms: C_11  and  C_12
REMARK    8  A    between atoms: C_19  and  O_20
REMARK    9  A    between atoms: O_20  and  C_21
REMARK   10  A    between atoms: C_21  and  C_22
REMARK                            x       y       z     vdW  Elec       q    Type
REMARK                         _______ _______ _______ _____ _____    ______ ____
ROOT
ATOM      1  C   UNL     1       6.900   5.004  15.869  0.00  0.00    +0.000 A 
ATOM      2  C   UNL     1       6.024   3.930  16.104  0.00  0.00    +0.000 A 
ATOM      3  C   UNL     1       5.239   3.862  17.256  0.00  0.00    +0.000 A 
ATOM      4  C   UNL     1       5.321   4.862  18.221  0.00  0.00    +0.000 A 
ATOM      5  C   UNL     1       6.249   5.898  18.027  0.00  0.00    +0.000 A 
ATOM      6  C   UNL     1       7.055   5.972  16.876  0.00  0.00    +0.000 A 
ENDROOT
BRANCH   1   7
ATOM      7  O   UNL     1       7.599   5.113  14.684  0.00  0.00    +0.000 OA
BRANCH   7   8
ATOM      8  C   UNL     1       6.771   5.160  13.515  0.00  0.00    +0.000 C 
BRANCH   8  10
ATOM      9  C   UNL     1       5.936   3.187  12.140  0.00  0.00    +0.000 C 
ATOM     10  C   UNL     1       6.917   3.955  12.634  0.00  0.00    +0.000 C 
ENDBRANCH   8  10
ENDBRANCH   7   8
ENDBRANCH   1   7
BRANCH   4  11
ATOM     11  C   UNL     1       4.433   4.828  19.440  0.00  0.00    +0.000 C 
BRANCH  11  12
ATOM     12  N   UNL     1       3.907   6.158  19.725  0.00  0.00    +0.000 NA
ATOM     13  H   UNL     1       4.426   6.847  19.182  0.00  0.00    +0.000 HD
BRANCH  12  14
ATOM     14  C   UNL     1       2.486   6.263  19.414  0.00  0.00    +0.000 C 
BRANCH  14  15
ATOM     15  C   UNL     1       1.864   4.897  19.324  0.00  0.00    +0.000 A 
ATOM     16  C   UNL     1       1.458   4.204  20.471  0.00  0.00    +0.000 A 
ATOM     17  C   UNL     1       0.874   2.947  20.354  0.00  0.00    +0.000 A 
ATOM     18  C   UNL     1       0.717   2.416  19.086  0.00  0.00    +0.000 A 
ATOM     19  N   UNL     1       1.102   3.045  17.953  0.00  0.00    +0.000 NA
ATOM     20  C   UNL     1       1.665   4.268  18.100  0.00  0.00    +0.000 A 
ENDBRANCH  14  15
ENDBRANCH  12  14
ENDBRANCH  11  12
ENDBRANCH   4  11
BRANCH   6  21
ATOM     21  O   UNL     1       7.883   7.063  16.893  0.00  0.00    +0.000 OA
BRANCH  21  22
ATOM     22  C   UNL     1       7.390   8.269  17.461  0.00  0.00    +0.000 C 
ATOM     23  C   UNL     1       8.527   8.929  18.231  0.00  0.00    +0.000 C 
ENDBRANCH  21  22
ENDBRANCH   6  21
TORSDOF 9
ENDMDL
MODEL 8
REMARK VINA RESULT:      -6.2      3.287      5.091
REMARK  Name = 
REMARK  10 active torsions:
REMARK  status: ('A' for Active; 'I' for Inactive)
REMARK    1  A    between atoms: C_2  and  C_3
REMARK    2  A    between atoms: C_3  and  O_4
REMARK    3  A    between atoms: O_4  and  C_5
REMARK    4  A    between atoms: C_8  and  C_9
REMARK    5  A    between atoms: C_9  and  N_10
REMARK    6  A    between atoms: N_10  and  C_11
REMARK    7  A    between atoms: C_11  and  C_12
REMARK    8  A    between atoms: C_19  and  O_20
REMARK    9  A    between atoms: O_20  and  C_21
REMARK   10  A    between atoms: C_21  and  C_22
REMARK                            x       y       z     vdW  Elec       q    Type
REMARK                         _______ _______ _______ _____ _____    ______ ____
ROOT
ATOM      1  C   UNL     1       3.935   5.040  19.088  0.00  0.00    +0.000 A 
ATOM      2  C   UNL     1       4.420   5.728  17.963  0.00  0.00    +0.000 A 
ATOM      3  C   UNL     1       3.900   6.963  17.577  0.00  0.00    +0.000 A 
ATOM      4  C   UNL     1       2.860   7.543  18.299  0.00  0.00    +0.000 A 
ATOM      5  C   UNL     1       2.321   6.825  19.379  0.00  0.00    +0.000 A 
ATOM      6  C   UNL     1       2.828   5.572  19.771  0.00  0.00    +0.000 A 
ENDROOT
BRANCH   1   7
ATOM      7  O   UNL     1       4.521   3.867  19.519  0.00  0.00    +0.000 OA
BRANCH   7   8
ATOM      8  C   UNL     1       4.530   2.819  18.542  0.00  0.00    +0.000 C 
BRANCH   8  10
ATOM      9  C   UNL     1       2.184   2.270  17.719  0.00  0.00    +0.000 C 
ATOM     10  C   UNL     1       3.250   2.037  18.497  0.00  0.00    +0.000 C 
ENDBRANCH   8  10
ENDBRANCH   7   8
ENDBRANCH   1   7
BRANCH   4  11
ATOM     11  C   UNL     1       2.331   8.905  17.925  0.00  0.00    +0.000 C 
BRANCH  11  12
ATOM     12  N   UNL     1       0.958   9.065  18.393  0.00  0.00    +0.000 NA
ATOM     13  H   UNL     1       0.740   8.319  19.053  0.00  0.00    +0.000 HD
BRANCH  12  14
ATOM     14  C   UNL     1       0.744  10.358  19.031  0.00  0.00    +0.000 C 
BRANCH  14  15
ATOM     15  C   UNL     1       0.317  10.176  20.462  0.00  0.00    +0.000 A 
ATOM     16  C   UNL     1      -0.035   8.917  20.963  0.00  0.00    +0.000 A 
ATOM     17  C   UNL     1      -0.414   8.780  22.294  0.00  0.00    +0.000 A 
ATOM     18  C   UNL     1      -0.434   9.914  23.088  0.00  0.00    +0.000 A 
ATOM     19  N   UNL     1      -0.111  11.149  22.644  0.00  0.00    +0.000 NA
ATOM     20  C   UNL     1       0.256  11.250  21.344  0.00  0.00    +0.000 A 
ENDBRANCH  14  15
ENDBRANCH  12  14
ENDBRANCH  11  12
ENDBRANCH   4  11
BRANCH   6  21
ATOM     21  O   UNL     1       2.157   5.056  20.847  0.00  0.00    +0.000 OA
BRANCH  21  22
ATOM     22  C   UNL     1       1.110   4.127  20.601  0.00  0.00    +0.000 C 
ATOM     23  C   UNL     1       1.324   2.922  21.509  0.00  0.00    +0.000 C 
ENDBRANCH  21  22
ENDBRANCH   6  21
TORSDOF 9
ENDMDL
MODEL 9
REMARK VINA RESULT:      -6.2      2.568      4.781
REMARK  Name = 
REMARK  10 active torsions:
REMARK  status: ('A' for Active; 'I' for Inactive)
REMARK    1  A    between atoms: C_2  and  C_3
REMARK    2  A    between atoms: C_3  and  O_4
REMARK    3  A    between atoms: O_4  and  C_5
REMARK    4  A    between atoms: C_8  and  C_9
REMARK    5  A    between atoms: C_9  and  N_10
REMARK    6  A    between atoms: N_10  and  C_11
REMARK    7  A    between atoms: C_11  and  C_12
REMARK    8  A    between atoms: C_19  and  O_20
REMARK    9  A    between atoms: O_20  and  C_21
REMARK   10  A    between atoms: C_21  and  C_22
REMARK                            x       y       z     vdW  Elec       q    Type
REMARK                         _______ _______ _______ _____ _____    ______ ____
ROOT
ATOM      1  C   UNL     1       6.834   6.117  17.268  0.00  0.00    +0.000 A 
ATOM      2  C   UNL     1       6.525   5.871  18.616  0.00  0.00    +0.000 A 
ATOM      3  C   UNL     1       5.666   4.839  18.995  0.00  0.00    +0.000 A 
ATOM      4  C   UNL     1       5.072   4.030  18.031  0.00  0.00    +0.000 A 
ATOM      5  C   UNL     1       5.318   4.319  16.679  0.00  0.00    +0.000 A 
ATOM      6  C   UNL     1       6.173   5.365  16.283  0.00  0.00    +0.000 A 
ENDROOT
BRANCH   1   7
ATOM      7  O   UNL     1       7.761   7.075  16.908  0.00  0.00    +0.000 OA
BRANCH   7   8
ATOM      8  C   UNL     1       7.489   8.382  17.430  0.00  0.00    +0.000 C 
BRANCH   8  10
ATOM      9  C   UNL     1       8.971  10.131  18.539  0.00  0.00    +0.000 C 
ATOM     10  C   UNL     1       8.539   8.871  18.384  0.00  0.00    +0.000 C 
ENDBRANCH   8  10
ENDBRANCH   7   8
ENDBRANCH   1   7
BRANCH   4  11
ATOM     11  C   UNL     1       4.189   2.875  18.433  0.00  0.00    +0.000 C 
BRANCH  11  12
ATOM     12  N   UNL     1       2.827   3.084  17.954  0.00  0.00    +0.000 NA
ATOM     13  H   UNL     1       2.489   2.226  17.520  0.00  0.00    +0.000 HD
BRANCH  12  14
ATOM     14  C   UNL     1       1.922   3.474  19.029  0.00  0.00    +0.000 C 
BRANCH  14  15
ATOM     15  C   UNL     1       1.973   4.962  19.246  0.00  0.00    +0.000 A 
ATOM     16  C   UNL     1       1.759   5.522  20.511  0.00  0.00    +0.000 A 
ATOM     17  C   UNL     1       1.825   6.901  20.680  0.00  0.00    +0.000 A 
ATOM     18  C   UNL     1       2.099   7.683  19.572  0.00  0.00    +0.000 A 
ATOM     19  N   UNL     1       2.302   7.186  18.332  0.00  0.00    +0.000 NA
ATOM     20  C   UNL     1       2.235   5.840  18.199  0.00  0.00    +0.000 A 
ENDBRANCH  14  15
ENDBRANCH  12  14
ENDBRANCH  11  12
ENDBRANCH   4  11
BRANCH   6  21
ATOM     21  O   UNL     1       6.271   5.465  14.920  0.00  0.00    +0.000 OA
BRANCH  21  22
ATOM     22  C   UNL     1       6.855   4.382  14.208  0.00  0.00    +0.000 C 
ATOM     23  C   UNL     1       5.845   3.897  13.175  0.00  0.00    +0.000 C 
ENDBRANCH  21  22
ENDBRANCH   6  21
TORSDOF 9
ENDMDL
