MODEL 1
REMARK VINA RESULT:      -8.6      0.000      0.000
REMARK  Name = 
REMARK  6 active torsions:
REMARK  status: ('A' for Active; 'I' for Inactive)
REMARK    1  A    between atoms: C_1  and  C_2
REMARK    2  A    between atoms: C_6  and  C_7
REMARK    3  A    between atoms: N_14  and  C_15
REMARK    4  A    between atoms: C_15  and  C_16
REMARK    5  A    between atoms: C_16  and  C_17
REMARK    6  A    between atoms: N_22  and  C_23
REMARK                            x       y       z     vdW  Elec       q    Type
REMARK                         _______ _______ _______ _____ _____    ______ ____
ROOT
ATOM      1  C   UNL     1       7.408   6.205  19.675  0.00  0.00    +0.000 C 
ATOM      2  C   UNL     1       7.198   5.818  18.262  0.00  0.00    +0.000 A 
ATOM      3  N   UNL     1       7.838   6.438  17.257  0.00  0.00    +0.000 NA
ATOM      4  O   UNL     1       7.396   5.819  16.088  0.00  0.00    +0.000 OA
ATOM      5  C   UNL     1       6.530   4.832  16.419  0.00  0.00    +0.000 A 
ATOM      6  C   UNL     1       5.854   3.949  15.518  0.00  0.00    +0.000 A 
ATOM      7  N   UNL     1       5.013   3.084  16.028  0.00  0.00    +0.000 NA
ATOM      8  N   UNL     1       4.833   3.024  17.422  0.00  0.00    +0.000 N 
ATOM      9  C   UNL     1       5.455   3.873  18.363  0.00  0.00    +0.000 A 
ATOM     10  O   UNL     1       5.259   3.833  19.572  0.00  0.00    +0.000 OA
ATOM     11  C   UNL     1       6.354   4.812  17.770  0.00  0.00    +0.000 A 
ENDROOT
BRANCH   6  12
ATOM     12  C   UNL     1       6.078   3.980  14.046  0.00  0.00    +0.000 A 
ATOM     13  C   UNL     1       7.210   4.574  13.475  0.00  0.00    +0.000 A 
ATOM     14  C   UNL     1       7.401   4.542  12.090  0.00  0.00    +0.000 A 
ATOM     15  C   UNL     1       6.470   3.909  11.268  0.00  0.00    +0.000 A 
ATOM     16  C   UNL     1       5.347   3.304  11.827  0.00  0.00    +0.000 A 
ATOM     17  C   UNL     1       5.152   3.335  13.210  0.00  0.00    +0.000 A 
ENDBRANCH   6  12
BRANCH   8  18
ATOM     18  C   UNL     1       3.983   1.954  17.916  0.00  0.00    +0.000 C 
BRANCH  18  19
ATOM     19  C   UNL     1       2.511   2.188  17.601  0.00  0.00    +0.000 C 
BRANCH  19  20
ATOM     20  C   UNL     1       1.809   2.685  18.847  0.00  0.00    +0.000 C 
ATOM     21  O   UNL     1       1.426   1.900  19.715  0.00  0.00    +0.000 OA
ATOM     22  N   UNL     1       1.671   4.051  18.993  0.00  0.00    +0.000 N 
ATOM     23  C   UNL     1       1.116   4.564  20.251  0.00  0.00    +0.000 C 
ATOM     24  C   UNL     1       1.895   5.796  20.738  0.00  0.00    +0.000 C 
ATOM     25  N   UNL     1       1.920   6.803  19.666  0.00  0.00    +0.000 N 
ATOM     26  C   UNL     1       2.487   6.339  18.390  0.00  0.00    +0.000 C 
ATOM     27  C   UNL     1       1.782   5.050  17.920  0.00  0.00    +0.000 C 
BRANCH  25  28
ATOM     28  C   UNL     1       1.612   8.125  19.906  0.00  0.00    +0.000 A 
ATOM     29  C   UNL     1       1.289   8.590  21.190  0.00  0.00    +0.000 A 
ATOM     30  C   UNL     1       0.914   9.919  21.422  0.00  0.00    +0.000 A 
ATOM     31  C   UNL     1       0.856  10.811  20.359  0.00  0.00    +0.000 A 
ATOM     32 CL   UNL     1       0.378  12.440  20.629  0.00  0.00    +0.000 Cl
ATOM     33  C   UNL     1       1.180  10.387  19.077  0.00  0.00    +0.000 A 
ATOM     34  C   UNL     1       1.557   9.057  18.859  0.00  0.00    +0.000 A 
ENDBRANCH  25  28
ENDBRANCH  19  20
ENDBRANCH  18  19
ENDBRANCH   8  18
TORSDOF 5
ENDMDL
MODEL 2
REMARK VINA RESULT:      -8.6      0.614      1.308
REMARK  Name = 
REMARK  6 active torsions:
REMARK  status: ('A' for Active; 'I' for Inactive)
REMARK    1  A    between atoms: C_1  and  C_2
REMARK    2  A    between atoms: C_6  and  C_7
REMARK    3  A    between atoms: N_14  and  C_15
REMARK    4  A    between atoms: C_15  and  C_16
REMARK    5  A    between atoms: C_16  and  C_17
REMARK    6  A    between atoms: N_22  and  C_23
REMARK                            x       y       z     vdW  Elec       q    Type
REMARK                         _______ _______ _______ _____ _____    ______ ____
ROOT
ATOM      1  C   UNL     1       7.949   7.148  18.989  0.00  0.00    +0.000 C 
ATOM      2  C   UNL     1       7.558   6.507  17.714  0.00  0.00    +0.000 A 
ATOM      3  N   UNL     1       8.030   6.938  16.532  0.00  0.00    +0.000 NA
ATOM      4  O   UNL     1       7.450   6.114  15.569  0.00  0.00    +0.000 OA
ATOM      5  C   UNL     1       6.672   5.197  16.193  0.00  0.00    +0.000 A 
ATOM      6  C   UNL     1       5.906   4.160  15.572  0.00  0.00    +0.000 A 
ATOM      7  N   UNL     1       5.174   3.396  16.344  0.00  0.00    +0.000 NA
ATOM      8  N   UNL     1       5.192   3.590  17.736  0.00  0.00    +0.000 N 
ATOM      9  C   UNL     1       5.912   4.600  18.411  0.00  0.00    +0.000 A 
ATOM     10  O   UNL     1       5.887   4.781  19.623  0.00  0.00    +0.000 OA
ATOM     11  C   UNL     1       6.687   5.423  17.536  0.00  0.00    +0.000 A 
ENDROOT
BRANCH   6  12
ATOM     12  C   UNL     1       5.921   3.923  14.100  0.00  0.00    +0.000 A 
ATOM     13  C   UNL     1       4.780   3.521  13.397  0.00  0.00    +0.000 A 
ATOM     14  C   UNL     1       4.829   3.353  12.009  0.00  0.00    +0.000 A 
ATOM     15  C   UNL     1       6.014   3.592  11.316  0.00  0.00    +0.000 A 
ATOM     16  C   UNL     1       7.153   4.003  12.005  0.00  0.00    +0.000 A 
ATOM     17  C   UNL     1       7.107   4.172  13.391  0.00  0.00    +0.000 A 
ENDBRANCH   6  12
BRANCH   8  18
ATOM     18  C   UNL     1       4.456   2.621  18.531  0.00  0.00    +0.000 C 
BRANCH  18  19
ATOM     19  C   UNL     1       3.009   2.479  18.079  0.00  0.00    +0.000 C 
BRANCH  19  20
ATOM     20  C   UNL     1       2.094   2.982  19.175  0.00  0.00    +0.000 C 
ATOM     21  O   UNL     1       1.613   2.209  20.005  0.00  0.00    +0.000 OA
ATOM     22  N   UNL     1       1.869   4.342  19.237  0.00  0.00    +0.000 N 
ATOM     23  C   UNL     1       1.096   4.870  20.367  0.00  0.00    +0.000 C 
ATOM     24  C   UNL     1       1.728   6.160  20.917  0.00  0.00    +0.000 C 
ATOM     25  N   UNL     1       1.877   7.127  19.818  0.00  0.00    +0.000 N 
ATOM     26  C   UNL     1       2.662   6.648  18.669  0.00  0.00    +0.000 C 
ATOM     27  C   UNL     1       2.104   5.307  18.151  0.00  0.00    +0.000 C 
BRANCH  25  28
ATOM     28  C   UNL     1       1.473   8.438  19.948  0.00  0.00    +0.000 A 
ATOM     29  C   UNL     1       1.435   9.315  18.852  0.00  0.00    +0.000 A 
ATOM     30  C   UNL     1       1.086  10.663  18.998  0.00  0.00    +0.000 A 
ATOM     31  C   UNL     1       0.768  11.158  20.255  0.00  0.00    +0.000 A 
ATOM     32 CL   UNL     1       0.358  12.817  20.447  0.00  0.00    +0.000 Cl
ATOM     33  C   UNL     1       0.785  10.316  21.359  0.00  0.00    +0.000 A 
ATOM     34  C   UNL     1       1.132   8.970  21.200  0.00  0.00    +0.000 A 
ENDBRANCH  25  28
ENDBRANCH  19  20
ENDBRANCH  18  19
ENDBRANCH   8  18
TORSDOF 5
ENDMDL
MODEL 3
REMARK VINA RESULT:      -8.2      3.330      5.633
REMARK  Name = 
REMARK  6 active torsions:
REMARK  status: ('A' for Active; 'I' for Inactive)
REMARK    1  A    between atoms: C_1  and  C_2
REMARK    2  A    between atoms: C_6  and  C_7
REMARK    3  A    between atoms: N_14  and  C_15
REMARK    4  A    between atoms: C_15  and  C_16
REMARK    5  A    between atoms: C_16  and  C_17
REMARK    6  A    between atoms: N_22  and  C_23
REMARK                            x       y       z     vdW  Elec       q    Type
REMARK                         _______ _______ _______ _____ _____    ______ ____
ROOT
ATOM      1  C   UNL     1       1.500   2.501  20.988  0.00  0.00    +0.000 C 
ATOM      2  C   UNL     1       2.428   2.897  19.905  0.00  0.00    +0.000 A 
ATOM      3  N   UNL     1       3.142   1.989  19.220  0.00  0.00    +0.000 NA
ATOM      4  O   UNL     1       3.895   2.716  18.299  0.00  0.00    +0.000 OA
ATOM      5  C   UNL     1       3.596   4.029  18.433  0.00  0.00    +0.000 A 
ATOM      6  C   UNL     1       4.141   5.114  17.674  0.00  0.00    +0.000 A 
ATOM      7  N   UNL     1       3.760   6.327  17.984  0.00  0.00    +0.000 NA
ATOM      8  N   UNL     1       2.817   6.523  19.009  0.00  0.00    +0.000 N 
ATOM      9  C   UNL     1       2.253   5.502  19.805  0.00  0.00    +0.000 A 
ATOM     10  O   UNL     1       1.460   5.692  20.720  0.00  0.00    +0.000 OA
ATOM     11  C   UNL     1       2.701   4.193  19.447  0.00  0.00    +0.000 A 
ENDROOT
BRANCH   6  12
ATOM     12  C   UNL     1       5.105   4.905  16.557  0.00  0.00    +0.000 A 
ATOM     13  C   UNL     1       4.708   4.406  15.311  0.00  0.00    +0.000 A 
ATOM     14  C   UNL     1       5.640   4.267  14.278  0.00  0.00    +0.000 A 
ATOM     15  C   UNL     1       6.969   4.634  14.478  0.00  0.00    +0.000 A 
ATOM     16  C   UNL     1       7.373   5.143  15.710  0.00  0.00    +0.000 A 
ATOM     17  C   UNL     1       6.445   5.281  16.746  0.00  0.00    +0.000 A 
ENDBRANCH   6  12
BRANCH   8  18
ATOM     18  C   UNL     1       2.352   7.886  19.204  0.00  0.00    +0.000 C 
BRANCH  18  19
ATOM     19  C   UNL     1       1.884   8.532  17.906  0.00  0.00    +0.000 C 
BRANCH  19  20
ATOM     20  C   UNL     1       1.880  10.036  18.073  0.00  0.00    +0.000 C 
ATOM     21  O   UNL     1       2.684  10.744  17.466  0.00  0.00    +0.000 OA
ATOM     22  N   UNL     1       0.903  10.580  18.884  0.00  0.00    +0.000 N 
ATOM     23  C   UNL     1       0.792  12.041  18.956  0.00  0.00    +0.000 C 
ATOM     24  C   UNL     1      -0.679  12.488  18.917  0.00  0.00    +0.000 C 
ATOM     25  N   UNL     1      -1.417  11.800  19.987  0.00  0.00    +0.000 N 
ATOM     26  C   UNL     1      -1.351  10.330  19.944  0.00  0.00    +0.000 C 
ATOM     27  C   UNL     1       0.116   9.855  19.893  0.00  0.00    +0.000 C 
BRANCH  25  28
ATOM     28  C   UNL     1      -2.257  12.481  20.841  0.00  0.00    +0.000 A 
ATOM     29  C   UNL     1      -1.970  12.624  22.208  0.00  0.00    +0.000 A 
ATOM     30  C   UNL     1      -2.856  13.261  23.086  0.00  0.00    +0.000 A 
ATOM     31  C   UNL     1      -4.055  13.768  22.603  0.00  0.00    +0.000 A 
ATOM     32 CL   UNL     1      -5.158  14.534  23.677  0.00  0.00    +0.000 Cl
ATOM     33  C   UNL     1      -4.366  13.654  21.255  0.00  0.00    +0.000 A 
ATOM     34  C   UNL     1      -3.471  13.018  20.387  0.00  0.00    +0.000 A 
ENDBRANCH  25  28
ENDBRANCH  19  20
ENDBRANCH  18  19
ENDBRANCH   8  18
TORSDOF 5
ENDMDL
MODEL 4
REMARK VINA RESULT:      -8.2      3.217      5.587
REMARK  Name = 
REMARK  6 active torsions:
REMARK  status: ('A' for Active; 'I' for Inactive)
REMARK    1  A    between atoms: C_1  and  C_2
REMARK    2  A    between atoms: C_6  and  C_7
REMARK    3  A    between atoms: N_14  and  C_15
REMARK    4  A    between atoms: C_15  and  C_16
REMARK    5  A    between atoms: C_16  and  C_17
REMARK    6  A    between atoms: N_22  and  C_23
REMARK                            x       y       z     vdW  Elec       q    Type
REMARK                         _______ _______ _______ _____ _____    ______ ____
ROOT
ATOM      1  C   UNL     1       1.580   2.444  21.228  0.00  0.00    +0.000 C 
ATOM      2  C   UNL     1       2.525   2.877  20.174  0.00  0.00    +0.000 A 
ATOM      3  N   UNL     1       3.298   1.998  19.515  0.00  0.00    +0.000 NA
ATOM      4  O   UNL     1       4.049   2.755  18.616  0.00  0.00    +0.000 OA
ATOM      5  C   UNL     1       3.691   4.055  18.737  0.00  0.00    +0.000 A 
ATOM      6  C   UNL     1       4.214   5.160  17.992  0.00  0.00    +0.000 A 
ATOM      7  N   UNL     1       3.773   6.357  18.287  0.00  0.00    +0.000 NA
ATOM      8  N   UNL     1       2.790   6.515  19.280  0.00  0.00    +0.000 N 
ATOM      9  C   UNL     1       2.244   5.472  20.061  0.00  0.00    +0.000 A 
ATOM     10  O   UNL     1       1.416   5.630  20.950  0.00  0.00    +0.000 OA
ATOM     11  C   UNL     1       2.758   4.183  19.721  0.00  0.00    +0.000 A 
ENDROOT
BRANCH   6  12
ATOM     12  C   UNL     1       5.221   4.991  16.907  0.00  0.00    +0.000 A 
ATOM     13  C   UNL     1       6.591   4.877  17.171  0.00  0.00    +0.000 A 
ATOM     14  C   UNL     1       7.497   4.676  16.125  0.00  0.00    +0.000 A 
ATOM     15  C   UNL     1       7.041   4.578  14.812  0.00  0.00    +0.000 A 
ATOM     16  C   UNL     1       5.678   4.677  14.539  0.00  0.00    +0.000 A 
ATOM     17  C   UNL     1       4.770   4.880  15.582  0.00  0.00    +0.000 A 
ENDBRANCH   6  12
BRANCH   8  18
ATOM     18  C   UNL     1       2.262   7.857  19.457  0.00  0.00    +0.000 C 
BRANCH  18  19
ATOM     19  C   UNL     1       1.769   8.464  18.150  0.00  0.00    +0.000 C 
BRANCH  19  20
ATOM     20  C   UNL     1       1.831   9.973  18.247  0.00  0.00    +0.000 C 
ATOM     21  O   UNL     1       2.423  10.640  17.397  0.00  0.00    +0.000 OA
ATOM     22  N   UNL     1       1.152  10.569  19.292  0.00  0.00    +0.000 N 
ATOM     23  C   UNL     1       1.085  12.034  19.333  0.00  0.00    +0.000 C 
ATOM     24  C   UNL     1      -0.324  12.513  19.721  0.00  0.00    +0.000 C 
ATOM     25  N   UNL     1      -0.712  11.882  20.992  0.00  0.00    +0.000 N 
ATOM     26  C   UNL     1      -0.678  10.410  20.992  0.00  0.00    +0.000 C 
ATOM     27  C   UNL     1       0.699   9.899  20.521  0.00  0.00    +0.000 C 
BRANCH  25  28
ATOM     28  C   UNL     1      -1.247  12.613  22.030  0.00  0.00    +0.000 A 
ATOM     29  C   UNL     1      -2.419  12.215  22.692  0.00  0.00    +0.000 A 
ATOM     30  C   UNL     1      -2.996  12.993  23.703  0.00  0.00    +0.000 A 
ATOM     31  C   UNL     1      -2.403  14.193  24.070  0.00  0.00    +0.000 A 
ATOM     32 CL   UNL     1      -3.115  15.165  25.296  0.00  0.00    +0.000 Cl
ATOM     33  C   UNL     1      -1.236  14.612  23.443  0.00  0.00    +0.000 A 
ATOM     34  C   UNL     1      -0.667  13.824  22.437  0.00  0.00    +0.000 A 
ENDBRANCH  25  28
ENDBRANCH  19  20
ENDBRANCH  18  19
ENDBRANCH   8  18
TORSDOF 5
ENDMDL
MODEL 5
REMARK VINA RESULT:      -8.2      3.187      5.486
REMARK  Name = 
REMARK  6 active torsions:
REMARK  status: ('A' for Active; 'I' for Inactive)
REMARK    1  A    between atoms: C_1  and  C_2
REMARK    2  A    between atoms: C_6  and  C_7
REMARK    3  A    between atoms: N_14  and  C_15
REMARK    4  A    between atoms: C_15  and  C_16
REMARK    5  A    between atoms: C_16  and  C_17
REMARK    6  A    between atoms: N_22  and  C_23
REMARK                            x       y       z     vdW  Elec       q    Type
REMARK                         _______ _______ _______ _____ _____    ______ ____
ROOT
ATOM      1  C   UNL     1       1.313   2.360  20.247  0.00  0.00    +0.000 C 
ATOM      2  C   UNL     1       2.296   2.769  19.220  0.00  0.00    +0.000 A 
ATOM      3  N   UNL     1       2.930   1.869  18.450  0.00  0.00    +0.000 NA
ATOM      4  O   UNL     1       3.769   2.607  17.617  0.00  0.00    +0.000 OA
ATOM      5  C   UNL     1       3.600   3.924  17.886  0.00  0.00    +0.000 A 
ATOM      6  C   UNL     1       4.266   5.020  17.249  0.00  0.00    +0.000 A 
ATOM      7  N   UNL     1       4.003   6.227  17.682  0.00  0.00    +0.000 NA
ATOM      8  N   UNL     1       3.065   6.411  18.713  0.00  0.00    +0.000 N 
ATOM      9  C   UNL     1       2.386   5.375  19.393  0.00  0.00    +0.000 A 
ATOM     10  O   UNL     1       1.599   5.549  20.316  0.00  0.00    +0.000 OA
ATOM     11  C   UNL     1       2.707   4.072  18.903  0.00  0.00    +0.000 A 
ENDROOT
BRANCH   6  12
ATOM     12  C   UNL     1       5.226   4.831  16.125  0.00  0.00    +0.000 A 
ATOM     13  C   UNL     1       4.825   4.346  14.875  0.00  0.00    +0.000 A 
ATOM     14  C   UNL     1       5.752   4.226  13.835  0.00  0.00    +0.000 A 
ATOM     15  C   UNL     1       7.081   4.597  14.033  0.00  0.00    +0.000 A 
ATOM     16  C   UNL     1       7.488   5.093  15.270  0.00  0.00    +0.000 A 
ATOM     17  C   UNL     1       6.564   5.213  16.312  0.00  0.00    +0.000 A 
ENDBRANCH   6  12
BRANCH   8  18
ATOM     18  C   UNL     1       2.735   7.786  19.047  0.00  0.00    +0.000 C 
BRANCH  18  19
ATOM     19  C   UNL     1       1.743   8.399  18.068  0.00  0.00    +0.000 C 
BRANCH  19  20
ATOM     20  C   UNL     1       1.827   9.908  18.153  0.00  0.00    +0.000 C 
ATOM     21  O   UNL     1       2.437  10.558  17.304  0.00  0.00    +0.000 OA
ATOM     22  N   UNL     1       1.147  10.522  19.186  0.00  0.00    +0.000 N 
ATOM     23  C   UNL     1       1.101  11.988  19.215  0.00  0.00    +0.000 C 
ATOM     24  C   UNL     1      -0.304  12.492  19.585  0.00  0.00    +0.000 C 
ATOM     25  N   UNL     1      -0.714  11.877  20.857  0.00  0.00    +0.000 N 
ATOM     26  C   UNL     1      -0.702  10.405  20.869  0.00  0.00    +0.000 C 
ATOM     27  C   UNL     1       0.671   9.870  20.416  0.00  0.00    +0.000 C 
BRANCH  25  28
ATOM     28  C   UNL     1      -1.248  12.625  21.884  0.00  0.00    +0.000 A 
ATOM     29  C   UNL     1      -0.595  13.760  22.392  0.00  0.00    +0.000 A 
ATOM     30  C   UNL     1      -1.107  14.481  23.478  0.00  0.00    +0.000 A 
ATOM     31  C   UNL     1      -2.291  14.072  24.077  0.00  0.00    +0.000 A 
ATOM     32 CL   UNL     1      -2.917  14.939  25.423  0.00  0.00    +0.000 Cl
ATOM     33  C   UNL     1      -2.968  12.960  23.593  0.00  0.00    +0.000 A 
ATOM     34  C   UNL     1      -2.448  12.250  22.505  0.00  0.00    +0.000 A 
ENDBRANCH  25  28
ENDBRANCH  19  20
ENDBRANCH  18  19
ENDBRANCH   8  18
TORSDOF 5
ENDMDL
MODEL 6
REMARK VINA RESULT:      -7.9      3.736      6.685
REMARK  Name = 
REMARK  6 active torsions:
REMARK  status: ('A' for Active; 'I' for Inactive)
REMARK    1  A    between atoms: C_1  and  C_2
REMARK    2  A    between atoms: C_6  and  C_7
REMARK    3  A    between atoms: N_14  and  C_15
REMARK    4  A    between atoms: C_15  and  C_16
REMARK    5  A    between atoms: C_16  and  C_17
REMARK    6  A    between atoms: N_22  and  C_23
REMARK                            x       y       z     vdW  Elec       q    Type
REMARK                         _______ _______ _______ _____ _____    ______ ____
ROOT
ATOM      1  C   UNL     1       6.559   4.682  14.684  0.00  0.00    +0.000 C 
ATOM      2  C   UNL     1       5.662   4.371  15.819  0.00  0.00    +0.000 A 
ATOM      3  N   UNL     1       5.540   3.122  16.301  0.00  0.00    +0.000 NA
ATOM      4  O   UNL     1       4.621   3.208  17.346  0.00  0.00    +0.000 OA
ATOM      5  C   UNL     1       4.238   4.500  17.483  0.00  0.00    +0.000 A 
ATOM      6  C   UNL     1       3.313   5.021  18.443  0.00  0.00    +0.000 A 
ATOM      7  N   UNL     1       3.032   6.298  18.388  0.00  0.00    +0.000 NA
ATOM      8  N   UNL     1       3.663   7.112  17.431  0.00  0.00    +0.000 N 
ATOM      9  C   UNL     1       4.571   6.661  16.448  0.00  0.00    +0.000 A 
ATOM     10  O   UNL     1       5.085   7.376  15.595  0.00  0.00    +0.000 OA
ATOM     11  C   UNL     1       4.844   5.260  16.529  0.00  0.00    +0.000 A 
ENDROOT
BRANCH   6  12
ATOM     12  C   UNL     1       2.678   4.170  19.488  0.00  0.00    +0.000 A 
ATOM     13  C   UNL     1       1.291   3.995  19.568  0.00  0.00    +0.000 A 
ATOM     14  C   UNL     1       0.741   3.153  20.539  0.00  0.00    +0.000 A 
ATOM     15  C   UNL     1       1.570   2.473  21.429  0.00  0.00    +0.000 A 
ATOM     16  C   UNL     1       2.952   2.630  21.351  0.00  0.00    +0.000 A 
ATOM     17  C   UNL     1       3.505   3.473  20.383  0.00  0.00    +0.000 A 
ENDBRANCH   6  12
BRANCH   8  18
ATOM     18  C   UNL     1       3.396   8.538  17.519  0.00  0.00    +0.000 C 
BRANCH  18  19
ATOM     19  C   UNL     1       1.922   8.838  17.757  0.00  0.00    +0.000 C 
BRANCH  19  20
ATOM     20  C   UNL     1       1.761  10.304  18.096  0.00  0.00    +0.000 C 
ATOM     21  O   UNL     1       2.677  11.104  17.903  0.00  0.00    +0.000 OA
ATOM     22  N   UNL     1       0.532  10.712  18.573  0.00  0.00    +0.000 N 
ATOM     23  C   UNL     1       0.306  12.147  18.782  0.00  0.00    +0.000 C 
ATOM     24  C   UNL     1      -1.086  12.568  18.285  0.00  0.00    +0.000 C 
ATOM     25  N   UNL     1      -2.102  11.725  18.934  0.00  0.00    +0.000 N 
ATOM     26  C   UNL     1      -1.928  10.277  18.736  0.00  0.00    +0.000 C 
ATOM     27  C   UNL     1      -0.507   9.840  19.144  0.00  0.00    +0.000 C 
BRANCH  25  28
ATOM     28  C   UNL     1      -3.228  12.266  19.516  0.00  0.00    +0.000 A 
ATOM     29  C   UNL     1      -3.186  12.895  20.771  0.00  0.00    +0.000 A 
ATOM     30  C   UNL     1      -4.342  13.386  21.389  0.00  0.00    +0.000 A 
ATOM     31  C   UNL     1      -5.570  13.253  20.755  0.00  0.00    +0.000 A 
ATOM     32 CL   UNL     1      -6.997  13.835  21.515  0.00  0.00    +0.000 Cl
ATOM     33  C   UNL     1      -5.646  12.645  19.509  0.00  0.00    +0.000 A 
ATOM     34  C   UNL     1      -4.483  12.161  18.899  0.00  0.00    +0.000 A 
ENDBRANCH  25  28
ENDBRANCH  19  20
ENDBRANCH  18  19
ENDBRANCH   8  18
TORSDOF 5
ENDMDL
MODEL 7
REMARK VINA RESULT:      -7.8      3.368      5.702
REMARK  Name = 
REMARK  6 active torsions:
REMARK  status: ('A' for Active; 'I' for Inactive)
REMARK    1  A    between atoms: C_1  and  C_2
REMARK    2  A    between atoms: C_6  and  C_7
REMARK    3  A    between atoms: N_14  and  C_15
REMARK    4  A    between atoms: C_15  and  C_16
REMARK    5  A    between atoms: C_16  and  C_17
REMARK    6  A    between atoms: N_22  and  C_23
REMARK                            x       y       z     vdW  Elec       q    Type
REMARK                         _______ _______ _______ _____ _____    ______ ____
ROOT
ATOM      1  C   UNL     1       1.720   2.775  21.622  0.00  0.00    +0.000 C 
ATOM      2  C   UNL     1       2.603   3.173  20.504  0.00  0.00    +0.000 A 
ATOM      3  N   UNL     1       3.408   2.290  19.889  0.00  0.00    +0.000 NA
ATOM      4  O   UNL     1       4.082   3.013  18.906  0.00  0.00    +0.000 OA
ATOM      5  C   UNL     1       3.649   4.296  18.935  0.00  0.00    +0.000 A 
ATOM      6  C   UNL     1       4.081   5.364  18.086  0.00  0.00    +0.000 A 
ATOM      7  N   UNL     1       3.578   6.554  18.300  0.00  0.00    +0.000 NA
ATOM      8  N   UNL     1       2.619   6.735  19.312  0.00  0.00    +0.000 N 
ATOM      9  C   UNL     1       2.162   5.730  20.193  0.00  0.00    +0.000 A 
ATOM     10  O   UNL     1       1.353   5.912  21.096  0.00  0.00    +0.000 OA
ATOM     11  C   UNL     1       2.742   4.449  19.939  0.00  0.00    +0.000 A 
ENDROOT
BRANCH   6  12
ATOM     12  C   UNL     1       5.062   5.165  16.983  0.00  0.00    +0.000 A 
ATOM     13  C   UNL     1       4.717   4.535  15.781  0.00  0.00    +0.000 A 
ATOM     14  C   UNL     1       5.659   4.408  14.755  0.00  0.00    +0.000 A 
ATOM     15  C   UNL     1       6.946   4.916  14.918  0.00  0.00    +0.000 A 
ATOM     16  C   UNL     1       7.296   5.556  16.105  0.00  0.00    +0.000 A 
ATOM     17  C   UNL     1       6.358   5.684  17.133  0.00  0.00    +0.000 A 
ENDBRANCH   6  12
BRANCH   8  18
ATOM     18  C   UNL     1       2.016   8.055  19.400  0.00  0.00    +0.000 C 
BRANCH  18  19
ATOM     19  C   UNL     1       1.994   8.774  18.057  0.00  0.00    +0.000 C 
BRANCH  19  20
ATOM     20  C   UNL     1       0.670   9.489  17.898  0.00  0.00    +0.000 C 
ATOM     21  O   UNL     1      -0.222   9.023  17.189  0.00  0.00    +0.000 OA
ATOM     22  N   UNL     1       0.488  10.651  18.621  0.00  0.00    +0.000 N 
ATOM     23  C   UNL     1      -0.832  11.292  18.589  0.00  0.00    +0.000 C 
ATOM     24  C   UNL     1      -1.250  11.771  19.989  0.00  0.00    +0.000 C 
ATOM     25  N   UNL     1      -0.197  12.646  20.530  0.00  0.00    +0.000 N 
ATOM     26  C   UNL     1       1.142  12.039  20.599  0.00  0.00    +0.000 C 
ATOM     27  C   UNL     1       1.551  11.468  19.226  0.00  0.00    +0.000 C 
BRANCH  25  28
ATOM     28  C   UNL     1      -0.491  13.866  21.100  0.00  0.00    +0.000 A 
ATOM     29  C   UNL     1      -0.346  14.095  22.477  0.00  0.00    +0.000 A 
ATOM     30  C   UNL     1      -0.706  15.314  23.064  0.00  0.00    +0.000 A 
ATOM     31  C   UNL     1      -1.224  16.331  22.274  0.00  0.00    +0.000 A 
ATOM     32 CL   UNL     1      -1.688  17.824  22.988  0.00  0.00    +0.000 Cl
ATOM     33  C   UNL     1      -1.371  16.142  20.906  0.00  0.00    +0.000 A 
ATOM     34  C   UNL     1      -1.003  14.920  20.330  0.00  0.00    +0.000 A 
ENDBRANCH  25  28
ENDBRANCH  19  20
ENDBRANCH  18  19
ENDBRANCH   8  18
TORSDOF 5
ENDMDL
MODEL 8
REMARK VINA RESULT:      -7.7      3.285      5.519
REMARK  Name = 
REMARK  6 active torsions:
REMARK  status: ('A' for Active; 'I' for Inactive)
REMARK    1  A    between atoms: C_1  and  C_2
REMARK    2  A    between atoms: C_6  and  C_7
REMARK    3  A    between atoms: N_14  and  C_15
REMARK    4  A    between atoms: C_15  and  C_16
REMARK    5  A    between atoms: C_16  and  C_17
REMARK    6  A    between atoms: N_22  and  C_23
REMARK                            x       y       z     vdW  Elec       q    Type
REMARK                         _______ _______ _______ _____ _____    ______ ____
ROOT
ATOM      1  C   UNL     1       1.517   2.038  20.292  0.00  0.00    +0.000 C 
ATOM      2  C   UNL     1       2.456   2.560  19.275  0.00  0.00    +0.000 A 
ATOM      3  N   UNL     1       3.196   1.740  18.510  0.00  0.00    +0.000 NA
ATOM      4  O   UNL     1       3.953   2.572  17.686  0.00  0.00    +0.000 OA
ATOM      5  C   UNL     1       3.631   3.859  17.954  0.00  0.00    +0.000 A 
ATOM      6  C   UNL     1       4.172   5.026  17.325  0.00  0.00    +0.000 A 
ATOM      7  N   UNL     1       3.769   6.194  17.756  0.00  0.00    +0.000 NA
ATOM      8  N   UNL     1       2.806   6.266  18.778  0.00  0.00    +0.000 N 
ATOM      9  C   UNL     1       2.244   5.159  19.450  0.00  0.00    +0.000 A 
ATOM     10  O   UNL     1       1.433   5.239  20.366  0.00  0.00    +0.000 OA
ATOM     11  C   UNL     1       2.717   3.902  18.963  0.00  0.00    +0.000 A 
ENDROOT
BRANCH   6  12
ATOM     12  C   UNL     1       5.158   4.951  16.210  0.00  0.00    +0.000 A 
ATOM     13  C   UNL     1       6.499   5.318  16.373  0.00  0.00    +0.000 A 
ATOM     14  C   UNL     1       7.400   5.191  15.311  0.00  0.00    +0.000 A 
ATOM     15  C   UNL     1       6.970   4.689  14.084  0.00  0.00    +0.000 A 
ATOM     16  C   UNL     1       5.641   4.309  13.914  0.00  0.00    +0.000 A 
ATOM     17  C   UNL     1       4.738   4.436  14.973  0.00  0.00    +0.000 A 
ENDBRANCH   6  12
BRANCH   8  18
ATOM     18  C   UNL     1       2.316   7.594  19.110  0.00  0.00    +0.000 C 
BRANCH  18  19
ATOM     19  C   UNL     1       1.681   8.294  17.915  0.00  0.00    +0.000 C 
BRANCH  19  20
ATOM     20  C   UNL     1       1.949   9.780  18.009  0.00  0.00    +0.000 C 
ATOM     21  O   UNL     1       2.926  10.286  17.456  0.00  0.00    +0.000 OA
ATOM     22  N   UNL     1       1.025  10.548  18.690  0.00  0.00    +0.000 N 
ATOM     23  C   UNL     1       1.188  12.006  18.683  0.00  0.00    +0.000 C 
ATOM     24  C   UNL     1      -0.160  12.714  18.473  0.00  0.00    +0.000 C 
ATOM     25  N   UNL     1      -1.111  12.246  19.493  0.00  0.00    +0.000 N 
ATOM     26  C   UNL     1      -1.323  10.790  19.526  0.00  0.00    +0.000 C 
ATOM     27  C   UNL     1       0.024  10.049  19.647  0.00  0.00    +0.000 C 
BRANCH  25  28
ATOM     28  C   UNL     1      -1.880  13.126  20.224  0.00  0.00    +0.000 A 
ATOM     29  C   UNL     1      -3.119  12.753  20.769  0.00  0.00    +0.000 A 
ATOM     30  C   UNL     1      -3.928  13.666  21.456  0.00  0.00    +0.000 A 
ATOM     31  C   UNL     1      -3.505  14.980  21.608  0.00  0.00    +0.000 A 
ATOM     32 CL   UNL     1      -4.500  16.113  22.433  0.00  0.00    +0.000 Cl
ATOM     33  C   UNL     1      -2.280  15.380  21.090  0.00  0.00    +0.000 A 
ATOM     34  C   UNL     1      -1.478  14.457  20.409  0.00  0.00    +0.000 A 
ENDBRANCH  25  28
ENDBRANCH  19  20
ENDBRANCH  18  19
ENDBRANCH   8  18
TORSDOF 5
ENDMDL
MODEL 9
REMARK VINA RESULT:      -7.7      3.377      6.604
REMARK  Name = 
REMARK  6 active torsions:
REMARK  status: ('A' for Active; 'I' for Inactive)
REMARK    1  A    between atoms: C_1  and  C_2
REMARK    2  A    between atoms: C_6  and  C_7
REMARK    3  A    between atoms: N_14  and  C_15
REMARK    4  A    between atoms: C_15  and  C_16
REMARK    5  A    between atoms: C_16  and  C_17
REMARK    6  A    between atoms: N_22  and  C_23
REMARK                            x       y       z     vdW  Elec       q    Type
REMARK                         _______ _______ _______ _____ _____    ______ ____
ROOT
ATOM      1  C   UNL     1       6.383   4.511  14.700  0.00  0.00    +0.000 C 
ATOM      2  C   UNL     1       5.476   4.238  15.838  0.00  0.00    +0.000 A 
ATOM      3  N   UNL     1       5.311   2.998  16.328  0.00  0.00    +0.000 NA
ATOM      4  O   UNL     1       4.396   3.123  17.372  0.00  0.00    +0.000 OA
ATOM      5  C   UNL     1       4.058   4.428  17.501  0.00  0.00    +0.000 A 
ATOM      6  C   UNL     1       3.153   4.988  18.459  0.00  0.00    +0.000 A 
ATOM      7  N   UNL     1       2.917   6.274  18.395  0.00  0.00    +0.000 NA
ATOM      8  N   UNL     1       3.576   7.058  17.432  0.00  0.00    +0.000 N 
ATOM      9  C   UNL     1       4.467   6.569  16.452  0.00  0.00    +0.000 A 
ATOM     10  O   UNL     1       5.004   7.260  15.594  0.00  0.00    +0.000 OA
ATOM     11  C   UNL     1       4.690   5.161  16.542  0.00  0.00    +0.000 A 
ENDROOT
BRANCH   6  12
ATOM     12  C   UNL     1       2.489   4.166  19.510  0.00  0.00    +0.000 A 
ATOM     13  C   UNL     1       2.919   4.169  20.842  0.00  0.00    +0.000 A 
ATOM     14  C   UNL     1       2.239   3.415  21.804  0.00  0.00    +0.000 A 
ATOM     15  C   UNL     1       1.122   2.663  21.445  0.00  0.00    +0.000 A 
ATOM     16  C   UNL     1       0.679   2.662  20.124  0.00  0.00    +0.000 A 
ATOM     17  C   UNL     1       1.357   3.413  19.160  0.00  0.00    +0.000 A 
ENDBRANCH   6  12
BRANCH   8  18
ATOM     18  C   UNL     1       3.358   8.493  17.511  0.00  0.00    +0.000 C 
BRANCH  18  19
ATOM     19  C   UNL     1       2.158   8.852  18.377  0.00  0.00    +0.000 C 
BRANCH  19  20
ATOM     20  C   UNL     1       1.904  10.341  18.284  0.00  0.00    +0.000 C 
ATOM     21  O   UNL     1       2.353  11.004  17.349  0.00  0.00    +0.000 OA
ATOM     22  N   UNL     1       1.105  10.908  19.256  0.00  0.00    +0.000 N 
ATOM     23  C   UNL     1       0.733  12.321  19.116  0.00  0.00    +0.000 C 
ATOM     24  C   UNL     1      -0.748  12.542  19.463  0.00  0.00    +0.000 C 
ATOM     25  N   UNL     1      -1.010  12.008  20.809  0.00  0.00    +0.000 N 
ATOM     26  C   UNL     1      -0.671  10.588  20.992  0.00  0.00    +0.000 C 
ATOM     27  C   UNL     1       0.787  10.319  20.566  0.00  0.00    +0.000 C 
BRANCH  25  28
ATOM     28  C   UNL     1      -1.696  12.737  21.756  0.00  0.00    +0.000 A 
ATOM     29  C   UNL     1      -3.069  13.003  21.636  0.00  0.00    +0.000 A 
ATOM     30  C   UNL     1      -3.751  13.798  22.566  0.00  0.00    +0.000 A 
ATOM     31  C   UNL     1      -3.061  14.343  23.640  0.00  0.00    +0.000 A 
ATOM     32 CL   UNL     1      -3.885  15.336  24.775  0.00  0.00    +0.000 Cl
ATOM     33  C   UNL     1      -1.704  14.091  23.795  0.00  0.00    +0.000 A 
ATOM     34  C   UNL     1      -1.035  13.292  22.861  0.00  0.00    +0.000 A 
ENDBRANCH  25  28
ENDBRANCH  19  20
ENDBRANCH  18  19
ENDBRANCH   8  18
TORSDOF 5
ENDMDL
