MODEL 1
REMARK VINA RESULT:      -9.8      0.000      0.000
REMARK  Name = 
REMARK  7 active torsions:
REMARK  status: ('A' for Active; 'I' for Inactive)
REMARK    1  A    between atoms: C_1  and  C_2
REMARK    2  A    between atoms: C_2  and  C_3
REMARK    3  A    between atoms: C_2  and  C_4
REMARK    4  A    between atoms: N_6  and  C_7
REMARK    5  A    between atoms: C_11  and  C_12
REMARK    6  A    between atoms: C_15  and  C_16
REMARK    7  A    between atoms: C_19  and  C_20
REMARK                            x       y       z     vdW  Elec       q    Type
REMARK                         _______ _______ _______ _____ _____    ______ ____
ROOT
ATOM      1  C   UNL     1       3.314   5.913  18.795  0.00  0.00    +0.000 A 
ATOM      2  C   UNL     1       2.732   7.172  18.469  0.00  0.00    +0.000 A 
ATOM      3  C   UNL     1       1.780   7.723  19.368  0.00  0.00    +0.000 A 
ATOM      4  C   UNL     1       1.426   9.059  19.783  0.00  0.00    +0.000 A 
ATOM      5  N   UNL     1       1.773   9.088  21.094  0.00  0.00    +0.000 NA
ATOM      6  N   UNL     1       1.253   7.898  21.470  0.00  0.00    +0.000 N 
ATOM      7  C   UNL     1       1.585   6.966  20.527  0.00  0.00    +0.000 A 
ATOM      8  C   UNL     1       1.913   5.633  20.655  0.00  0.00    +0.000 A 
ATOM      9  N   UNL     1       2.820   5.126  19.784  0.00  0.00    +0.000 NA
ATOM     10  H   UNL     1       0.948   7.782  22.429  0.00  0.00    +0.000 HD
ENDROOT
BRANCH   4  11
ATOM     11  C   UNL     1       0.238   9.998  19.673  0.00  0.00    +0.000 A 
ATOM     12  C   UNL     1      -0.599  10.575  20.608  0.00  0.00    +0.000 A 
ATOM     13  C   UNL     1      -0.792  11.972  20.191  0.00  0.00    +0.000 A 
ATOM     14  C   UNL     1      -1.354  13.170  20.745  0.00  0.00    +0.000 A 
ATOM     15  C   UNL     1      -1.058  14.399  20.085  0.00  0.00    +0.000 A 
ATOM     16  C   UNL     1      -0.275  14.468  18.937  0.00  0.00    +0.000 A 
ATOM     17  C   UNL     1       0.185  13.305  18.342  0.00  0.00    +0.000 A 
ATOM     18  C   UNL     1      -0.118  12.094  18.973  0.00  0.00    +0.000 A 
ATOM     19  N   UNL     1       0.209  10.824  18.570  0.00  0.00    +0.000 N 
ATOM     20  H   UNL     1       0.810  10.653  17.778  0.00  0.00    +0.000 HD
BRANCH  14  21
ATOM     21  C   UNL     1      -2.226  13.162  21.938  0.00  0.00    +0.000 A 
ATOM     22  C   UNL     1      -1.935  13.924  23.087  0.00  0.00    +0.000 A 
ATOM     23  C   UNL     1      -2.833  13.984  24.151  0.00  0.00    +0.000 A 
ATOM     24  C   UNL     1      -4.006  13.259  24.054  0.00  0.00    +0.000 A 
ATOM     25  N   UNL     1      -4.336  12.508  22.986  0.00  0.00    +0.000 NA
ATOM     26  C   UNL     1      -3.448  12.490  21.960  0.00  0.00    +0.000 A 
ENDBRANCH  14  21
ENDBRANCH   4  11
BRANCH   1  31
ATOM     27  C   UNL     1       6.025   4.361  16.565  0.00  0.00    +0.000 A 
ATOM     28  C   UNL     1       7.077   4.438  17.472  0.00  0.00    +0.000 A 
ATOM     29  N   UNL     1       6.993   5.015  18.696  0.00  0.00    +0.000 NA
ATOM     30  C   UNL     1       5.788   5.513  19.059  0.00  0.00    +0.000 A 
ATOM     31  C   UNL     1       4.641   5.487  18.274  0.00  0.00    +0.000 A 
ATOM     32  C   UNL     1       4.802   4.921  16.977  0.00  0.00    +0.000 A 
BRANCH  27  35
ATOM     33  C   UNL     1       6.636   4.405  14.143  0.00  0.00    +0.000 C 
ATOM     34  O   UNL     1       7.184   5.505  14.151  0.00  0.00    +0.000 OA
ATOM     35  N   UNL     1       6.140   3.764  15.277  0.00  0.00    +0.000 N 
ATOM     36  H   UNL     1       5.913   2.780  15.203  0.00  0.00    +0.000 HD
BRANCH  33  38
ATOM     37  C   UNL     1       5.004   3.528  12.431  0.00  0.00    +0.000 C 
ATOM     38  C   UNL     1       6.475   3.620  12.832  0.00  0.00    +0.000 C 
ATOM     39  C   UNL     1       7.264   4.291  11.700  0.00  0.00    +0.000 C 
ENDBRANCH  33  38
ENDBRANCH  27  35
ENDBRANCH   1  31
TORSDOF 5
ENDMDL
MODEL 2
REMARK VINA RESULT:      -9.2      0.812      1.032
REMARK  Name = 
REMARK  7 active torsions:
REMARK  status: ('A' for Active; 'I' for Inactive)
REMARK    1  A    between atoms: C_1  and  C_2
REMARK    2  A    between atoms: C_2  and  C_3
REMARK    3  A    between atoms: C_2  and  C_4
REMARK    4  A    between atoms: N_6  and  C_7
REMARK    5  A    between atoms: C_11  and  C_12
REMARK    6  A    between atoms: C_15  and  C_16
REMARK    7  A    between atoms: C_19  and  C_20
REMARK                            x       y       z     vdW  Elec       q    Type
REMARK                         _______ _______ _______ _____ _____    ______ ____
ROOT
ATOM      1  C   UNL     1       3.214   5.934  18.879  0.00  0.00    +0.000 A 
ATOM      2  C   UNL     1       2.704   7.248  18.673  0.00  0.00    +0.000 A 
ATOM      3  C   UNL     1       1.740   7.744  19.590  0.00  0.00    +0.000 A 
ATOM      4  C   UNL     1       1.428   9.042  20.137  0.00  0.00    +0.000 A 
ATOM      5  N   UNL     1       1.718   8.911  21.456  0.00  0.00    +0.000 NA
ATOM      6  N   UNL     1       1.130   7.714  21.677  0.00  0.00    +0.000 N 
ATOM      7  C   UNL     1       1.461   6.875  20.649  0.00  0.00    +0.000 A 
ATOM      8  C   UNL     1       1.723   5.522  20.641  0.00  0.00    +0.000 A 
ATOM      9  N   UNL     1       2.644   5.068  19.755  0.00  0.00    +0.000 NA
ATOM     10  H   UNL     1       0.778   7.508  22.605  0.00  0.00    +0.000 HD
ENDROOT
BRANCH   4  11
ATOM     11  C   UNL     1       0.289  10.045  20.087  0.00  0.00    +0.000 A 
ATOM     12  C   UNL     1      -0.296  10.858  21.038  0.00  0.00    +0.000 A 
ATOM     13  C   UNL     1      -0.512  12.164  20.397  0.00  0.00    +0.000 A 
ATOM     14  C   UNL     1      -0.883  13.489  20.802  0.00  0.00    +0.000 A 
ATOM     15  C   UNL     1      -0.683  14.542  19.861  0.00  0.00    +0.000 A 
ATOM     16  C   UNL     1      -0.168  14.326  18.587  0.00  0.00    +0.000 A 
ATOM     17  C   UNL     1       0.097  13.036  18.157  0.00  0.00    +0.000 A 
ATOM     18  C   UNL     1      -0.116  11.996  19.067  0.00  0.00    +0.000 A 
ATOM     19  N   UNL     1       0.057  10.649  18.870  0.00  0.00    +0.000 N 
ATOM     20  H   UNL     1       0.462  10.281  18.022  0.00  0.00    +0.000 HD
BRANCH  14  21
ATOM     21  C   UNL     1      -1.472  13.780  22.125  0.00  0.00    +0.000 A 
ATOM     22  C   UNL     1      -2.733  13.284  22.513  0.00  0.00    +0.000 A 
ATOM     23  C   UNL     1      -3.211  13.482  23.808  0.00  0.00    +0.000 A 
ATOM     24  C   UNL     1      -2.422  14.194  24.691  0.00  0.00    +0.000 A 
ATOM     25  N   UNL     1      -1.213  14.698  24.377  0.00  0.00    +0.000 NA
ATOM     26  C   UNL     1      -0.771  14.468  23.114  0.00  0.00    +0.000 A 
ENDBRANCH  14  21
ENDBRANCH   4  11
BRANCH   1  31
ATOM     27  C   UNL     1       5.936   4.412  16.641  0.00  0.00    +0.000 A 
ATOM     28  C   UNL     1       6.974   4.438  17.567  0.00  0.00    +0.000 A 
ATOM     29  N   UNL     1       6.878   4.973  18.809  0.00  0.00    +0.000 NA
ATOM     30  C   UNL     1       5.676   5.480  19.169  0.00  0.00    +0.000 A 
ATOM     31  C   UNL     1       4.543   5.503  18.366  0.00  0.00    +0.000 A 
ATOM     32  C   UNL     1       4.716   4.979  17.052  0.00  0.00    +0.000 A 
BRANCH  27  35
ATOM     33  C   UNL     1       6.764   4.448  14.283  0.00  0.00    +0.000 C 
ATOM     34  O   UNL     1       7.492   5.432  14.400  0.00  0.00    +0.000 OA
ATOM     35  N   UNL     1       6.063   3.859  15.334  0.00  0.00    +0.000 N 
ATOM     36  H   UNL     1       5.676   2.936  15.186  0.00  0.00    +0.000 HD
BRANCH  33  38
ATOM     37  C   UNL     1       5.110   3.597  12.581  0.00  0.00    +0.000 C 
ATOM     38  C   UNL     1       6.589   3.760  12.921  0.00  0.00    +0.000 C 
ATOM     39  C   UNL     1       7.273   4.573  11.813  0.00  0.00    +0.000 C 
ENDBRANCH  33  38
ENDBRANCH  27  35
ENDBRANCH   1  31
TORSDOF 5
ENDMDL
MODEL 3
REMARK VINA RESULT:      -8.9      0.920      1.241
REMARK  Name = 
REMARK  7 active torsions:
REMARK  status: ('A' for Active; 'I' for Inactive)
REMARK    1  A    between atoms: C_1  and  C_2
REMARK    2  A    between atoms: C_2  and  C_3
REMARK    3  A    between atoms: C_2  and  C_4
REMARK    4  A    between atoms: N_6  and  C_7
REMARK    5  A    between atoms: C_11  and  C_12
REMARK    6  A    between atoms: C_15  and  C_16
REMARK    7  A    between atoms: C_19  and  C_20
REMARK                            x       y       z     vdW  Elec       q    Type
REMARK                         _______ _______ _______ _____ _____    ______ ____
ROOT
ATOM      1  C   UNL     1       3.456   6.069  18.798  0.00  0.00    +0.000 A 
ATOM      2  C   UNL     1       2.867   7.346  18.567  0.00  0.00    +0.000 A 
ATOM      3  C   UNL     1       1.844   7.783  19.452  0.00  0.00    +0.000 A 
ATOM      4  C   UNL     1       1.431   9.060  19.979  0.00  0.00    +0.000 A 
ATOM      5  N   UNL     1       1.690   8.956  21.307  0.00  0.00    +0.000 NA
ATOM      6  N   UNL     1       1.175   7.724  21.519  0.00  0.00    +0.000 N 
ATOM      7  C   UNL     1       1.591   6.903  20.508  0.00  0.00    +0.000 A 
ATOM      8  C   UNL     1       1.942   5.570  20.518  0.00  0.00    +0.000 A 
ATOM      9  N   UNL     1       2.917   5.173  19.664  0.00  0.00    +0.000 NA
ATOM     10  H   UNL     1       0.809   7.501  22.438  0.00  0.00    +0.000 HD
ENDROOT
BRANCH   4  11
ATOM     11  C   UNL     1       0.231   9.985  19.888  0.00  0.00    +0.000 A 
ATOM     12  C   UNL     1      -0.526  10.647  20.835  0.00  0.00    +0.000 A 
ATOM     13  C   UNL     1      -0.766  11.999  20.309  0.00  0.00    +0.000 A 
ATOM     14  C   UNL     1      -1.287  13.243  20.798  0.00  0.00    +0.000 A 
ATOM     15  C   UNL     1      -1.058  14.406  20.003  0.00  0.00    +0.000 A 
ATOM     16  C   UNL     1      -0.379  14.368  18.790  0.00  0.00    +0.000 A 
ATOM     17  C   UNL     1       0.036  13.155  18.267  0.00  0.00    +0.000 A 
ATOM     18  C   UNL     1      -0.201  12.008  19.031  0.00  0.00    +0.000 A 
ATOM     19  N   UNL     1       0.100  10.706  18.720  0.00  0.00    +0.000 N 
ATOM     20  H   UNL     1       0.631  10.462  17.897  0.00  0.00    +0.000 HD
BRANCH  14  21
ATOM     21  C   UNL     1      -2.051  13.346  22.057  0.00  0.00    +0.000 A 
ATOM     22  C   UNL     1      -3.171  12.534  22.326  0.00  0.00    +0.000 A 
ATOM     23  C   UNL     1      -3.802  12.575  23.568  0.00  0.00    +0.000 A 
ATOM     24  C   UNL     1      -3.310  13.447  24.520  0.00  0.00    +0.000 A 
ATOM     25  N   UNL     1      -2.248  14.252  24.320  0.00  0.00    +0.000 NA
ATOM     26  C   UNL     1      -1.646  14.170  23.107  0.00  0.00    +0.000 A 
ENDBRANCH  14  21
ENDBRANCH   4  11
BRANCH   1  31
ATOM     27  C   UNL     1       6.449   5.367  16.501  0.00  0.00    +0.000 A 
ATOM     28  C   UNL     1       7.282   4.787  17.453  0.00  0.00    +0.000 A 
ATOM     29  N   UNL     1       6.980   4.681  18.771  0.00  0.00    +0.000 NA
ATOM     30  C   UNL     1       5.771   5.144  19.164  0.00  0.00    +0.000 A 
ATOM     31  C   UNL     1       4.825   5.724  18.328  0.00  0.00    +0.000 A 
ATOM     32  C   UNL     1       5.217   5.861  16.965  0.00  0.00    +0.000 A 
BRANCH  27  35
ATOM     33  C   UNL     1       6.308   4.658  14.109  0.00  0.00    +0.000 C 
ATOM     34  O   UNL     1       5.404   3.837  14.254  0.00  0.00    +0.000 OA
ATOM     35  N   UNL     1       6.792   5.483  15.123  0.00  0.00    +0.000 N 
ATOM     36  H   UNL     1       7.371   6.269  14.857  0.00  0.00    +0.000 HD
BRANCH  33  38
ATOM     37  C   UNL     1       8.348   5.506  12.892  0.00  0.00    +0.000 C 
ATOM     38  C   UNL     1       6.975   4.854  12.740  0.00  0.00    +0.000 C 
ATOM     39  C   UNL     1       7.135   3.509  12.018  0.00  0.00    +0.000 C 
ENDBRANCH  33  38
ENDBRANCH  27  35
ENDBRANCH   1  31
TORSDOF 5
ENDMDL
MODEL 4
REMARK VINA RESULT:      -8.9      1.895      2.395
REMARK  Name = 
REMARK  7 active torsions:
REMARK  status: ('A' for Active; 'I' for Inactive)
REMARK    1  A    between atoms: C_1  and  C_2
REMARK    2  A    between atoms: C_2  and  C_3
REMARK    3  A    between atoms: C_2  and  C_4
REMARK    4  A    between atoms: N_6  and  C_7
REMARK    5  A    between atoms: C_11  and  C_12
REMARK    6  A    between atoms: C_15  and  C_16
REMARK    7  A    between atoms: C_19  and  C_20
REMARK                            x       y       z     vdW  Elec       q    Type
REMARK                         _______ _______ _______ _____ _____    ______ ____
ROOT
ATOM      1  C   UNL     1       2.889   6.536  18.796  0.00  0.00    +0.000 A 
ATOM      2  C   UNL     1       2.440   7.751  18.202  0.00  0.00    +0.000 A 
ATOM      3  C   UNL     1       1.542   8.566  18.942  0.00  0.00    +0.000 A 
ATOM      4  C   UNL     1       1.321   9.987  19.064  0.00  0.00    +0.000 A 
ATOM      5  N   UNL     1       1.660  10.253  20.350  0.00  0.00    +0.000 NA
ATOM      6  N   UNL     1       1.019   9.223  20.948  0.00  0.00    +0.000 N 
ATOM      7  C   UNL     1       1.262   8.087  20.225  0.00  0.00    +0.000 A 
ATOM      8  C   UNL     1       1.453   6.785  20.634  0.00  0.00    +0.000 A 
ATOM      9  N   UNL     1       2.311   6.022  19.912  0.00  0.00    +0.000 NA
ATOM     10  H   UNL     1       0.696   9.338  21.901  0.00  0.00    +0.000 HD
ENDROOT
BRANCH   4  11
ATOM     11  C   UNL     1       0.235  10.993  18.730  0.00  0.00    +0.000 A 
ATOM     12  C   UNL     1      -1.144  10.920  18.699  0.00  0.00    +0.000 A 
ATOM     13  C   UNL     1      -1.643  12.161  19.311  0.00  0.00    +0.000 A 
ATOM     14  C   UNL     1      -2.900  12.678  19.771  0.00  0.00    +0.000 A 
ATOM     15  C   UNL     1      -2.867  13.850  20.582  0.00  0.00    +0.000 A 
ATOM     16  C   UNL     1      -1.685  14.503  20.918  0.00  0.00    +0.000 A 
ATOM     17  C   UNL     1      -0.481  14.065  20.392  0.00  0.00    +0.000 A 
ATOM     18  C   UNL     1      -0.506  12.927  19.580  0.00  0.00    +0.000 A 
ATOM     19  N   UNL     1       0.544  12.321  18.938  0.00  0.00    +0.000 N 
ATOM     20  H   UNL     1       1.499  12.615  19.080  0.00  0.00    +0.000 HD
BRANCH  14  21
ATOM     21  C   UNL     1      -4.193  12.057  19.418  0.00  0.00    +0.000 A 
ATOM     22  C   UNL     1      -5.290  12.051  20.303  0.00  0.00    +0.000 A 
ATOM     23  C   UNL     1      -6.530  11.558  19.899  0.00  0.00    +0.000 A 
ATOM     24  C   UNL     1      -6.646  11.059  18.616  0.00  0.00    +0.000 A 
ATOM     25  N   UNL     1      -5.633  11.032  17.729  0.00  0.00    +0.000 NA
ATOM     26  C   UNL     1      -4.446  11.539  18.149  0.00  0.00    +0.000 A 
ENDBRANCH  14  21
ENDBRANCH   4  11
BRANCH   1  31
ATOM     27  C   UNL     1       5.531   4.583  16.812  0.00  0.00    +0.000 A 
ATOM     28  C   UNL     1       6.453   4.420  17.841  0.00  0.00    +0.000 A 
ATOM     29  N   UNL     1       6.319   4.953  19.081  0.00  0.00    +0.000 NA
ATOM     30  C   UNL     1       5.191   5.658  19.328  0.00  0.00    +0.000 A 
ATOM     31  C   UNL     1       4.171   5.885  18.412  0.00  0.00    +0.000 A 
ATOM     32  C   UNL     1       4.390   5.350  17.110  0.00  0.00    +0.000 A 
BRANCH  27  35
ATOM     33  C   UNL     1       6.627   4.468  14.570  0.00  0.00    +0.000 C 
ATOM     34  O   UNL     1       7.521   5.278  14.803  0.00  0.00    +0.000 OA
ATOM     35  N   UNL     1       5.699   4.027  15.511  0.00  0.00    +0.000 N 
ATOM     36  H   UNL     1       5.152   3.205  15.288  0.00  0.00    +0.000 HD
BRANCH  33  38
ATOM     37  C   UNL     1       5.016   3.798  12.749  0.00  0.00    +0.000 C 
ATOM     38  C   UNL     1       6.482   3.843  13.174  0.00  0.00    +0.000 C 
ATOM     39  C   UNL     1       7.281   4.643  12.137  0.00  0.00    +0.000 C 
ENDBRANCH  33  38
ENDBRANCH  27  35
ENDBRANCH   1  31
TORSDOF 5
ENDMDL
MODEL 5
REMARK VINA RESULT:      -8.9      1.095      1.562
REMARK  Name = 
REMARK  7 active torsions:
REMARK  status: ('A' for Active; 'I' for Inactive)
REMARK    1  A    between atoms: C_1  and  C_2
REMARK    2  A    between atoms: C_2  and  C_3
REMARK    3  A    between atoms: C_2  and  C_4
REMARK    4  A    between atoms: N_6  and  C_7
REMARK    5  A    between atoms: C_11  and  C_12
REMARK    6  A    between atoms: C_15  and  C_16
REMARK    7  A    between atoms: C_19  and  C_20
REMARK                            x       y       z     vdW  Elec       q    Type
REMARK                         _______ _______ _______ _____ _____    ______ ____
ROOT
ATOM      1  C   UNL     1       2.994   6.421  18.710  0.00  0.00    +0.000 A 
ATOM      2  C   UNL     1       2.554   7.659  18.159  0.00  0.00    +0.000 A 
ATOM      3  C   UNL     1       1.633   8.437  18.910  0.00  0.00    +0.000 A 
ATOM      4  C   UNL     1       1.402   9.850  19.089  0.00  0.00    +0.000 A 
ATOM      5  N   UNL     1       1.706  10.060  20.394  0.00  0.00    +0.000 NA
ATOM      6  N   UNL     1       1.056   9.002  20.929  0.00  0.00    +0.000 N 
ATOM      7  C   UNL     1       1.324   7.901  20.164  0.00  0.00    +0.000 A 
ATOM      8  C   UNL     1       1.511   6.582  20.519  0.00  0.00    +0.000 A 
ATOM      9  N   UNL     1       2.391   5.856  19.786  0.00  0.00    +0.000 NA
ATOM     10  H   UNL     1       0.708   9.073  21.878  0.00  0.00    +0.000 HD
ENDROOT
BRANCH   4  11
ATOM     11  C   UNL     1       0.319  10.866  18.773  0.00  0.00    +0.000 A 
ATOM     12  C   UNL     1      -0.951  11.079  19.272  0.00  0.00    +0.000 A 
ATOM     13  C   UNL     1      -1.099  12.534  19.432  0.00  0.00    +0.000 A 
ATOM     14  C   UNL     1      -2.029  13.438  20.044  0.00  0.00    +0.000 A 
ATOM     15  C   UNL     1      -1.614  14.792  20.209  0.00  0.00    +0.000 A 
ATOM     16  C   UNL     1      -0.372  15.257  19.787  0.00  0.00    +0.000 A 
ATOM     17  C   UNL     1       0.487  14.411  19.106  0.00  0.00    +0.000 A 
ATOM     18  C   UNL     1       0.079  13.086  18.923  0.00  0.00    +0.000 A 
ATOM     19  N   UNL     1       0.743  12.078  18.271  0.00  0.00    +0.000 N 
ATOM     20  H   UNL     1       1.683  12.195  17.922  0.00  0.00    +0.000 HD
BRANCH  14  21
ATOM     21  C   UNL     1      -3.377  13.019  20.478  0.00  0.00    +0.000 A 
ATOM     22  C   UNL     1      -4.343  12.537  19.572  0.00  0.00    +0.000 A 
ATOM     23  C   UNL     1      -5.565  12.043  20.026  0.00  0.00    +0.000 A 
ATOM     24  C   UNL     1      -5.809  12.059  21.386  0.00  0.00    +0.000 A 
ATOM     25  N   UNL     1      -4.929  12.512  22.299  0.00  0.00    +0.000 NA
ATOM     26  C   UNL     1      -3.741  12.965  21.823  0.00  0.00    +0.000 A 
ENDBRANCH  14  21
ENDBRANCH   4  11
BRANCH   1  31
ATOM     27  C   UNL     1       5.656   4.447  16.774  0.00  0.00    +0.000 A 
ATOM     28  C   UNL     1       6.608   4.377  17.785  0.00  0.00    +0.000 A 
ATOM     29  N   UNL     1       6.486   4.978  18.995  0.00  0.00    +0.000 NA
ATOM     30  C   UNL     1       5.339   5.657  19.230  0.00  0.00    +0.000 A 
ATOM     31  C   UNL     1       4.289   5.793  18.330  0.00  0.00    +0.000 A 
ATOM     32  C   UNL     1       4.496   5.190  17.056  0.00  0.00    +0.000 A 
BRANCH  27  35
ATOM     33  C   UNL     1       6.359   4.431  14.376  0.00  0.00    +0.000 C 
ATOM     34  O   UNL     1       6.920   5.525  14.382  0.00  0.00    +0.000 OA
ATOM     35  N   UNL     1       5.812   3.821  15.503  0.00  0.00    +0.000 N 
ATOM     36  H   UNL     1       5.575   2.839  15.441  0.00  0.00    +0.000 HD
BRANCH  33  38
ATOM     37  C   UNL     1       4.805   3.651  12.548  0.00  0.00    +0.000 C 
ATOM     38  C   UNL     1       6.238   3.621  13.077  0.00  0.00    +0.000 C 
ATOM     39  C   UNL     1       7.181   4.177  12.002  0.00  0.00    +0.000 C 
ENDBRANCH  33  38
ENDBRANCH  27  35
ENDBRANCH   1  31
TORSDOF 5
ENDMDL
MODEL 6
REMARK VINA RESULT:      -8.7      1.619      2.269
REMARK  Name = 
REMARK  7 active torsions:
REMARK  status: ('A' for Active; 'I' for Inactive)
REMARK    1  A    between atoms: C_1  and  C_2
REMARK    2  A    between atoms: C_2  and  C_3
REMARK    3  A    between atoms: C_2  and  C_4
REMARK    4  A    between atoms: N_6  and  C_7
REMARK    5  A    between atoms: C_11  and  C_12
REMARK    6  A    between atoms: C_15  and  C_16
REMARK    7  A    between atoms: C_19  and  C_20
REMARK                            x       y       z     vdW  Elec       q    Type
REMARK                         _______ _______ _______ _____ _____    ______ ____
ROOT
ATOM      1  C   UNL     1       2.649   6.625  19.080  0.00  0.00    +0.000 A 
ATOM      2  C   UNL     1       2.193   7.820  18.450  0.00  0.00    +0.000 A 
ATOM      3  C   UNL     1       1.366   8.699  19.199  0.00  0.00    +0.000 A 
ATOM      4  C   UNL     1       1.191  10.130  19.257  0.00  0.00    +0.000 A 
ATOM      5  N   UNL     1       1.618  10.454  20.502  0.00  0.00    +0.000 NA
ATOM      6  N   UNL     1       0.992   9.476  21.195  0.00  0.00    +0.000 N 
ATOM      7  C   UNL     1       1.159   8.297  20.522  0.00  0.00    +0.000 A 
ATOM      8  C   UNL     1       1.342   7.013  20.988  0.00  0.00    +0.000 A 
ATOM      9  N   UNL     1       2.132   6.189  20.257  0.00  0.00    +0.000 NA
ATOM     10  H   UNL     1       0.734   9.651  22.159  0.00  0.00    +0.000 HD
ENDROOT
BRANCH   4  11
ATOM     11  C   UNL     1       0.111  11.149  18.938  0.00  0.00    +0.000 A 
ATOM     12  C   UNL     1      -1.259  11.159  19.111  0.00  0.00    +0.000 A 
ATOM     13  C   UNL     1      -1.609  12.500  19.603  0.00  0.00    +0.000 A 
ATOM     14  C   UNL     1      -2.761  13.152  20.155  0.00  0.00    +0.000 A 
ATOM     15  C   UNL     1      -2.559  14.420  20.779  0.00  0.00    +0.000 A 
ATOM     16  C   UNL     1      -1.313  15.036  20.848  0.00  0.00    +0.000 A 
ATOM     17  C   UNL     1      -0.219  14.456  20.228  0.00  0.00    +0.000 A 
ATOM     18  C   UNL     1      -0.413  13.222  19.598  0.00  0.00    +0.000 A 
ATOM     19  N   UNL     1       0.504  12.470  18.909  0.00  0.00    +0.000 N 
ATOM     20  H   UNL     1       1.481  12.720  18.872  0.00  0.00    +0.000 HD
BRANCH  14  21
ATOM     21  C   UNL     1      -4.117  12.572  20.080  0.00  0.00    +0.000 A 
ATOM     22  C   UNL     1      -4.600  11.938  18.918  0.00  0.00    +0.000 A 
ATOM     23  C   UNL     1      -5.840  11.301  18.914  0.00  0.00    +0.000 A 
ATOM     24  C   UNL     1      -6.588  11.327  20.076  0.00  0.00    +0.000 A 
ATOM     25  N   UNL     1      -6.183  11.922  21.215  0.00  0.00    +0.000 NA
ATOM     26  C   UNL     1      -4.962  12.513  21.187  0.00  0.00    +0.000 A 
ENDBRANCH  14  21
ENDBRANCH   4  11
BRANCH   1  31
ATOM     27  C   UNL     1       5.278   4.886  16.890  0.00  0.00    +0.000 A 
ATOM     28  C   UNL     1       6.040   4.338  17.916  0.00  0.00    +0.000 A 
ATOM     29  N   UNL     1       5.815   4.551  19.236  0.00  0.00    +0.000 NA
ATOM     30  C   UNL     1       4.752   5.323  19.561  0.00  0.00    +0.000 A 
ATOM     31  C   UNL     1       3.886   5.918  18.652  0.00  0.00    +0.000 A 
ATOM     32  C   UNL     1       4.203   5.707  17.279  0.00  0.00    +0.000 A 
BRANCH  27  35
ATOM     33  C   UNL     1       6.655   5.143  14.821  0.00  0.00    +0.000 C 
ATOM     34  O   UNL     1       7.623   5.678  15.356  0.00  0.00    +0.000 OA
ATOM     35  N   UNL     1       5.541   4.662  15.508  0.00  0.00    +0.000 N 
ATOM     36  H   UNL     1       4.909   4.047  15.012  0.00  0.00    +0.000 HD
BRANCH  33  38
ATOM     37  C   UNL     1       7.996   5.158  12.685  0.00  0.00    +0.000 C 
ATOM     38  C   UNL     1       6.616   4.938  13.299  0.00  0.00    +0.000 C 
ATOM     39  C   UNL     1       6.133   3.522  12.956  0.00  0.00    +0.000 C 
ENDBRANCH  33  38
ENDBRANCH  27  35
ENDBRANCH   1  31
TORSDOF 5
ENDMDL
MODEL 7
REMARK VINA RESULT:      -8.6      3.327     11.946
REMARK  Name = 
REMARK  7 active torsions:
REMARK  status: ('A' for Active; 'I' for Inactive)
REMARK    1  A    between atoms: C_1  and  C_2
REMARK    2  A    between atoms: C_2  and  C_3
REMARK    3  A    between atoms: C_2  and  C_4
REMARK    4  A    between atoms: N_6  and  C_7
REMARK    5  A    between atoms: C_11  and  C_12
REMARK    6  A    between atoms: C_15  and  C_16
REMARK    7  A    between atoms: C_19  and  C_20
REMARK                            x       y       z     vdW  Elec       q    Type
REMARK                         _______ _______ _______ _____ _____    ______ ____
ROOT
ATOM      1  C   UNL     1      -1.002  11.239  20.348  0.00  0.00    +0.000 A 
ATOM      2  C   UNL     1      -0.312   9.997  20.459  0.00  0.00    +0.000 A 
ATOM      3  C   UNL     1       0.369   9.505  19.314  0.00  0.00    +0.000 A 
ATOM      4  C   UNL     1       1.576   8.744  19.096  0.00  0.00    +0.000 A 
ATOM      5  N   UNL     1       2.390   9.615  18.451  0.00  0.00    +0.000 NA
ATOM      6  N   UNL     1       1.501  10.104  17.557  0.00  0.00    +0.000 N 
ATOM      7  C   UNL     1       0.330  10.365  18.213  0.00  0.00    +0.000 A 
ATOM      8  C   UNL     1      -0.589  11.378  18.044  0.00  0.00    +0.000 A 
ATOM      9  N   UNL     1      -1.231  11.831  19.148  0.00  0.00    +0.000 NA
ATOM     10  H   UNL     1       1.843  10.440  16.664  0.00  0.00    +0.000 HD
ENDROOT
BRANCH   4  11
ATOM     11  C   UNL     1       1.968   7.377  18.565  0.00  0.00    +0.000 A 
ATOM     12  C   UNL     1       3.007   6.936  17.768  0.00  0.00    +0.000 A 
ATOM     13  C   UNL     1       3.488   5.681  18.365  0.00  0.00    +0.000 A 
ATOM     14  C   UNL     1       4.607   4.798  18.204  0.00  0.00    +0.000 A 
ATOM     15  C   UNL     1       4.825   3.825  19.224  0.00  0.00    +0.000 A 
ATOM     16  C   UNL     1       3.995   3.696  20.333  0.00  0.00    +0.000 A 
ATOM     17  C   UNL     1       2.858   4.478  20.440  0.00  0.00    +0.000 A 
ATOM     18  C   UNL     1       2.627   5.422  19.434  0.00  0.00    +0.000 A 
ATOM     19  N   UNL     1       1.571   6.290  19.314  0.00  0.00    +0.000 N 
ATOM     20  H   UNL     1       0.872   6.385  20.036  0.00  0.00    +0.000 HD
BRANCH  14  21
ATOM     21  C   UNL     1       5.504   4.856  17.032  0.00  0.00    +0.000 A 
ATOM     22  C   UNL     1       5.252   4.120  15.856  0.00  0.00    +0.000 A 
ATOM     23  C   UNL     1       6.053   4.282  14.727  0.00  0.00    +0.000 A 
ATOM     24  C   UNL     1       7.111   5.169  14.801  0.00  0.00    +0.000 A 
ATOM     25  N   UNL     1       7.405   5.894  15.897  0.00  0.00    +0.000 NA
ATOM     26  C   UNL     1       6.591   5.726  16.970  0.00  0.00    +0.000 A 
ENDBRANCH  14  21
ENDBRANCH   4  11
BRANCH   1  31
ATOM     27  C   UNL     1      -2.861  13.385  22.930  0.00  0.00    +0.000 A 
ATOM     28  C   UNL     1      -1.746  13.958  23.533  0.00  0.00    +0.000 A 
ATOM     29  N   UNL     1      -0.464  13.647  23.223  0.00  0.00    +0.000 NA
ATOM     30  C   UNL     1      -0.272  12.742  22.235  0.00  0.00    +0.000 A 
ATOM     31  C   UNL     1      -1.283  12.105  21.525  0.00  0.00    +0.000 A 
ATOM     32  C   UNL     1      -2.610  12.428  21.931  0.00  0.00    +0.000 A 
BRANCH  27  35
ATOM     33  C   UNL     1      -5.049  12.909  24.040  0.00  0.00    +0.000 C 
ATOM     34  O   UNL     1      -4.693  11.893  24.633  0.00  0.00    +0.000 OA
ATOM     35  N   UNL     1      -4.202  13.716  23.282  0.00  0.00    +0.000 N 
ATOM     36  H   UNL     1      -4.532  14.636  23.023  0.00  0.00    +0.000 HD
BRANCH  33  38
ATOM     37  C   UNL     1      -6.619  14.850  23.682  0.00  0.00    +0.000 C 
ATOM     38  C   UNL     1      -6.505  13.391  24.117  0.00  0.00    +0.000 C 
ATOM     39  C   UNL     1      -7.408  12.529  23.225  0.00  0.00    +0.000 C 
ENDBRANCH  33  38
ENDBRANCH  27  35
ENDBRANCH   1  31
TORSDOF 5
ENDMDL
MODEL 8
REMARK VINA RESULT:      -8.6      1.345      1.711
REMARK  Name = 
REMARK  7 active torsions:
REMARK  status: ('A' for Active; 'I' for Inactive)
REMARK    1  A    between atoms: C_1  and  C_2
REMARK    2  A    between atoms: C_2  and  C_3
REMARK    3  A    between atoms: C_2  and  C_4
REMARK    4  A    between atoms: N_6  and  C_7
REMARK    5  A    between atoms: C_11  and  C_12
REMARK    6  A    between atoms: C_15  and  C_16
REMARK    7  A    between atoms: C_19  and  C_20
REMARK                            x       y       z     vdW  Elec       q    Type
REMARK                         _______ _______ _______ _____ _____    ______ ____
ROOT
ATOM      1  C   UNL     1       2.735   6.494  18.915  0.00  0.00    +0.000 A 
ATOM      2  C   UNL     1       2.249   7.686  18.304  0.00  0.00    +0.000 A 
ATOM      3  C   UNL     1       1.413   8.540  19.072  0.00  0.00    +0.000 A 
ATOM      4  C   UNL     1       1.209   9.967  19.148  0.00  0.00    +0.000 A 
ATOM      5  N   UNL     1       1.644  10.285  20.393  0.00  0.00    +0.000 NA
ATOM      6  N   UNL     1       1.045   9.287  21.081  0.00  0.00    +0.000 N 
ATOM      7  C   UNL     1       1.227   8.120  20.392  0.00  0.00    +0.000 A 
ATOM      8  C   UNL     1       1.441   6.835  20.841  0.00  0.00    +0.000 A 
ATOM      9  N   UNL     1       2.239   6.034  20.092  0.00  0.00    +0.000 NA
ATOM     10  H   UNL     1       0.794   9.446  22.049  0.00  0.00    +0.000 HD
ENDROOT
BRANCH   4  11
ATOM     11  C   UNL     1       0.107  10.968  18.852  0.00  0.00    +0.000 A 
ATOM     12  C   UNL     1      -1.173  11.136  19.344  0.00  0.00    +0.000 A 
ATOM     13  C   UNL     1      -1.356  12.581  19.549  0.00  0.00    +0.000 A 
ATOM     14  C   UNL     1      -2.313  13.443  20.180  0.00  0.00    +0.000 A 
ATOM     15  C   UNL     1      -1.931  14.801  20.393  0.00  0.00    +0.000 A 
ATOM     16  C   UNL     1      -0.696  15.307  20.000  0.00  0.00    +0.000 A 
ATOM     17  C   UNL     1       0.190  14.503  19.301  0.00  0.00    +0.000 A 
ATOM     18  C   UNL     1      -0.186  13.176  19.071  0.00  0.00    +0.000 A 
ATOM     19  N   UNL     1       0.508  12.205  18.395  0.00  0.00    +0.000 N 
ATOM     20  H   UNL     1       1.448  12.354  18.060  0.00  0.00    +0.000 HD
BRANCH  14  21
ATOM     21  C   UNL     1      -3.655  12.980  20.586  0.00  0.00    +0.000 A 
ATOM     22  C   UNL     1      -4.108  13.059  21.918  0.00  0.00    +0.000 A 
ATOM     23  C   UNL     1      -5.419  12.720  22.250  0.00  0.00    +0.000 A 
ATOM     24  C   UNL     1      -6.253  12.285  21.238  0.00  0.00    +0.000 A 
ATOM     25  N   UNL     1      -5.877  12.182  19.949  0.00  0.00    +0.000 NA
ATOM     26  C   UNL     1      -4.601  12.541  19.660  0.00  0.00    +0.000 A 
ENDBRANCH  14  21
ENDBRANCH   4  11
BRANCH   1  31
ATOM     27  C   UNL     1       5.356   4.797  16.684  0.00  0.00    +0.000 A 
ATOM     28  C   UNL     1       6.161   4.288  17.698  0.00  0.00    +0.000 A 
ATOM     29  N   UNL     1       5.964   4.517  19.019  0.00  0.00    +0.000 NA
ATOM     30  C   UNL     1       4.888   5.263  19.360  0.00  0.00    +0.000 A 
ATOM     31  C   UNL     1       3.981   5.817  18.465  0.00  0.00    +0.000 A 
ATOM     32  C   UNL     1       4.268   5.592  17.088  0.00  0.00    +0.000 A 
BRANCH  27  35
ATOM     33  C   UNL     1       6.680   5.044  14.579  0.00  0.00    +0.000 C 
ATOM     34  O   UNL     1       7.652   5.601  15.083  0.00  0.00    +0.000 OA
ATOM     35  N   UNL     1       5.590   4.557  15.299  0.00  0.00    +0.000 N 
ATOM     36  H   UNL     1       4.955   3.926  14.827  0.00  0.00    +0.000 HD
BRANCH  33  38
ATOM     37  C   UNL     1       7.950   5.121  12.402  0.00  0.00    +0.000 C 
ATOM     38  C   UNL     1       6.607   4.818  13.062  0.00  0.00    +0.000 C 
ATOM     39  C   UNL     1       6.210   3.369  12.750  0.00  0.00    +0.000 C 
ENDBRANCH  33  38
ENDBRANCH  27  35
ENDBRANCH   1  31
TORSDOF 5
ENDMDL
MODEL 9
REMARK VINA RESULT:      -8.5      3.127     11.050
REMARK  Name = 
REMARK  7 active torsions:
REMARK  status: ('A' for Active; 'I' for Inactive)
REMARK    1  A    between atoms: C_1  and  C_2
REMARK    2  A    between atoms: C_2  and  C_3
REMARK    3  A    between atoms: C_2  and  C_4
REMARK    4  A    between atoms: N_6  and  C_7
REMARK    5  A    between atoms: C_11  and  C_12
REMARK    6  A    between atoms: C_15  and  C_16
REMARK    7  A    between atoms: C_19  and  C_20
REMARK                            x       y       z     vdW  Elec       q    Type
REMARK                         _______ _______ _______ _____ _____    ______ ____
ROOT
ATOM      1  C   UNL     1       1.167   9.748  19.746  0.00  0.00    +0.000 A 
ATOM      2  C   UNL     1       1.823   8.918  18.791  0.00  0.00    +0.000 A 
ATOM      3  C   UNL     1       2.197   7.607  19.188  0.00  0.00    +0.000 A 
ATOM      4  C   UNL     1       2.287   6.329  18.524  0.00  0.00    +0.000 A 
ATOM      5  N   UNL     1       1.334   5.583  19.138  0.00  0.00    +0.000 NA
ATOM      6  N   UNL     1       1.609   5.915  20.420  0.00  0.00    +0.000 N 
ATOM      7  C   UNL     1       1.798   7.267  20.484  0.00  0.00    +0.000 A 
ATOM      8  C   UNL     1       1.462   8.177  21.462  0.00  0.00    +0.000 A 
ATOM      9  N   UNL     1       1.111   9.425  21.063  0.00  0.00    +0.000 NA
ATOM     10  H   UNL     1       1.400   5.246  21.151  0.00  0.00    +0.000 HD
ENDROOT
BRANCH   4  11
ATOM     11  C   UNL     1       3.363   5.335  18.127  0.00  0.00    +0.000 A 
ATOM     12  C   UNL     1       3.989   5.049  16.929  0.00  0.00    +0.000 A 
ATOM     13  C   UNL     1       5.418   4.878  17.234  0.00  0.00    +0.000 A 
ATOM     14  C   UNL     1       6.645   4.758  16.501  0.00  0.00    +0.000 A 
ATOM     15  C   UNL     1       7.861   4.905  17.231  0.00  0.00    +0.000 A 
ATOM     16  C   UNL     1       7.893   5.135  18.603  0.00  0.00    +0.000 A 
ATOM     17  C   UNL     1       6.715   5.151  19.329  0.00  0.00    +0.000 A 
ATOM     18  C   UNL     1       5.519   4.989  18.623  0.00  0.00    +0.000 A 
ATOM     19  N   UNL     1       4.240   4.952  19.120  0.00  0.00    +0.000 N 
ATOM     20  H   UNL     1       4.038   5.137  20.091  0.00  0.00    +0.000 HD
BRANCH  14  21
ATOM     21  C   UNL     1       6.681   4.475  15.051  0.00  0.00    +0.000 A 
ATOM     22  C   UNL     1       5.763   3.603  14.432  0.00  0.00    +0.000 A 
ATOM     23  C   UNL     1       5.751   3.444  13.047  0.00  0.00    +0.000 A 
ATOM     24  C   UNL     1       6.678   4.149  12.303  0.00  0.00    +0.000 A 
ATOM     25  N   UNL     1       7.583   4.991  12.838  0.00  0.00    +0.000 NA
ATOM     26  C   UNL     1       7.552   5.137  14.187  0.00  0.00    +0.000 A 
ENDBRANCH  14  21
ENDBRANCH   4  11
BRANCH   1  31
ATOM     27  C   UNL     1      -1.944  11.735  18.696  0.00  0.00    +0.000 A 
ATOM     28  C   UNL     1      -1.298  12.908  18.322  0.00  0.00    +0.000 A 
ATOM     29  N   UNL     1       0.034  13.125  18.457  0.00  0.00    +0.000 NA
ATOM     30  C   UNL     1       0.774  12.109  18.958  0.00  0.00    +0.000 A 
ATOM     31  C   UNL     1       0.277  10.873  19.351  0.00  0.00    +0.000 A 
ATOM     32  C   UNL     1      -1.136  10.721  19.240  0.00  0.00    +0.000 A 
BRANCH  27  35
ATOM     33  C   UNL     1      -3.992  11.179  17.376  0.00  0.00    +0.000 C 
ATOM     34  O   UNL     1      -3.413  10.839  16.346  0.00  0.00    +0.000 OA
ATOM     35  N   UNL     1      -3.348  11.534  18.560  0.00  0.00    +0.000 N 
ATOM     36  H   UNL     1      -3.904  11.580  19.405  0.00  0.00    +0.000 HD
BRANCH  33  38
ATOM     37  C   UNL     1      -6.028  10.742  18.798  0.00  0.00    +0.000 C 
ATOM     38  C   UNL     1      -5.526  11.215  17.436  0.00  0.00    +0.000 C 
ATOM     39  C   UNL     1      -6.044  12.637  17.176  0.00  0.00    +0.000 C 
ENDBRANCH  33  38
ENDBRANCH  27  35
ENDBRANCH   1  31
TORSDOF 5
ENDMDL
