MODEL 1
REMARK VINA RESULT:      -9.8      0.000      0.000
REMARK  Name = 
REMARK  6 active torsions:
REMARK  status: ('A' for Active; 'I' for Inactive)
REMARK    1  A    between atoms: C_1  and  C_2
REMARK    2  A    between atoms: N_4  and  C_5
REMARK    3  A    between atoms: N_14  and  C_15
REMARK    4  A    between atoms: C_19  and  O_20
REMARK    5  A    between atoms: O_20  and  C_21
REMARK    6  A    between atoms: C_27  and  C_28
REMARK                            x       y       z     vdW  Elec       q    Type
REMARK                         _______ _______ _______ _____ _____    ______ ____
ROOT
ATOM      1  C   UNL     1       1.095  10.094  19.682  0.00  0.00    +0.000 A 
ATOM      2  C   UNL     1       1.033   9.547  20.919  0.00  0.00    +0.000 A 
ATOM      3  C   UNL     1       1.197   8.115  21.144  0.00  0.00    +0.000 A 
ATOM      4  C   UNL     1       1.692   7.342  20.165  0.00  0.00    +0.000 A 
ATOM      5  N   UNL     1       2.000   7.938  18.943  0.00  0.00    +0.000 N 
ATOM      6  C   UNL     1       1.529   9.180  18.572  0.00  0.00    +0.000 A 
ATOM      7  O   UNL     1       1.589   9.554  17.401  0.00  0.00    +0.000 OA
ATOM      8  C   UNL     1       2.926   7.276  18.037  0.00  0.00    +0.000 C 
ATOM      9  C   UNL     1       3.770   6.312  18.833  0.00  0.00    +0.000 C 
ATOM     10  N   UNL     1       2.863   5.326  19.405  0.00  0.00    +0.000 N 
ATOM     11  C   UNL     1       1.896   5.823  20.295  0.00  0.00    +0.000 C 
ATOM     12  O   UNL     1       1.183   5.126  21.012  0.00  0.00    +0.000 OA
ENDROOT
BRANCH   1  16
ATOM     13  C   UNL     1       1.755  14.960  18.684  0.00  0.00    +0.000 C 
ATOM     14  C   UNL     1       1.223  13.605  18.935  0.00  0.00    +0.000 A 
ATOM     15  C   UNL     1       1.852  12.473  19.413  0.00  0.00    +0.000 A 
ATOM     16  N   UNL     1       0.914  11.454  19.379  0.00  0.00    +0.000 N 
ATOM     17  C   UNL     1      -0.243  12.066  18.927  0.00  0.00    +0.000 A 
ATOM     18  N   UNL     1      -0.089  13.342  18.665  0.00  0.00    +0.000 NA
ENDBRANCH   1  16
BRANCH  10  19
ATOM     19  C   UNL     1       2.768   3.963  18.848  0.00  0.00    +0.000 C 
ATOM     20  C   UNL     1       3.335   2.834  19.734  0.00  0.00    +0.000 C 
ATOM     21  C   UNL     1       3.614   1.658  18.803  0.00  0.00    +0.000 C 
ATOM     22  C   UNL     1       3.320   2.162  17.392  0.00  0.00    +0.000 C 
ATOM     23  C   UNL     1       3.471   3.688  17.485  0.00  0.00    +0.000 C 
BRANCH  23  24
ATOM     24  O   UNL     1       4.889   3.914  17.514  0.00  0.00    +0.000 OA
BRANCH  24  25
ATOM     25  C   UNL     1       5.612   4.077  16.372  0.00  0.00    +0.000 A 
ATOM     26  C   UNL     1       5.165   3.722  15.096  0.00  0.00    +0.000 A 
ATOM     27  C   UNL     1       5.877   4.118  13.962  0.00  0.00    +0.000 A 
ATOM     28  C   UNL     1       7.040   4.855  14.106  0.00  0.00    +0.000 A 
ATOM     29  F   UNL     1       7.669   5.316  13.018  0.00  0.00    +0.000 F 
ATOM     30  C   UNL     1       7.557   5.121  15.365  0.00  0.00    +0.000 A 
ATOM     31  C   UNL     1       6.870   4.697  16.518  0.00  0.00    +0.000 A 
BRANCH  31  32
ATOM     32  C   UNL     1       7.513   4.973  17.858  0.00  0.00    +0.000 C 
ATOM     33  F   UNL     1       6.713   4.815  18.950  0.00  0.00    +0.000 F 
ATOM     34  F   UNL     1       8.589   4.161  18.082  0.00  0.00    +0.000 F 
ATOM     35  F   UNL     1       7.994   6.246  17.949  0.00  0.00    +0.000 F 
ENDBRANCH  31  32
ENDBRANCH  24  25
ENDBRANCH  23  24
ENDBRANCH  10  19
TORSDOF 5
ENDMDL
MODEL 2
REMARK VINA RESULT:      -8.9      0.936      1.294
REMARK  Name = 
REMARK  6 active torsions:
REMARK  status: ('A' for Active; 'I' for Inactive)
REMARK    1  A    between atoms: C_1  and  C_2
REMARK    2  A    between atoms: N_4  and  C_5
REMARK    3  A    between atoms: N_14  and  C_15
REMARK    4  A    between atoms: C_19  and  O_20
REMARK    5  A    between atoms: O_20  and  C_21
REMARK    6  A    between atoms: C_27  and  C_28
REMARK                            x       y       z     vdW  Elec       q    Type
REMARK                         _______ _______ _______ _____ _____    ______ ____
ROOT
ATOM      1  C   UNL     1       0.847  10.281  20.412  0.00  0.00    +0.000 A 
ATOM      2  C   UNL     1       1.136   9.641  21.570  0.00  0.00    +0.000 A 
ATOM      3  C   UNL     1       1.409   8.210  21.619  0.00  0.00    +0.000 A 
ATOM      4  C   UNL     1       1.657   7.543  20.481  0.00  0.00    +0.000 A 
ATOM      5  N   UNL     1       1.607   8.246  19.278  0.00  0.00    +0.000 N 
ATOM      6  C   UNL     1       1.007   9.480  19.152  0.00  0.00    +0.000 A 
ATOM      7  O   UNL     1       0.740   9.943  18.044  0.00  0.00    +0.000 OA
ATOM      8  C   UNL     1       2.286   7.709  18.107  0.00  0.00    +0.000 C 
ATOM      9  C   UNL     1       3.347   6.742  18.568  0.00  0.00    +0.000 C 
ATOM     10  N   UNL     1       2.663   5.663  19.268  0.00  0.00    +0.000 N 
ATOM     11  C   UNL     1       1.947   6.033  20.419  0.00  0.00    +0.000 C 
ATOM     12  O   UNL     1       1.477   5.243  21.234  0.00  0.00    +0.000 OA
ENDROOT
BRANCH   1  16
ATOM     13  C   UNL     1      -1.437  14.741  20.333  0.00  0.00    +0.000 C 
ATOM     14  C   UNL     1      -0.484  13.614  20.262  0.00  0.00    +0.000 A 
ATOM     15  C   UNL     1      -0.706  12.253  20.322  0.00  0.00    +0.000 A 
ATOM     16  N   UNL     1       0.540  11.647  20.288  0.00  0.00    +0.000 N 
ATOM     17  C   UNL     1       1.431  12.699  20.156  0.00  0.00    +0.000 A 
ATOM     18  N   UNL     1       0.849  13.874  20.129  0.00  0.00    +0.000 NA
ENDBRANCH   1  16
BRANCH  10  19
ATOM     19  C   UNL     1       2.476   4.342  18.638  0.00  0.00    +0.000 C 
ATOM     20  C   UNL     1       2.864   3.125  19.504  0.00  0.00    +0.000 C 
ATOM     21  C   UNL     1       3.095   1.967  18.536  0.00  0.00    +0.000 C 
ATOM     22  C   UNL     1       2.957   2.559  17.136  0.00  0.00    +0.000 C 
ATOM     23  C   UNL     1       3.248   4.056  17.315  0.00  0.00    +0.000 C 
BRANCH  23  24
ATOM     24  O   UNL     1       4.675   4.137  17.454  0.00  0.00    +0.000 OA
BRANCH  24  25
ATOM     25  C   UNL     1       5.494   4.268  16.373  0.00  0.00    +0.000 A 
ATOM     26  C   UNL     1       5.180   3.824  15.085  0.00  0.00    +0.000 A 
ATOM     27  C   UNL     1       5.978   4.188  13.999  0.00  0.00    +0.000 A 
ATOM     28  C   UNL     1       7.094   4.982  14.203  0.00  0.00    +0.000 A 
ATOM     29  F   UNL     1       7.802   5.409  13.150  0.00  0.00    +0.000 F 
ATOM     30  C   UNL     1       7.482   5.339  15.485  0.00  0.00    +0.000 A 
ATOM     31  C   UNL     1       6.708   4.949  16.595  0.00  0.00    +0.000 A 
BRANCH  31  32
ATOM     32  C   UNL     1       7.214   5.326  17.969  0.00  0.00    +0.000 C 
ATOM     33  F   UNL     1       7.930   6.482  18.047  0.00  0.00    +0.000 F 
ATOM     34  F   UNL     1       6.192   5.477  18.863  0.00  0.00    +0.000 F 
ATOM     35  F   UNL     1       8.024   4.368  18.503  0.00  0.00    +0.000 F 
ENDBRANCH  31  32
ENDBRANCH  24  25
ENDBRANCH  23  24
ENDBRANCH  10  19
TORSDOF 5
ENDMDL
MODEL 3
REMARK VINA RESULT:      -8.6      4.173      9.207
REMARK  Name = 
REMARK  6 active torsions:
REMARK  status: ('A' for Active; 'I' for Inactive)
REMARK    1  A    between atoms: C_1  and  C_2
REMARK    2  A    between atoms: N_4  and  C_5
REMARK    3  A    between atoms: N_14  and  C_15
REMARK    4  A    between atoms: C_19  and  O_20
REMARK    5  A    between atoms: O_20  and  C_21
REMARK    6  A    between atoms: C_27  and  C_28
REMARK                            x       y       z     vdW  Elec       q    Type
REMARK                         _______ _______ _______ _____ _____    ______ ____
ROOT
ATOM      1  C   UNL     1       2.260   7.264  19.202  0.00  0.00    +0.000 A 
ATOM      2  C   UNL     1       1.789   7.064  20.455  0.00  0.00    +0.000 A 
ATOM      3  C   UNL     1       1.213   8.143  21.250  0.00  0.00    +0.000 A 
ATOM      4  C   UNL     1       0.880   9.299  20.655  0.00  0.00    +0.000 A 
ATOM      5  N   UNL     1       1.133   9.439  19.291  0.00  0.00    +0.000 N 
ATOM      6  C   UNL     1       1.989   8.611  18.596  0.00  0.00    +0.000 A 
ATOM      7  O   UNL     1       2.399   8.921  17.479  0.00  0.00    +0.000 OA
ATOM      8  C   UNL     1       0.410  10.445  18.528  0.00  0.00    +0.000 C 
ATOM      9  C   UNL     1      -0.854  10.796  19.272  0.00  0.00    +0.000 C 
ATOM     10  N   UNL     1      -0.449  11.358  20.554  0.00  0.00    +0.000 N 
ATOM     11  C   UNL     1       0.276  10.503  21.400  0.00  0.00    +0.000 C 
ATOM     12  O   UNL     1       0.529  10.735  22.579  0.00  0.00    +0.000 OA
ENDROOT
BRANCH   1  16
ATOM     13  C   UNL     1       5.459   4.511  16.498  0.00  0.00    +0.000 C 
ATOM     14  C   UNL     1       4.287   5.076  17.200  0.00  0.00    +0.000 A 
ATOM     15  C   UNL     1       4.123   6.297  17.822  0.00  0.00    +0.000 A 
ATOM     16  N   UNL     1       2.858   6.286  18.388  0.00  0.00    +0.000 N 
ATOM     17  C   UNL     1       2.326   5.063  18.018  0.00  0.00    +0.000 A 
ATOM     18  N   UNL     1       3.148   4.331  17.306  0.00  0.00    +0.000 NA
ENDBRANCH   1  16
BRANCH  10  19
ATOM     19  C   UNL     1      -0.522  12.810  20.808  0.00  0.00    +0.000 C 
ATOM     20  C   UNL     1      -0.983  13.677  19.619  0.00  0.00    +0.000 C 
ATOM     21  C   UNL     1      -0.496  15.095  19.907  0.00  0.00    +0.000 C 
ATOM     22  C   UNL     1       0.333  14.999  21.186  0.00  0.00    +0.000 C 
ATOM     23  C   UNL     1       0.786  13.533  21.247  0.00  0.00    +0.000 C 
BRANCH  23  24
ATOM     24  O   UNL     1       1.847  13.438  20.282  0.00  0.00    +0.000 OA
BRANCH  24  25
ATOM     25  C   UNL     1       3.048  14.051  20.475  0.00  0.00    +0.000 A 
ATOM     26  C   UNL     1       3.745  14.061  21.687  0.00  0.00    +0.000 A 
ATOM     27  C   UNL     1       5.060  14.525  21.742  0.00  0.00    +0.000 A 
ATOM     28  C   UNL     1       5.671  14.991  20.590  0.00  0.00    +0.000 A 
ATOM     29  F   UNL     1       6.961  15.345  20.624  0.00  0.00    +0.000 F 
ATOM     30  C   UNL     1       4.960  15.092  19.404  0.00  0.00    +0.000 A 
ATOM     31  C   UNL     1       3.621  14.662  19.341  0.00  0.00    +0.000 A 
BRANCH  31  32
ATOM     32  C   UNL     1       2.886  14.848  18.033  0.00  0.00    +0.000 C 
ATOM     33  F   UNL     1       2.279  13.739  17.525  0.00  0.00    +0.000 F 
ATOM     34  F   UNL     1       1.896  15.783  18.135  0.00  0.00    +0.000 F 
ATOM     35  F   UNL     1       3.705  15.294  17.038  0.00  0.00    +0.000 F 
ENDBRANCH  31  32
ENDBRANCH  24  25
ENDBRANCH  23  24
ENDBRANCH  10  19
TORSDOF 5
ENDMDL
MODEL 4
REMARK VINA RESULT:      -8.5      6.125     10.895
REMARK  Name = 
REMARK  6 active torsions:
REMARK  status: ('A' for Active; 'I' for Inactive)
REMARK    1  A    between atoms: C_1  and  C_2
REMARK    2  A    between atoms: N_4  and  C_5
REMARK    3  A    between atoms: N_14  and  C_15
REMARK    4  A    between atoms: C_19  and  O_20
REMARK    5  A    between atoms: O_20  and  C_21
REMARK    6  A    between atoms: C_27  and  C_28
REMARK                            x       y       z     vdW  Elec       q    Type
REMARK                         _______ _______ _______ _____ _____    ______ ____
ROOT
ATOM      1  C   UNL     1       2.270   7.236  19.214  0.00  0.00    +0.000 A 
ATOM      2  C   UNL     1       1.855   7.066  20.492  0.00  0.00    +0.000 A 
ATOM      3  C   UNL     1       1.268   8.152  21.269  0.00  0.00    +0.000 A 
ATOM      4  C   UNL     1       0.869   9.272  20.646  0.00  0.00    +0.000 A 
ATOM      5  N   UNL     1       1.064   9.370  19.270  0.00  0.00    +0.000 N 
ATOM      6  C   UNL     1       1.924   8.549  18.572  0.00  0.00    +0.000 A 
ATOM      7  O   UNL     1       2.279   8.831  17.428  0.00  0.00    +0.000 OA
ATOM      8  C   UNL     1       0.273  10.318  18.499  0.00  0.00    +0.000 C 
ATOM      9  C   UNL     1      -0.974  10.650  19.280  0.00  0.00    +0.000 C 
ATOM     10  N   UNL     1      -0.543  11.275  20.523  0.00  0.00    +0.000 N 
ATOM     11  C   UNL     1       0.247  10.479  21.370  0.00  0.00    +0.000 C 
ATOM     12  O   UNL     1       0.535  10.765  22.530  0.00  0.00    +0.000 OA
ENDROOT
BRANCH   1  16
ATOM     13  C   UNL     1       5.499   4.434  16.599  0.00  0.00    +0.000 C 
ATOM     14  C   UNL     1       4.316   5.020  17.265  0.00  0.00    +0.000 A 
ATOM     15  C   UNL     1       4.157   6.239  17.891  0.00  0.00    +0.000 A 
ATOM     16  N   UNL     1       2.874   6.251  18.414  0.00  0.00    +0.000 N 
ATOM     17  C   UNL     1       2.328   5.043  18.015  0.00  0.00    +0.000 A 
ATOM     18  N   UNL     1       3.159   4.299  17.326  0.00  0.00    +0.000 NA
ENDBRANCH   1  16
BRANCH  10  19
ATOM     19  C   UNL     1      -0.662  12.731  20.727  0.00  0.00    +0.000 C 
ATOM     20  C   UNL     1      -0.610  13.211  22.193  0.00  0.00    +0.000 C 
ATOM     21  C   UNL     1      -1.256  14.594  22.214  0.00  0.00    +0.000 C 
ATOM     22  C   UNL     1      -1.772  14.836  20.798  0.00  0.00    +0.000 C 
ATOM     23  C   UNL     1      -1.951  13.431  20.203  0.00  0.00    +0.000 C 
BRANCH  23  24
ATOM     24  O   UNL     1      -3.158  12.933  20.801  0.00  0.00    +0.000 OA
BRANCH  24  25
ATOM     25  C   UNL     1      -4.172  12.421  20.049  0.00  0.00    +0.000 A 
ATOM     26  C   UNL     1      -4.024  11.944  18.743  0.00  0.00    +0.000 A 
ATOM     27  C   UNL     1      -5.062  11.243  18.126  0.00  0.00    +0.000 A 
ATOM     28  C   UNL     1      -6.249  11.034  18.807  0.00  0.00    +0.000 A 
ATOM     29  F   UNL     1      -7.206  10.281  18.252  0.00  0.00    +0.000 F 
ATOM     30  C   UNL     1      -6.454  11.595  20.059  0.00  0.00    +0.000 A 
ATOM     31  C   UNL     1      -5.430  12.336  20.680  0.00  0.00    +0.000 A 
BRANCH  31  32
ATOM     32  C   UNL     1      -5.735  12.965  22.021  0.00  0.00    +0.000 C 
ATOM     33  F   UNL     1      -4.964  12.552  23.065  0.00  0.00    +0.000 F 
ATOM     34  F   UNL     1      -5.595  14.324  21.987  0.00  0.00    +0.000 F 
ATOM     35  F   UNL     1      -7.021  12.743  22.416  0.00  0.00    +0.000 F 
ENDBRANCH  31  32
ENDBRANCH  24  25
ENDBRANCH  23  24
ENDBRANCH  10  19
TORSDOF 5
ENDMDL
MODEL 5
REMARK VINA RESULT:      -8.5      5.518     10.790
REMARK  Name = 
REMARK  6 active torsions:
REMARK  status: ('A' for Active; 'I' for Inactive)
REMARK    1  A    between atoms: C_1  and  C_2
REMARK    2  A    between atoms: N_4  and  C_5
REMARK    3  A    between atoms: N_14  and  C_15
REMARK    4  A    between atoms: C_19  and  O_20
REMARK    5  A    between atoms: O_20  and  C_21
REMARK    6  A    between atoms: C_27  and  C_28
REMARK                            x       y       z     vdW  Elec       q    Type
REMARK                         _______ _______ _______ _____ _____    ______ ____
ROOT
ATOM      1  C   UNL     1       2.510   6.437  19.734  0.00  0.00    +0.000 A 
ATOM      2  C   UNL     1       1.780   6.654  20.854  0.00  0.00    +0.000 A 
ATOM      3  C   UNL     1       1.226   7.964  21.178  0.00  0.00    +0.000 A 
ATOM      4  C   UNL     1       1.189   8.919  20.236  0.00  0.00    +0.000 A 
ATOM      5  N   UNL     1       1.719   8.631  18.980  0.00  0.00    +0.000 N 
ATOM      6  C   UNL     1       2.562   7.566  18.745  0.00  0.00    +0.000 A 
ATOM      7  O   UNL     1       3.222   7.498  17.709  0.00  0.00    +0.000 OA
ATOM      8  C   UNL     1       1.313   9.427  17.831  0.00  0.00    +0.000 C 
ATOM      9  C   UNL     1      -0.006  10.088  18.146  0.00  0.00    +0.000 C 
ATOM     10  N   UNL     1       0.221  10.964  19.288  0.00  0.00    +0.000 N 
ATOM     11  C   UNL     1       0.635  10.335  20.474  0.00  0.00    +0.000 C 
ATOM     12  O   UNL     1       0.686  10.880  21.574  0.00  0.00    +0.000 OA
ENDROOT
BRANCH   1  16
ATOM     13  C   UNL     1       3.425   1.828  17.991  0.00  0.00    +0.000 C 
ATOM     14  C   UNL     1       3.494   3.177  18.590  0.00  0.00    +0.000 A 
ATOM     15  C   UNL     1       2.486   4.065  18.909  0.00  0.00    +0.000 A 
ATOM     16  N   UNL     1       3.104   5.216  19.370  0.00  0.00    +0.000 N 
ATOM     17  C   UNL     1       4.456   4.916  19.343  0.00  0.00    +0.000 A 
ATOM     18  N   UNL     1       4.713   3.712  18.893  0.00  0.00    +0.000 NA
ENDBRANCH   1  16
BRANCH  10  19
ATOM     19  C   UNL     1       0.315  12.427  19.121  0.00  0.00    +0.000 C 
ATOM     20  C   UNL     1       1.374  13.136  19.990  0.00  0.00    +0.000 C 
ATOM     21  C   UNL     1       0.958  14.603  20.061  0.00  0.00    +0.000 C 
ATOM     22  C   UNL     1      -0.384  14.692  19.339  0.00  0.00    +0.000 C 
ATOM     23  C   UNL     1      -0.961  13.271  19.414  0.00  0.00    +0.000 C 
BRANCH  23  24
ATOM     24  O   UNL     1      -1.439  13.142  20.763  0.00  0.00    +0.000 OA
BRANCH  24  25
ATOM     25  C   UNL     1      -2.770  13.127  21.054  0.00  0.00    +0.000 A 
ATOM     26  C   UNL     1      -3.774  12.787  20.143  0.00  0.00    +0.000 A 
ATOM     27  C   UNL     1      -5.085  12.591  20.579  0.00  0.00    +0.000 A 
ATOM     28  C   UNL     1      -5.393  12.750  21.919  0.00  0.00    +0.000 A 
ATOM     29  F   UNL     1      -6.629  12.468  22.352  0.00  0.00    +0.000 F 
ATOM     30  C   UNL     1      -4.435  13.194  22.817  0.00  0.00    +0.000 A 
ATOM     31  C   UNL     1      -3.115  13.432  22.386  0.00  0.00    +0.000 A 
BRANCH  31  32
ATOM     32  C   UNL     1      -2.131  13.965  23.402  0.00  0.00    +0.000 C 
ATOM     33  F   UNL     1      -1.037  13.190  23.640  0.00  0.00    +0.000 F 
ATOM     34  F   UNL     1      -1.635  15.184  23.037  0.00  0.00    +0.000 F 
ATOM     35  F   UNL     1      -2.704  14.159  24.625  0.00  0.00    +0.000 F 
ENDBRANCH  31  32
ENDBRANCH  24  25
ENDBRANCH  23  24
ENDBRANCH  10  19
TORSDOF 5
ENDMDL
MODEL 6
REMARK VINA RESULT:      -8.3      5.558     10.442
REMARK  Name = 
REMARK  6 active torsions:
REMARK  status: ('A' for Active; 'I' for Inactive)
REMARK    1  A    between atoms: C_1  and  C_2
REMARK    2  A    between atoms: N_4  and  C_5
REMARK    3  A    between atoms: N_14  and  C_15
REMARK    4  A    between atoms: C_19  and  O_20
REMARK    5  A    between atoms: O_20  and  C_21
REMARK    6  A    between atoms: C_27  and  C_28
REMARK                            x       y       z     vdW  Elec       q    Type
REMARK                         _______ _______ _______ _____ _____    ______ ____
ROOT
ATOM      1  C   UNL     1       2.671   6.069  19.761  0.00  0.00    +0.000 A 
ATOM      2  C   UNL     1       1.827   6.265  20.802  0.00  0.00    +0.000 A 
ATOM      3  C   UNL     1       1.236   7.567  21.088  0.00  0.00    +0.000 A 
ATOM      4  C   UNL     1       1.292   8.538  20.163  0.00  0.00    +0.000 A 
ATOM      5  N   UNL     1       1.952   8.272  18.964  0.00  0.00    +0.000 N 
ATOM      6  C   UNL     1       2.821   7.214  18.802  0.00  0.00    +0.000 A 
ATOM      7  O   UNL     1       3.585   7.166  17.839  0.00  0.00    +0.000 OA
ATOM      8  C   UNL     1       1.664   9.087  17.793  0.00  0.00    +0.000 C 
ATOM      9  C   UNL     1       0.316   9.737  17.980  0.00  0.00    +0.000 C 
ATOM     10  N   UNL     1       0.418  10.595  19.153  0.00  0.00    +0.000 N 
ATOM     11  C   UNL     1       0.709   9.947  20.365  0.00  0.00    +0.000 C 
ATOM     12  O   UNL     1       0.642  10.474  21.473  0.00  0.00    +0.000 OA
ENDROOT
BRANCH   1  16
ATOM     13  C   UNL     1       3.750   1.445  18.157  0.00  0.00    +0.000 C 
ATOM     14  C   UNL     1       3.769   2.810  18.722  0.00  0.00    +0.000 A 
ATOM     15  C   UNL     1       2.730   3.677  18.998  0.00  0.00    +0.000 A 
ATOM     16  N   UNL     1       3.306   4.856  19.441  0.00  0.00    +0.000 N 
ATOM     17  C   UNL     1       4.666   4.594  19.451  0.00  0.00    +0.000 A 
ATOM     18  N   UNL     1       4.965   3.386  19.038  0.00  0.00    +0.000 NA
ENDBRANCH   1  16
BRANCH  10  19
ATOM     19  C   UNL     1       0.521  12.061  19.020  0.00  0.00    +0.000 C 
ATOM     20  C   UNL     1       0.921  12.825  20.300  0.00  0.00    +0.000 C 
ATOM     21  C   UNL     1       0.467  14.268  20.097  0.00  0.00    +0.000 C 
ATOM     22  C   UNL     1      -0.286  14.286  18.769  0.00  0.00    +0.000 C 
ATOM     23  C   UNL     1      -0.751  12.837  18.565  0.00  0.00    +0.000 C 
BRANCH  23  24
ATOM     24  O   UNL     1      -1.867  12.682  19.456  0.00  0.00    +0.000 OA
BRANCH  24  25
ATOM     25  C   UNL     1      -3.081  12.249  19.015  0.00  0.00    +0.000 A 
ATOM     26  C   UNL     1      -3.276  11.487  17.858  0.00  0.00    +0.000 A 
ATOM     27  C   UNL     1      -4.518  10.907  17.596  0.00  0.00    +0.000 A 
ATOM     28  C   UNL     1      -5.566  11.100  18.481  0.00  0.00    +0.000 A 
ATOM     29  F   UNL     1      -6.727  10.466  18.279  0.00  0.00    +0.000 F 
ATOM     30  C   UNL     1      -5.422  11.942  19.574  0.00  0.00    +0.000 A 
ATOM     31  C   UNL     1      -4.186  12.564  19.832  0.00  0.00    +0.000 A 
BRANCH  31  32
ATOM     32  C   UNL     1      -4.110  13.510  21.009  0.00  0.00    +0.000 C 
ATOM     33  F   UNL     1      -3.538  14.723  20.766  0.00  0.00    +0.000 F 
ATOM     34  F   UNL     1      -5.347  13.792  21.514  0.00  0.00    +0.000 F 
ATOM     35  F   UNL     1      -3.403  12.985  22.050  0.00  0.00    +0.000 F 
ENDBRANCH  31  32
ENDBRANCH  24  25
ENDBRANCH  23  24
ENDBRANCH  10  19
TORSDOF 5
ENDMDL
MODEL 7
REMARK VINA RESULT:      -8.3      5.846     11.112
REMARK  Name = 
REMARK  6 active torsions:
REMARK  status: ('A' for Active; 'I' for Inactive)
REMARK    1  A    between atoms: C_1  and  C_2
REMARK    2  A    between atoms: N_4  and  C_5
REMARK    3  A    between atoms: N_14  and  C_15
REMARK    4  A    between atoms: C_19  and  O_20
REMARK    5  A    between atoms: O_20  and  C_21
REMARK    6  A    between atoms: C_27  and  C_28
REMARK                            x       y       z     vdW  Elec       q    Type
REMARK                         _______ _______ _______ _____ _____    ______ ____
ROOT
ATOM      1  C   UNL     1       2.243   6.877  19.782  0.00  0.00    +0.000 A 
ATOM      2  C   UNL     1       1.540   6.928  20.938  0.00  0.00    +0.000 A 
ATOM      3  C   UNL     1       0.925   8.160  21.419  0.00  0.00    +0.000 A 
ATOM      4  C   UNL     1       0.803   9.208  20.590  0.00  0.00    +0.000 A 
ATOM      5  N   UNL     1       1.307   9.090  19.295  0.00  0.00    +0.000 N 
ATOM      6  C   UNL     1       2.200   8.108  18.922  0.00  0.00    +0.000 A 
ATOM      7  O   UNL     1       2.827   8.193  17.868  0.00  0.00    +0.000 OA
ATOM      8  C   UNL     1       0.819   9.981  18.253  0.00  0.00    +0.000 C 
ATOM      9  C   UNL     1      -0.523  10.524  18.675  0.00  0.00    +0.000 C 
ATOM     10  N   UNL     1      -0.308  11.283  19.900  0.00  0.00    +0.000 N 
ATOM     11  C   UNL     1       0.179  10.554  20.998  0.00  0.00    +0.000 C 
ATOM     12  O   UNL     1       0.236  10.978  22.149  0.00  0.00    +0.000 OA
ENDROOT
BRANCH   1  16
ATOM     13  C   UNL     1       3.386   2.612  17.412  0.00  0.00    +0.000 C 
ATOM     14  C   UNL     1       3.384   3.855  18.211  0.00  0.00    +0.000 A 
ATOM     15  C   UNL     1       2.334   4.660  18.606  0.00  0.00    +0.000 A 
ATOM     16  N   UNL     1       2.892   5.741  19.269  0.00  0.00    +0.000 N 
ATOM     17  C   UNL     1       4.252   5.480  19.270  0.00  0.00    +0.000 A 
ATOM     18  N   UNL     1       4.568   4.365  18.657  0.00  0.00    +0.000 NA
ENDBRANCH   1  16
BRANCH  10  19
ATOM     19  C   UNL     1      -0.302  12.758  19.893  0.00  0.00    +0.000 C 
ATOM     20  C   UNL     1       0.538  13.432  20.998  0.00  0.00    +0.000 C 
ATOM     21  C   UNL     1       0.004  14.855  21.135  0.00  0.00    +0.000 C 
ATOM     22  C   UNL     1      -1.202  14.940  20.202  0.00  0.00    +0.000 C 
ATOM     23  C   UNL     1      -1.671  13.488  20.038  0.00  0.00    +0.000 C 
BRANCH  23  24
ATOM     24  O   UNL     1      -2.356  13.185  21.264  0.00  0.00    +0.000 OA
BRANCH  24  25
ATOM     25  C   UNL     1      -3.708  13.307  21.378  0.00  0.00    +0.000 A 
ATOM     26  C   UNL     1      -4.548  13.776  20.364  0.00  0.00    +0.000 A 
ATOM     27  C   UNL     1      -5.934  13.668  20.488  0.00  0.00    +0.000 A 
ATOM     28  C   UNL     1      -6.478  13.106  21.631  0.00  0.00    +0.000 A 
ATOM     29  F   UNL     1      -7.801  12.914  21.708  0.00  0.00    +0.000 F 
ATOM     30  C   UNL     1      -5.666  12.737  22.693  0.00  0.00    +0.000 A 
ATOM     31  C   UNL     1      -4.268  12.874  22.597  0.00  0.00    +0.000 A 
BRANCH  31  32
ATOM     32  C   UNL     1      -3.443  12.503  23.809  0.00  0.00    +0.000 C 
ATOM     33  F   UNL     1      -2.584  11.458  23.652  0.00  0.00    +0.000 F 
ATOM     34  F   UNL     1      -2.667  13.545  24.233  0.00  0.00    +0.000 F 
ATOM     35  F   UNL     1      -4.219  12.170  24.881  0.00  0.00    +0.000 F 
ENDBRANCH  31  32
ENDBRANCH  24  25
ENDBRANCH  23  24
ENDBRANCH  10  19
TORSDOF 5
ENDMDL
MODEL 8
REMARK VINA RESULT:      -8.3      4.165      8.931
REMARK  Name = 
REMARK  6 active torsions:
REMARK  status: ('A' for Active; 'I' for Inactive)
REMARK    1  A    between atoms: C_1  and  C_2
REMARK    2  A    between atoms: N_4  and  C_5
REMARK    3  A    between atoms: N_14  and  C_15
REMARK    4  A    between atoms: C_19  and  O_20
REMARK    5  A    between atoms: O_20  and  C_21
REMARK    6  A    between atoms: C_27  and  C_28
REMARK                            x       y       z     vdW  Elec       q    Type
REMARK                         _______ _______ _______ _____ _____    ______ ____
ROOT
ATOM      1  C   UNL     1       4.850   4.999  16.686  0.00  0.00    +0.000 A 
ATOM      2  C   UNL     1       4.013   4.060  17.186  0.00  0.00    +0.000 A 
ATOM      3  C   UNL     1       3.126   4.330  18.311  0.00  0.00    +0.000 A 
ATOM      4  C   UNL     1       2.915   5.597  18.701  0.00  0.00    +0.000 A 
ATOM      5  N   UNL     1       3.588   6.616  18.029  0.00  0.00    +0.000 N 
ATOM      6  C   UNL     1       4.687   6.391  17.226  0.00  0.00    +0.000 A 
ATOM      7  O   UNL     1       5.413   7.319  16.875  0.00  0.00    +0.000 OA
ATOM      8  C   UNL     1       3.076   7.977  18.095  0.00  0.00    +0.000 C 
ATOM      9  C   UNL     1       1.615   7.923  18.465  0.00  0.00    +0.000 C 
ATOM     10  N   UNL     1       1.533   7.309  19.784  0.00  0.00    +0.000 N 
ATOM     11  C   UNL     1       2.008   5.991  19.879  0.00  0.00    +0.000 C 
ATOM     12  O   UNL     1       1.843   5.257  20.850  0.00  0.00    +0.000 OA
ENDROOT
BRANCH   1  16
ATOM     13  C   UNL     1       6.986   4.053  12.252  0.00  0.00    +0.000 C 
ATOM     14  C   UNL     1       6.686   4.390  13.660  0.00  0.00    +0.000 A 
ATOM     15  C   UNL     1       5.511   4.275  14.374  0.00  0.00    +0.000 A 
ATOM     16  N   UNL     1       5.757   4.807  15.629  0.00  0.00    +0.000 N 
ATOM     17  C   UNL     1       7.095   5.162  15.597  0.00  0.00    +0.000 A 
ATOM     18  N   UNL     1       7.670   4.917  14.445  0.00  0.00    +0.000 NA
ENDBRANCH   1  16
BRANCH  10  19
ATOM     19  C   UNL     1       1.267   8.120  20.987  0.00  0.00    +0.000 C 
ATOM     20  C   UNL     1      -0.146   7.982  21.591  0.00  0.00    +0.000 C 
ATOM     21  C   UNL     1      -0.372   9.228  22.443  0.00  0.00    +0.000 C 
ATOM     22  C   UNL     1       0.853  10.112  22.222  0.00  0.00    +0.000 C 
ATOM     23  C   UNL     1       1.417   9.666  20.866  0.00  0.00    +0.000 C 
BRANCH  23  24
ATOM     24  O   UNL     1       0.537  10.253  19.894  0.00  0.00    +0.000 OA
BRANCH  24  25
ATOM     25  C   UNL     1       0.492  11.600  19.689  0.00  0.00    +0.000 A 
ATOM     26  C   UNL     1       1.311  12.526  20.342  0.00  0.00    +0.000 A 
ATOM     27  C   UNL     1       1.347  13.856  19.920  0.00  0.00    +0.000 A 
ATOM     28  C   UNL     1       0.556  14.261  18.858  0.00  0.00    +0.000 A 
ATOM     29  F   UNL     1       0.664  15.511  18.393  0.00  0.00    +0.000 F 
ATOM     30  C   UNL     1      -0.342  13.383  18.271  0.00  0.00    +0.000 A 
ATOM     31  C   UNL     1      -0.418  12.047  18.710  0.00  0.00    +0.000 A 
BRANCH  31  32
ATOM     32  C   UNL     1      -1.455  11.155  18.065  0.00  0.00    +0.000 C 
ATOM     33  F   UNL     1      -0.986  10.018  17.480  0.00  0.00    +0.000 F 
ATOM     34  F   UNL     1      -2.393  10.735  18.965  0.00  0.00    +0.000 F 
ATOM     35  F   UNL     1      -2.153  11.799  17.086  0.00  0.00    +0.000 F 
ENDBRANCH  31  32
ENDBRANCH  24  25
ENDBRANCH  23  24
ENDBRANCH  10  19
TORSDOF 5
ENDMDL
MODEL 9
REMARK VINA RESULT:      -8.2      4.811      9.657
REMARK  Name = 
REMARK  6 active torsions:
REMARK  status: ('A' for Active; 'I' for Inactive)
REMARK    1  A    between atoms: C_1  and  C_2
REMARK    2  A    between atoms: N_4  and  C_5
REMARK    3  A    between atoms: N_14  and  C_15
REMARK    4  A    between atoms: C_19  and  O_20
REMARK    5  A    between atoms: O_20  and  C_21
REMARK    6  A    between atoms: C_27  and  C_28
REMARK                            x       y       z     vdW  Elec       q    Type
REMARK                         _______ _______ _______ _____ _____    ______ ____
ROOT
ATOM      1  C   UNL     1       2.000   7.997  19.392  0.00  0.00    +0.000 A 
ATOM      2  C   UNL     1       1.526   7.641  20.610  0.00  0.00    +0.000 A 
ATOM      3  C   UNL     1       0.831   8.583  21.479  0.00  0.00    +0.000 A 
ATOM      4  C   UNL     1       0.397   9.750  20.978  0.00  0.00    +0.000 A 
ATOM      5  N   UNL     1       0.662  10.036  19.640  0.00  0.00    +0.000 N 
ATOM      6  C   UNL     1       1.609   9.361  18.900  0.00  0.00    +0.000 A 
ATOM      7  O   UNL     1       2.008   9.808  17.825  0.00  0.00    +0.000 OA
ATOM      8  C   UNL     1      -0.143  11.031  18.947  0.00  0.00    +0.000 C 
ATOM      9  C   UNL     1      -1.450  11.189  19.684  0.00  0.00    +0.000 C 
ATOM     10  N   UNL     1      -1.128  11.671  21.020  0.00  0.00    +0.000 N 
ATOM     11  C   UNL     1      -0.338  10.817  21.808  0.00  0.00    +0.000 C 
ATOM     12  O   UNL     1      -0.133  10.966  23.010  0.00  0.00    +0.000 OA
ENDROOT
BRANCH   1  16
ATOM     13  C   UNL     1       5.342   6.031  16.218  0.00  0.00    +0.000 C 
ATOM     14  C   UNL     1       4.199   6.302  17.113  0.00  0.00    +0.000 A 
ATOM     15  C   UNL     1       3.792   7.477  17.711  0.00  0.00    +0.000 A 
ATOM     16  N   UNL     1       2.708   7.159  18.514  0.00  0.00    +0.000 N 
ATOM     17  C   UNL     1       2.506   5.806  18.299  0.00  0.00    +0.000 A 
ATOM     18  N   UNL     1       3.370   5.277  17.467  0.00  0.00    +0.000 NA
ENDBRANCH   1  16
BRANCH  10  19
ATOM     19  C   UNL     1      -1.349  13.080  21.398  0.00  0.00    +0.000 C 
ATOM     20  C   UNL     1      -2.562  13.769  20.740  0.00  0.00    +0.000 C 
ATOM     21  C   UNL     1      -2.306  15.271  20.836  0.00  0.00    +0.000 C 
ATOM     22  C   UNL     1      -0.909  15.419  21.434  0.00  0.00    +0.000 C 
ATOM     23  C   UNL     1      -0.204  14.095  21.107  0.00  0.00    +0.000 C 
BRANCH  23  24
ATOM     24  O   UNL     1       0.135  14.195  19.715  0.00  0.00    +0.000 OA
BRANCH  24  25
ATOM     25  C   UNL     1       1.410  14.444  19.303  0.00  0.00    +0.000 A 
ATOM     26  C   UNL     1       2.489  13.580  19.508  0.00  0.00    +0.000 A 
ATOM     27  C   UNL     1       3.709  13.811  18.871  0.00  0.00    +0.000 A 
ATOM     28  C   UNL     1       3.853  14.912  18.043  0.00  0.00    +0.000 A 
ATOM     29  F   UNL     1       4.991  15.080  17.358  0.00  0.00    +0.000 F 
ATOM     30  C   UNL     1       2.830  15.839  17.916  0.00  0.00    +0.000 A 
ATOM     31  C   UNL     1       1.605  15.639  18.581  0.00  0.00    +0.000 A 
BRANCH  31  32
ATOM     32  C   UNL     1       0.549  16.713  18.444  0.00  0.00    +0.000 C 
ATOM     33  F   UNL     1      -0.708  16.282  18.144  0.00  0.00    +0.000 F 
ATOM     34  F   UNL     1       0.414  17.442  19.591  0.00  0.00    +0.000 F 
ATOM     35  F   UNL     1       0.857  17.619  17.472  0.00  0.00    +0.000 F 
ENDBRANCH  31  32
ENDBRANCH  24  25
ENDBRANCH  23  24
ENDBRANCH  10  19
TORSDOF 5
ENDMDL
