MODEL 1
REMARK VINA RESULT:      -7.6      0.000      0.000
REMARK  Name = 
REMARK  9 active torsions:
REMARK  status: ('A' for Active; 'I' for Inactive)
REMARK    1  A    between atoms: C_1  and  C_2
REMARK    2  A    between atoms: C_2  and  C_3
REMARK    3  A    between atoms: C_3  and  N_4
REMARK    4  A    between atoms: C_7  and  N_8
REMARK    5  A    between atoms: N_11  and  C_12
REMARK    6  A    between atoms: C_16  and  C_17
REMARK    7  A    between atoms: C_20  and  C_21
REMARK    8  A    between atoms: C_23  and  C_24
REMARK    9  A    between atoms: C_23  and  C_25
REMARK                            x       y       z     vdW  Elec       q    Type
REMARK                         _______ _______ _______ _____ _____    ______ ____
ROOT
ATOM      1  N   UNL     1       0.417  13.655  19.637  0.00  0.00    +0.000 N 
ATOM      2  C   UNL     1       0.961  12.721  18.730  0.00  0.00    +0.000 C 
ATOM      3  O   UNL     1       1.664  13.074  17.774  0.00  0.00    +0.000 OA
ATOM      4  C   UNL     1       0.639  11.212  18.965  0.00  0.00    +0.000 C 
ATOM      5  N   UNL     1      -0.780  11.011  18.691  0.00  0.00    +0.000 NA
ATOM      6  C   UNL     1      -1.593  11.471  19.592  0.00  0.00    +0.000 C 
ATOM      7  C   UNL     1      -1.197  12.175  20.837  0.00  0.00    +0.000 A 
ATOM      8  C   UNL     1      -1.857  11.797  22.020  0.00  0.00    +0.000 A 
ATOM      9  C   UNL     1      -1.730  12.563  23.172  0.00  0.00    +0.000 A 
ATOM     10  C   UNL     1      -0.914  13.685  23.155  0.00  0.00    +0.000 A 
ATOM     11  C   UNL     1      -0.199  14.018  21.996  0.00  0.00    +0.000 A 
ATOM     12  C   UNL     1      -0.322  13.274  20.808  0.00  0.00    +0.000 A 
ENDROOT
BRANCH   6  13
ATOM     13  C   UNL     1      -3.115  11.330  19.349  0.00  0.00    +0.000 C 
ATOM     14  C   UNL     1      -3.800  12.620  19.831  0.00  0.00    +0.000 C 
ATOM     15  C   UNL     1      -5.251  12.754  19.346  0.00  0.00    +0.000 C 
ATOM     16  C   UNL     1      -6.167  11.735  20.053  0.00  0.00    +0.000 C 
ATOM     17  C   UNL     1      -5.765  14.164  19.680  0.00  0.00    +0.000 C 
ATOM     18  C   UNL     1      -5.245  12.541  17.821  0.00  0.00    +0.000 C 
ATOM     19  C   UNL     1      -4.639  11.195  17.432  0.00  0.00    +0.000 C 
ATOM     20  N   UNL     1      -3.274  11.024  17.919  0.00  0.00    +0.000 NA
ATOM     21  H   UNL     1      -2.647  11.649  17.403  0.00  0.00    +0.000 HD
ENDBRANCH   6  13
BRANCH   4  22
ATOM     22  N   UNL     1       1.379  10.385  18.025  0.00  0.00    +0.000 N 
ATOM     23  C   UNL     1       1.809   9.162  18.482  0.00  0.00    +0.000 C 
ATOM     24  O   UNL     1       1.463   8.744  19.583  0.00  0.00    +0.000 OA
ATOM     25  N   UNL     1       2.598   8.476  17.574  0.00  0.00    +0.000 N 
ATOM     26  H   UNL     1       1.977  10.894  17.402  0.00  0.00    +0.000 HD
ATOM     27  H   UNL     1       3.062   9.029  16.872  0.00  0.00    +0.000 HD
BRANCH  25  28
ATOM     28  C   UNL     1       3.045   7.140  17.760  0.00  0.00    +0.000 A 
ATOM     29  C   UNL     1       4.397   6.791  17.653  0.00  0.00    +0.000 A 
ATOM     30  C   UNL     1       4.810   5.467  17.753  0.00  0.00    +0.000 A 
ATOM     31  C   UNL     1       3.877   4.461  17.974  0.00  0.00    +0.000 A 
ATOM     32  C   UNL     1       2.522   4.780  18.126  0.00  0.00    +0.000 A 
ATOM     33  C   UNL     1       1.524   3.681  18.351  0.00  0.00    +0.000 C 
ATOM     34  C   UNL     1       2.115   6.129  18.050  0.00  0.00    +0.000 A 
ENDBRANCH  25  28
ENDBRANCH   4  22
BRANCH   1  35
ATOM     35  C   UNL     1       0.742  15.074  19.420  0.00  0.00    +0.000 C 
BRANCH  35  37
ATOM     36  C   UNL     1       0.042  17.194  18.188  0.00  0.00    +0.000 C 
ATOM     37  C   UNL     1      -0.420  15.921  18.877  0.00  0.00    +0.000 C 
ENDBRANCH  35  37
ENDBRANCH   1  35
TORSDOF 5
ENDMDL
MODEL 2
REMARK VINA RESULT:      -7.6      3.463      6.165
REMARK  Name = 
REMARK  9 active torsions:
REMARK  status: ('A' for Active; 'I' for Inactive)
REMARK    1  A    between atoms: C_1  and  C_2
REMARK    2  A    between atoms: C_2  and  C_3
REMARK    3  A    between atoms: C_3  and  N_4
REMARK    4  A    between atoms: C_7  and  N_8
REMARK    5  A    between atoms: N_11  and  C_12
REMARK    6  A    between atoms: C_16  and  C_17
REMARK    7  A    between atoms: C_20  and  C_21
REMARK    8  A    between atoms: C_23  and  C_24
REMARK    9  A    between atoms: C_23  and  C_25
REMARK                            x       y       z     vdW  Elec       q    Type
REMARK                         _______ _______ _______ _____ _____    ______ ____
ROOT
ATOM      1  N   UNL     1      -0.720  12.848  21.993  0.00  0.00    +0.000 N 
ATOM      2  C   UNL     1      -0.104  13.736  21.086  0.00  0.00    +0.000 C 
ATOM      3  O   UNL     1      -0.145  14.963  21.245  0.00  0.00    +0.000 OA
ATOM      4  C   UNL     1       0.632  13.119  19.856  0.00  0.00    +0.000 C 
ATOM      5  N   UNL     1      -0.378  12.542  18.975  0.00  0.00    +0.000 NA
ATOM      6  C   UNL     1      -0.914  11.435  19.390  0.00  0.00    +0.000 C 
ATOM      7  C   UNL     1      -0.591  10.741  20.661  0.00  0.00    +0.000 A 
ATOM      8  C   UNL     1      -0.422   9.345  20.600  0.00  0.00    +0.000 A 
ATOM      9  C   UNL     1      -0.364   8.591  21.765  0.00  0.00    +0.000 A 
ATOM     10  C   UNL     1      -0.436   9.233  22.993  0.00  0.00    +0.000 A 
ATOM     11  C   UNL     1      -0.530  10.630  23.053  0.00  0.00    +0.000 A 
ATOM     12  C   UNL     1      -0.610  11.420  21.891  0.00  0.00    +0.000 A 
ENDROOT
BRANCH   6  13
ATOM     13  C   UNL     1      -2.023  10.786  18.527  0.00  0.00    +0.000 C 
ATOM     14  C   UNL     1      -3.287  11.653  18.639  0.00  0.00    +0.000 C 
ATOM     15  C   UNL     1      -4.349  11.319  17.580  0.00  0.00    +0.000 C 
ATOM     16  C   UNL     1      -4.992   9.945  17.857  0.00  0.00    +0.000 C 
ATOM     17  C   UNL     1      -5.460  12.380  17.628  0.00  0.00    +0.000 C 
ATOM     18  C   UNL     1      -3.650  11.347  16.209  0.00  0.00    +0.000 C 
ATOM     19  C   UNL     1      -2.466  10.385  16.148  0.00  0.00    +0.000 C 
ATOM     20  N   UNL     1      -1.462  10.654  17.173  0.00  0.00    +0.000 NA
ATOM     21  H   UNL     1      -0.981  11.533  16.957  0.00  0.00    +0.000 HD
ENDBRANCH   6  13
BRANCH   4  22
ATOM     22  N   UNL     1       1.315  14.158  19.102  0.00  0.00    +0.000 N 
ATOM     23  C   UNL     1       2.610  14.440  19.469  0.00  0.00    +0.000 C 
ATOM     24  O   UNL     1       3.193  13.750  20.300  0.00  0.00    +0.000 OA
ATOM     25  N   UNL     1       3.160  15.511  18.784  0.00  0.00    +0.000 N 
ATOM     26  H   UNL     1       0.728  14.918  18.814  0.00  0.00    +0.000 HD
ATOM     27  H   UNL     1       2.514  16.171  18.386  0.00  0.00    +0.000 HD
BRANCH  25  28
ATOM     28  C   UNL     1       4.522  15.904  18.888  0.00  0.00    +0.000 A 
ATOM     29  C   UNL     1       4.900  17.099  19.511  0.00  0.00    +0.000 A 
ATOM     30  C   UNL     1       6.228  17.513  19.530  0.00  0.00    +0.000 A 
ATOM     31  C   UNL     1       7.210  16.733  18.933  0.00  0.00    +0.000 A 
ATOM     32  C   UNL     1       6.871  15.512  18.337  0.00  0.00    +0.000 A 
ATOM     33  C   UNL     1       7.941  14.685  17.684  0.00  0.00    +0.000 C 
ATOM     34  C   UNL     1       5.526  15.086  18.345  0.00  0.00    +0.000 A 
ENDBRANCH  25  28
ENDBRANCH   4  22
BRANCH   1  35
ATOM     35  C   UNL     1      -1.394  13.438  23.161  0.00  0.00    +0.000 C 
BRANCH  35  37
ATOM     36  C   UNL     1      -3.619  12.376  23.816  0.00  0.00    +0.000 C 
ATOM     37  C   UNL     1      -2.927  13.494  23.054  0.00  0.00    +0.000 C 
ENDBRANCH  35  37
ENDBRANCH   1  35
TORSDOF 5
ENDMDL
MODEL 3
REMARK VINA RESULT:      -7.5      3.479      6.154
REMARK  Name = 
REMARK  9 active torsions:
REMARK  status: ('A' for Active; 'I' for Inactive)
REMARK    1  A    between atoms: C_1  and  C_2
REMARK    2  A    between atoms: C_2  and  C_3
REMARK    3  A    between atoms: C_3  and  N_4
REMARK    4  A    between atoms: C_7  and  N_8
REMARK    5  A    between atoms: N_11  and  C_12
REMARK    6  A    between atoms: C_16  and  C_17
REMARK    7  A    between atoms: C_20  and  C_21
REMARK    8  A    between atoms: C_23  and  C_24
REMARK    9  A    between atoms: C_23  and  C_25
REMARK                            x       y       z     vdW  Elec       q    Type
REMARK                         _______ _______ _______ _____ _____    ______ ____
ROOT
ATOM      1  N   UNL     1      -0.760  12.947  21.868  0.00  0.00    +0.000 N 
ATOM      2  C   UNL     1      -0.142  13.801  20.931  0.00  0.00    +0.000 C 
ATOM      3  O   UNL     1      -0.190  15.033  21.040  0.00  0.00    +0.000 OA
ATOM      4  C   UNL     1       0.606  13.138  19.732  0.00  0.00    +0.000 C 
ATOM      5  N   UNL     1      -0.395  12.522  18.868  0.00  0.00    +0.000 NA
ATOM      6  C   UNL     1      -0.928  11.429  19.322  0.00  0.00    +0.000 C 
ATOM      7  C   UNL     1      -0.611  10.788  20.623  0.00  0.00    +0.000 A 
ATOM      8  C   UNL     1      -0.435   9.392  20.619  0.00  0.00    +0.000 A 
ATOM      9  C   UNL     1      -0.383   8.686  21.814  0.00  0.00    +0.000 A 
ATOM     10  C   UNL     1      -0.467   9.376  23.015  0.00  0.00    +0.000 A 
ATOM     11  C   UNL     1      -0.568  10.774  23.018  0.00  0.00    +0.000 A 
ATOM     12  C   UNL     1      -0.643  11.516  21.824  0.00  0.00    +0.000 A 
ENDROOT
BRANCH   6  13
ATOM     13  C   UNL     1      -2.028  10.741  18.478  0.00  0.00    +0.000 C 
ATOM     14  C   UNL     1      -3.278  11.636  18.497  0.00  0.00    +0.000 C 
ATOM     15  C   UNL     1      -4.318  11.246  17.437  0.00  0.00    +0.000 C 
ATOM     16  C   UNL     1      -4.995   9.906  17.791  0.00  0.00    +0.000 C 
ATOM     17  C   UNL     1      -5.411  12.327  17.382  0.00  0.00    +0.000 C 
ATOM     18  C   UNL     1      -3.586  11.166  16.085  0.00  0.00    +0.000 C 
ATOM     19  C   UNL     1      -2.419  10.182  16.122  0.00  0.00    +0.000 C 
ATOM     20  N   UNL     1      -1.436  10.505  17.152  0.00  0.00    +0.000 NA
ATOM     21  H   UNL     1      -0.933  11.358  16.888  0.00  0.00    +0.000 HD
ENDBRANCH   6  13
BRANCH   4  22
ATOM     22  N   UNL     1       1.290  14.150  18.942  0.00  0.00    +0.000 N 
ATOM     23  C   UNL     1       2.627  14.340  19.202  0.00  0.00    +0.000 C 
ATOM     24  O   UNL     1       3.231  13.593  19.966  0.00  0.00    +0.000 OA
ATOM     25  N   UNL     1       3.187  15.389  18.493  0.00  0.00    +0.000 N 
ATOM     26  H   UNL     1       0.733  14.953  18.720  0.00  0.00    +0.000 HD
ATOM     27  H   UNL     1       2.554  16.099  18.164  0.00  0.00    +0.000 HD
BRANCH  25  28
ATOM     28  C   UNL     1       4.575  15.692  18.486  0.00  0.00    +0.000 A 
ATOM     29  C   UNL     1       5.494  14.930  17.757  0.00  0.00    +0.000 A 
ATOM     30  C   UNL     1       6.860  15.185  17.827  0.00  0.00    +0.000 A 
ATOM     31  C   UNL     1       7.335  16.219  18.625  0.00  0.00    +0.000 A 
ATOM     32  C   UNL     1       6.439  17.026  19.336  0.00  0.00    +0.000 A 
ATOM     33  C   UNL     1       6.969  18.132  20.204  0.00  0.00    +0.000 C 
ATOM     34  C   UNL     1       5.054  16.778  19.238  0.00  0.00    +0.000 A 
ENDBRANCH  25  28
ENDBRANCH   4  22
BRANCH   1  35
ATOM     35  C   UNL     1      -1.446  13.579  23.007  0.00  0.00    +0.000 C 
BRANCH  35  37
ATOM     36  C   UNL     1      -3.540  15.034  23.080  0.00  0.00    +0.000 C 
ATOM     37  C   UNL     1      -2.977  13.636  22.880  0.00  0.00    +0.000 C 
ENDBRANCH  35  37
ENDBRANCH   1  35
TORSDOF 5
ENDMDL
MODEL 4
REMARK VINA RESULT:      -7.4      1.181      1.277
REMARK  Name = 
REMARK  9 active torsions:
REMARK  status: ('A' for Active; 'I' for Inactive)
REMARK    1  A    between atoms: C_1  and  C_2
REMARK    2  A    between atoms: C_2  and  C_3
REMARK    3  A    between atoms: C_3  and  N_4
REMARK    4  A    between atoms: C_7  and  N_8
REMARK    5  A    between atoms: N_11  and  C_12
REMARK    6  A    between atoms: C_16  and  C_17
REMARK    7  A    between atoms: C_20  and  C_21
REMARK    8  A    between atoms: C_23  and  C_24
REMARK    9  A    between atoms: C_23  and  C_25
REMARK                            x       y       z     vdW  Elec       q    Type
REMARK                         _______ _______ _______ _____ _____    ______ ____
ROOT
ATOM      1  N   UNL     1      -0.370  14.088  20.023  0.00  0.00    +0.000 N 
ATOM      2  C   UNL     1       0.078  13.122  19.098  0.00  0.00    +0.000 C 
ATOM      3  O   UNL     1       0.826  13.419  18.157  0.00  0.00    +0.000 OA
ATOM      4  C   UNL     1      -0.409  11.653  19.294  0.00  0.00    +0.000 C 
ATOM      5  N   UNL     1      -1.838  11.614  19.003  0.00  0.00    +0.000 NA
ATOM      6  C   UNL     1      -2.606  12.139  19.908  0.00  0.00    +0.000 C 
ATOM      7  C   UNL     1      -2.149  12.766  21.172  0.00  0.00    +0.000 A 
ATOM      8  C   UNL     1      -2.860  12.435  22.341  0.00  0.00    +0.000 A 
ATOM      9  C   UNL     1      -2.662  13.155  23.512  0.00  0.00    +0.000 A 
ATOM     10  C   UNL     1      -1.728  14.181  23.529  0.00  0.00    +0.000 A 
ATOM     11  C   UNL     1      -0.969  14.461  22.385  0.00  0.00    +0.000 A 
ATOM     12  C   UNL     1      -1.159  13.763  21.179  0.00  0.00    +0.000 A 
ENDROOT
BRANCH   6  13
ATOM     13  C   UNL     1      -4.132  12.171  19.649  0.00  0.00    +0.000 C 
ATOM     14  C   UNL     1      -4.677  13.515  20.159  0.00  0.00    +0.000 C 
ATOM     15  C   UNL     1      -6.100  13.819  19.666  0.00  0.00    +0.000 C 
ATOM     16  C   UNL     1      -7.129  12.888  20.338  0.00  0.00    +0.000 C 
ATOM     17  C   UNL     1      -6.462  15.268  20.033  0.00  0.00    +0.000 C 
ATOM     18  C   UNL     1      -6.100  13.646  18.136  0.00  0.00    +0.000 C 
ATOM     19  C   UNL     1      -5.640  12.252  17.716  0.00  0.00    +0.000 C 
ATOM     20  N   UNL     1      -4.307  11.921  18.210  0.00  0.00    +0.000 NA
ATOM     21  H   UNL     1      -3.610  12.487  17.716  0.00  0.00    +0.000 HD
ENDBRANCH   6  13
BRANCH   4  22
ATOM     22  N   UNL     1       0.246  10.772  18.339  0.00  0.00    +0.000 N 
ATOM     23  C   UNL     1       1.049   9.783  18.859  0.00  0.00    +0.000 C 
ATOM     24  O   UNL     1       1.093   9.580  20.068  0.00  0.00    +0.000 OA
ATOM     25  N   UNL     1       1.725   9.054  17.895  0.00  0.00    +0.000 N 
ATOM     26  H   UNL     1       0.536  11.219  17.489  0.00  0.00    +0.000 HD
ATOM     27  H   UNL     1       1.859   9.501  17.004  0.00  0.00    +0.000 HD
BRANCH  25  28
ATOM     28  C   UNL     1       2.503   7.898  18.175  0.00  0.00    +0.000 A 
ATOM     29  C   UNL     1       3.592   7.529  17.377  0.00  0.00    +0.000 A 
ATOM     30  C   UNL     1       4.291   6.350  17.612  0.00  0.00    +0.000 A 
ATOM     31  C   UNL     1       3.920   5.517  18.660  0.00  0.00    +0.000 A 
ATOM     32  C   UNL     1       2.860   5.876  19.502  0.00  0.00    +0.000 A 
ATOM     33  C   UNL     1       2.463   4.959  20.623  0.00  0.00    +0.000 C 
ATOM     34  C   UNL     1       2.174   7.087  19.273  0.00  0.00    +0.000 A 
ENDBRANCH  25  28
ENDBRANCH   4  22
BRANCH   1  35
ATOM     35  C   UNL     1       0.110  15.468  19.843  0.00  0.00    +0.000 C 
BRANCH  35  37
ATOM     36  C   UNL     1      -0.397  17.227  18.068  0.00  0.00    +0.000 C 
ATOM     37  C   UNL     1      -0.928  16.435  19.251  0.00  0.00    +0.000 C 
ENDBRANCH  35  37
ENDBRANCH   1  35
TORSDOF 5
ENDMDL
MODEL 5
REMARK VINA RESULT:      -7.4      1.099      1.258
REMARK  Name = 
REMARK  9 active torsions:
REMARK  status: ('A' for Active; 'I' for Inactive)
REMARK    1  A    between atoms: C_1  and  C_2
REMARK    2  A    between atoms: C_2  and  C_3
REMARK    3  A    between atoms: C_3  and  N_4
REMARK    4  A    between atoms: C_7  and  N_8
REMARK    5  A    between atoms: N_11  and  C_12
REMARK    6  A    between atoms: C_16  and  C_17
REMARK    7  A    between atoms: C_20  and  C_21
REMARK    8  A    between atoms: C_23  and  C_24
REMARK    9  A    between atoms: C_23  and  C_25
REMARK                            x       y       z     vdW  Elec       q    Type
REMARK                         _______ _______ _______ _____ _____    ______ ____
ROOT
ATOM      1  N   UNL     1       0.965  12.776  19.319  0.00  0.00    +0.000 N 
ATOM      2  C   UNL     1       1.640  11.831  18.519  0.00  0.00    +0.000 C 
ATOM      3  O   UNL     1       2.479  12.172  17.674  0.00  0.00    +0.000 OA
ATOM      4  C   UNL     1       1.289  10.325  18.727  0.00  0.00    +0.000 C 
ATOM      5  N   UNL     1      -0.072  10.114  18.245  0.00  0.00    +0.000 NA
ATOM      6  C   UNL     1      -1.012  10.584  19.006  0.00  0.00    +0.000 C 
ATOM      7  C   UNL     1      -0.808  11.308  20.286  0.00  0.00    +0.000 A 
ATOM      8  C   UNL     1      -1.639  10.946  21.362  0.00  0.00    +0.000 A 
ATOM      9  C   UNL     1      -1.687  11.729  22.508  0.00  0.00    +0.000 A 
ATOM     10  C   UNL     1      -0.880  12.854  22.596  0.00  0.00    +0.000 A 
ATOM     11  C   UNL     1       0.000  13.173  21.553  0.00  0.00    +0.000 A 
ATOM     12  C   UNL     1       0.059  12.410  20.372  0.00  0.00    +0.000 A 
ENDROOT
BRANCH   6  13
ATOM     13  C   UNL     1      -2.480  10.433  18.540  0.00  0.00    +0.000 C 
ATOM     14  C   UNL     1      -3.268  11.659  19.030  0.00  0.00    +0.000 C 
ATOM     15  C   UNL     1      -4.642  11.806  18.359  0.00  0.00    +0.000 C 
ATOM     16  C   UNL     1      -5.612  10.708  18.838  0.00  0.00    +0.000 C 
ATOM     17  C   UNL     1      -5.245  13.169  18.738  0.00  0.00    +0.000 C 
ATOM     18  C   UNL     1      -4.417  11.733  16.838  0.00  0.00    +0.000 C 
ATOM     19  C   UNL     1      -3.718  10.440  16.422  0.00  0.00    +0.000 C 
ATOM     20  N   UNL     1      -2.428  10.255  17.081  0.00  0.00    +0.000 NA
ATOM     21  H   UNL     1      -1.758  10.938  16.715  0.00  0.00    +0.000 HD
ENDBRANCH   6  13
BRANCH   4  22
ATOM     22  N   UNL     1       2.163   9.486  17.921  0.00  0.00    +0.000 N 
ATOM     23  C   UNL     1       2.487   8.253  18.437  0.00  0.00    +0.000 C 
ATOM     24  O   UNL     1       1.950   7.839  19.460  0.00  0.00    +0.000 OA
ATOM     25  N   UNL     1       3.406   7.555  17.672  0.00  0.00    +0.000 N 
ATOM     26  H   UNL     1       2.868   9.986  17.412  0.00  0.00    +0.000 HD
ATOM     27  H   UNL     1       3.993   8.101  17.064  0.00  0.00    +0.000 HD
BRANCH  25  28
ATOM     28  C   UNL     1       3.790   6.210  17.923  0.00  0.00    +0.000 A 
ATOM     29  C   UNL     1       5.094   5.873  18.305  0.00  0.00    +0.000 A 
ATOM     30  C   UNL     1       5.478   4.546  18.465  0.00  0.00    +0.000 A 
ATOM     31  C   UNL     1       4.560   3.525  18.255  0.00  0.00    +0.000 A 
ATOM     32  C   UNL     1       3.237   3.829  17.911  0.00  0.00    +0.000 A 
ATOM     33  C   UNL     1       2.259   2.714  17.675  0.00  0.00    +0.000 C 
ATOM     34  C   UNL     1       2.849   5.179  17.778  0.00  0.00    +0.000 A 
ENDBRANCH  25  28
ENDBRANCH   4  22
BRANCH   1  35
ATOM     35  C   UNL     1       1.317  14.193  19.132  0.00  0.00    +0.000 C 
BRANCH  35  37
ATOM     36  C   UNL     1      -0.055  16.322  19.431  0.00  0.00    +0.000 C 
ATOM     37  C   UNL     1       0.173  15.071  18.598  0.00  0.00    +0.000 C 
ENDBRANCH  35  37
ENDBRANCH   1  35
TORSDOF 5
ENDMDL
MODEL 6
REMARK VINA RESULT:      -7.4      0.331      1.235
REMARK  Name = 
REMARK  9 active torsions:
REMARK  status: ('A' for Active; 'I' for Inactive)
REMARK    1  A    between atoms: C_1  and  C_2
REMARK    2  A    between atoms: C_2  and  C_3
REMARK    3  A    between atoms: C_3  and  N_4
REMARK    4  A    between atoms: C_7  and  N_8
REMARK    5  A    between atoms: N_11  and  C_12
REMARK    6  A    between atoms: C_16  and  C_17
REMARK    7  A    between atoms: C_20  and  C_21
REMARK    8  A    between atoms: C_23  and  C_24
REMARK    9  A    between atoms: C_23  and  C_25
REMARK                            x       y       z     vdW  Elec       q    Type
REMARK                         _______ _______ _______ _____ _____    ______ ____
ROOT
ATOM      1  N   UNL     1       0.353  13.656  19.659  0.00  0.00    +0.000 N 
ATOM      2  C   UNL     1       0.914  12.736  18.749  0.00  0.00    +0.000 C 
ATOM      3  O   UNL     1       1.621  13.106  17.801  0.00  0.00    +0.000 OA
ATOM      4  C   UNL     1       0.609  11.222  18.970  0.00  0.00    +0.000 C 
ATOM      5  N   UNL     1      -0.805  11.006  18.682  0.00  0.00    +0.000 NA
ATOM      6  C   UNL     1      -1.631  11.449  19.580  0.00  0.00    +0.000 C 
ATOM      7  C   UNL     1      -1.253  12.148  20.834  0.00  0.00    +0.000 A 
ATOM      8  C   UNL     1      -1.918  11.753  22.009  0.00  0.00    +0.000 A 
ATOM      9  C   UNL     1      -1.809  12.511  23.168  0.00  0.00    +0.000 A 
ATOM     10  C   UNL     1      -1.007  13.642  23.166  0.00  0.00    +0.000 A 
ATOM     11  C   UNL     1      -0.287  13.993  22.016  0.00  0.00    +0.000 A 
ATOM     12  C   UNL     1      -0.391  13.257  20.821  0.00  0.00    +0.000 A 
ENDROOT
BRANCH   6  13
ATOM     13  C   UNL     1      -3.150  11.292  19.324  0.00  0.00    +0.000 C 
ATOM     14  C   UNL     1      -3.848  12.589  19.765  0.00  0.00    +0.000 C 
ATOM     15  C   UNL     1      -5.294  12.702  19.261  0.00  0.00    +0.000 C 
ATOM     16  C   UNL     1      -6.211  11.694  19.983  0.00  0.00    +0.000 C 
ATOM     17  C   UNL     1      -5.821  14.116  19.554  0.00  0.00    +0.000 C 
ATOM     18  C   UNL     1      -5.269  12.452  17.742  0.00  0.00    +0.000 C 
ATOM     19  C   UNL     1      -4.651  11.099  17.393  0.00  0.00    +0.000 C 
ATOM     20  N   UNL     1      -3.290  10.950  17.900  0.00  0.00    +0.000 NA
ATOM     21  H   UNL     1      -2.661  11.566  17.376  0.00  0.00    +0.000 HD
ENDBRANCH   6  13
BRANCH   4  22
ATOM     22  N   UNL     1       1.366  10.411  18.028  0.00  0.00    +0.000 N 
ATOM     23  C   UNL     1       1.835   9.204  18.489  0.00  0.00    +0.000 C 
ATOM     24  O   UNL     1       1.509   8.783  19.595  0.00  0.00    +0.000 OA
ATOM     25  N   UNL     1       2.637   8.536  17.579  0.00  0.00    +0.000 N 
ATOM     26  H   UNL     1       1.944  10.935  17.398  0.00  0.00    +0.000 HD
ATOM     27  H   UNL     1       3.080   9.098  16.871  0.00  0.00    +0.000 HD
BRANCH  25  28
ATOM     28  C   UNL     1       3.125   7.215  17.770  0.00  0.00    +0.000 A 
ATOM     29  C   UNL     1       2.274   6.155  18.102  0.00  0.00    +0.000 A 
ATOM     30  C   UNL     1       2.775   4.885  18.369  0.00  0.00    +0.000 A 
ATOM     31  C   UNL     1       4.142   4.646  18.300  0.00  0.00    +0.000 A 
ATOM     32  C   UNL     1       5.017   5.676  17.931  0.00  0.00    +0.000 A 
ATOM     33  C   UNL     1       6.493   5.406  17.873  0.00  0.00    +0.000 C 
ATOM     34  C   UNL     1       4.498   6.954  17.635  0.00  0.00    +0.000 A 
ENDBRANCH  25  28
ENDBRANCH   4  22
BRANCH   1  35
ATOM     35  C   UNL     1       0.663  15.081  19.456  0.00  0.00    +0.000 C 
BRANCH  35  37
ATOM     36  C   UNL     1      -0.004  17.157  18.133  0.00  0.00    +0.000 C 
ATOM     37  C   UNL     1      -0.484  15.905  18.849  0.00  0.00    +0.000 C 
ENDBRANCH  35  37
ENDBRANCH   1  35
TORSDOF 5
ENDMDL
MODEL 7
REMARK VINA RESULT:      -7.3      1.306      1.755
REMARK  Name = 
REMARK  9 active torsions:
REMARK  status: ('A' for Active; 'I' for Inactive)
REMARK    1  A    between atoms: C_1  and  C_2
REMARK    2  A    between atoms: C_2  and  C_3
REMARK    3  A    between atoms: C_3  and  N_4
REMARK    4  A    between atoms: C_7  and  N_8
REMARK    5  A    between atoms: N_11  and  C_12
REMARK    6  A    between atoms: C_16  and  C_17
REMARK    7  A    between atoms: C_20  and  C_21
REMARK    8  A    between atoms: C_23  and  C_24
REMARK    9  A    between atoms: C_23  and  C_25
REMARK                            x       y       z     vdW  Elec       q    Type
REMARK                         _______ _______ _______ _____ _____    ______ ____
ROOT
ATOM      1  N   UNL     1      -0.503  14.113  20.111  0.00  0.00    +0.000 N 
ATOM      2  C   UNL     1      -0.078  13.157  19.165  0.00  0.00    +0.000 C 
ATOM      3  O   UNL     1       0.676  13.456  18.229  0.00  0.00    +0.000 OA
ATOM      4  C   UNL     1      -0.597  11.695  19.330  0.00  0.00    +0.000 C 
ATOM      5  N   UNL     1      -2.028  11.696  19.040  0.00  0.00    +0.000 NA
ATOM      6  C   UNL     1      -2.783  12.218  19.957  0.00  0.00    +0.000 C 
ATOM      7  C   UNL     1      -2.309  12.808  21.235  0.00  0.00    +0.000 A 
ATOM      8  C   UNL     1      -3.026  12.467  22.397  0.00  0.00    +0.000 A 
ATOM      9  C   UNL     1      -2.811  13.158  23.583  0.00  0.00    +0.000 A 
ATOM     10  C   UNL     1      -1.854  14.162  23.621  0.00  0.00    +0.000 A 
ATOM     11  C   UNL     1      -1.090  14.449  22.482  0.00  0.00    +0.000 A 
ATOM     12  C   UNL     1      -1.297  13.781  21.261  0.00  0.00    +0.000 A 
ENDROOT
BRANCH   6  13
ATOM     13  C   UNL     1      -4.308  12.291  19.702  0.00  0.00    +0.000 C 
ATOM     14  C   UNL     1      -4.802  13.680  20.136  0.00  0.00    +0.000 C 
ATOM     15  C   UNL     1      -6.215  14.006  19.631  0.00  0.00    +0.000 C 
ATOM     16  C   UNL     1      -7.273  13.153  20.359  0.00  0.00    +0.000 C 
ATOM     17  C   UNL     1      -6.522  15.486  19.916  0.00  0.00    +0.000 C 
ATOM     18  C   UNL     1      -6.229  13.747  18.114  0.00  0.00    +0.000 C 
ATOM     19  C   UNL     1      -5.822  12.315  17.773  0.00  0.00    +0.000 C 
ATOM     20  N   UNL     1      -4.499  11.965  18.280  0.00  0.00    +0.000 NA
ATOM     21  H   UNL     1      -3.785  12.477  17.753  0.00  0.00    +0.000 HD
ENDBRANCH   6  13
BRANCH   4  22
ATOM     22  N   UNL     1       0.036  10.820  18.355  0.00  0.00    +0.000 N 
ATOM     23  C   UNL     1       0.886   9.857  18.848  0.00  0.00    +0.000 C 
ATOM     24  O   UNL     1       0.988   9.668  20.056  0.00  0.00    +0.000 OA
ATOM     25  N   UNL     1       1.536   9.134  17.863  0.00  0.00    +0.000 N 
ATOM     26  H   UNL     1       0.277  11.265  17.489  0.00  0.00    +0.000 HD
ATOM     27  H   UNL     1       1.619   9.574  16.961  0.00  0.00    +0.000 HD
BRANCH  25  28
ATOM     28  C   UNL     1       2.354   8.000  18.118  0.00  0.00    +0.000 A 
ATOM     29  C   UNL     1       2.150   7.180  19.234  0.00  0.00    +0.000 A 
ATOM     30  C   UNL     1       3.010   6.124  19.518  0.00  0.00    +0.000 A 
ATOM     31  C   UNL     1       4.089   5.860  18.684  0.00  0.00    +0.000 A 
ATOM     32  C   UNL     1       4.298   6.637  17.538  0.00  0.00    +0.000 A 
ATOM     33  C   UNL     1       5.477   6.348  16.654  0.00  0.00    +0.000 C 
ATOM     34  C   UNL     1       3.406   7.689  17.242  0.00  0.00    +0.000 A 
ENDBRANCH  25  28
ENDBRANCH   4  22
BRANCH   1  35
ATOM     35  C   UNL     1       0.009  15.485  19.960  0.00  0.00    +0.000 C 
BRANCH  35  37
ATOM     36  C   UNL     1      -0.431  17.359  18.288  0.00  0.00    +0.000 C 
ATOM     37  C   UNL     1      -1.008  16.488  19.392  0.00  0.00    +0.000 C 
ENDBRANCH  35  37
ENDBRANCH   1  35
TORSDOF 5
ENDMDL
MODEL 8
REMARK VINA RESULT:      -7.3      0.931      1.460
REMARK  Name = 
REMARK  9 active torsions:
REMARK  status: ('A' for Active; 'I' for Inactive)
REMARK    1  A    between atoms: C_1  and  C_2
REMARK    2  A    between atoms: C_2  and  C_3
REMARK    3  A    between atoms: C_3  and  N_4
REMARK    4  A    between atoms: C_7  and  N_8
REMARK    5  A    between atoms: N_11  and  C_12
REMARK    6  A    between atoms: C_16  and  C_17
REMARK    7  A    between atoms: C_20  and  C_21
REMARK    8  A    between atoms: C_23  and  C_24
REMARK    9  A    between atoms: C_23  and  C_25
REMARK                            x       y       z     vdW  Elec       q    Type
REMARK                         _______ _______ _______ _____ _____    ______ ____
ROOT
ATOM      1  N   UNL     1       0.565  13.479  20.055  0.00  0.00    +0.000 N 
ATOM      2  C   UNL     1       0.910  12.529  19.071  0.00  0.00    +0.000 C 
ATOM      3  O   UNL     1       1.834  12.725  18.271  0.00  0.00    +0.000 OA
ATOM      4  C   UNL     1       0.078  11.210  19.016  0.00  0.00    +0.000 C 
ATOM      5  N   UNL     1      -1.265  11.550  18.557  0.00  0.00    +0.000 NA
ATOM      6  C   UNL     1      -2.016  12.155  19.426  0.00  0.00    +0.000 C 
ATOM      7  C   UNL     1      -1.616  12.524  20.806  0.00  0.00    +0.000 A 
ATOM      8  C   UNL     1      -2.545  12.263  21.830  0.00  0.00    +0.000 A 
ATOM      9  C   UNL     1      -2.360  12.795  23.100  0.00  0.00    +0.000 A 
ATOM     10  C   UNL     1      -1.230  13.556  23.360  0.00  0.00    +0.000 A 
ATOM     11  C   UNL     1      -0.269  13.753  22.359  0.00  0.00    +0.000 A 
ATOM     12  C   UNL     1      -0.436  13.244  21.058  0.00  0.00    +0.000 A 
ENDROOT
BRANCH   6  13
ATOM     13  C   UNL     1      -3.440  12.583  18.996  0.00  0.00    +0.000 C 
ATOM     14  C   UNL     1      -4.300  11.316  18.853  0.00  0.00    +0.000 C 
ATOM     15  C   UNL     1      -5.804  11.612  18.762  0.00  0.00    +0.000 C 
ATOM     16  C   UNL     1      -6.157  12.276  17.417  0.00  0.00    +0.000 C 
ATOM     17  C   UNL     1      -6.584  10.289  18.856  0.00  0.00    +0.000 C 
ATOM     18  C   UNL     1      -6.164  12.522  19.951  0.00  0.00    +0.000 C 
ATOM     19  C   UNL     1      -5.334  13.804  19.963  0.00  0.00    +0.000 C 
ATOM     20  N   UNL     1      -3.897  13.550  20.005  0.00  0.00    +0.000 NA
ATOM     21  H   UNL     1      -3.644  13.173  20.923  0.00  0.00    +0.000 HD
ENDBRANCH   6  13
BRANCH   4  22
ATOM     22  N   UNL     1       0.645  10.294  18.039  0.00  0.00    +0.000 N 
ATOM     23  C   UNL     1       1.384   9.244  18.531  0.00  0.00    +0.000 C 
ATOM     24  O   UNL     1       1.439   9.025  19.738  0.00  0.00    +0.000 OA
ATOM     25  N   UNL     1       1.984   8.478  17.546  0.00  0.00    +0.000 N 
ATOM     26  H   UNL     1       0.948  10.728  17.187  0.00  0.00    +0.000 HD
ATOM     27  H   UNL     1       2.131   8.923  16.656  0.00  0.00    +0.000 HD
BRANCH  25  28
ATOM     28  C   UNL     1       2.680   7.265  17.798  0.00  0.00    +0.000 A 
ATOM     29  C   UNL     1       4.073   7.175  17.686  0.00  0.00    +0.000 A 
ATOM     30  C   UNL     1       4.733   5.962  17.852  0.00  0.00    +0.000 A 
ATOM     31  C   UNL     1       4.012   4.811  18.143  0.00  0.00    +0.000 A 
ATOM     32  C   UNL     1       2.622   4.873  18.301  0.00  0.00    +0.000 A 
ATOM     33  C   UNL     1       1.855   3.618  18.603  0.00  0.00    +0.000 C 
ATOM     34  C   UNL     1       1.963   6.112  18.158  0.00  0.00    +0.000 A 
ENDBRANCH  25  28
ENDBRANCH   4  22
BRANCH   1  35
ATOM     35  C   UNL     1       1.369  14.711  20.114  0.00  0.00    +0.000 C 
BRANCH  35  37
ATOM     36  C   UNL     1      -0.557  15.979  19.023  0.00  0.00    +0.000 C 
ATOM     37  C   UNL     1       0.949  15.797  19.110  0.00  0.00    +0.000 C 
ENDBRANCH  35  37
ENDBRANCH   1  35
TORSDOF 5
ENDMDL
MODEL 9
REMARK VINA RESULT:      -7.2      3.342      7.402
REMARK  Name = 
REMARK  9 active torsions:
REMARK  status: ('A' for Active; 'I' for Inactive)
REMARK    1  A    between atoms: C_1  and  C_2
REMARK    2  A    between atoms: C_2  and  C_3
REMARK    3  A    between atoms: C_3  and  N_4
REMARK    4  A    between atoms: C_7  and  N_8
REMARK    5  A    between atoms: N_11  and  C_12
REMARK    6  A    between atoms: C_16  and  C_17
REMARK    7  A    between atoms: C_20  and  C_21
REMARK    8  A    between atoms: C_23  and  C_24
REMARK    9  A    between atoms: C_23  and  C_25
REMARK                            x       y       z     vdW  Elec       q    Type
REMARK                         _______ _______ _______ _____ _____    ______ ____
ROOT
ATOM      1  N   UNL     1      -1.027  11.793  19.640  0.00  0.00    +0.000 N 
ATOM      2  C   UNL     1      -0.061  12.329  18.763  0.00  0.00    +0.000 C 
ATOM      3  O   UNL     1      -0.379  13.034  17.796  0.00  0.00    +0.000 OA
ATOM      4  C   UNL     1       1.437  11.998  19.047  0.00  0.00    +0.000 C 
ATOM      5  N   UNL     1       1.637  10.578  18.781  0.00  0.00    +0.000 NA
ATOM      6  C   UNL     1       1.144   9.768  19.667  0.00  0.00    +0.000 C 
ATOM      7  C   UNL     1       0.402  10.171  20.888  0.00  0.00    +0.000 A 
ATOM      8  C   UNL     1       0.738   9.509  22.084  0.00  0.00    +0.000 A 
ATOM      9  C   UNL     1      -0.064   9.642  23.210  0.00  0.00    +0.000 A 
ATOM     10  C   UNL     1      -1.179  10.465  23.157  0.00  0.00    +0.000 A 
ATOM     11  C   UNL     1      -1.470  11.181  21.988  0.00  0.00    +0.000 A 
ATOM     12  C   UNL     1      -0.689  11.053  20.824  0.00  0.00    +0.000 A 
ENDROOT
BRANCH   6  13
ATOM     13  C   UNL     1       1.282   8.245  19.430  0.00  0.00    +0.000 C 
ATOM     14  C   UNL     1       2.341   8.024  18.337  0.00  0.00    +0.000 C 
ATOM     15  C   UNL     1       2.818   6.567  18.241  0.00  0.00    +0.000 C 
ATOM     16  C   UNL     1       1.711   5.658  17.670  0.00  0.00    +0.000 C 
ATOM     17  C   UNL     1       4.027   6.494  17.292  0.00  0.00    +0.000 C 
ATOM     18  C   UNL     1       3.232   6.127  19.657  0.00  0.00    +0.000 C 
ATOM     19  C   UNL     1       2.093   6.286  20.662  0.00  0.00    +0.000 C 
ATOM     20  N   UNL     1       1.591   7.654  20.741  0.00  0.00    +0.000 NA
ATOM     21  H   UNL     1       2.296   8.251  21.184  0.00  0.00    +0.000 HD
ENDBRANCH   6  13
BRANCH   4  22
ATOM     22  N   UNL     1       2.299  12.732  18.133  0.00  0.00    +0.000 N 
ATOM     23  C   UNL     1       3.228  13.572  18.699  0.00  0.00    +0.000 C 
ATOM     24  O   UNL     1       3.403  13.590  19.914  0.00  0.00    +0.000 OA
ATOM     25  N   UNL     1       3.938  14.319  17.773  0.00  0.00    +0.000 N 
ATOM     26  H   UNL     1       1.854  13.022  17.283  0.00  0.00    +0.000 HD
ATOM     27  H   UNL     1       3.503  14.455  16.876  0.00  0.00    +0.000 HD
BRANCH  25  28
ATOM     28  C   UNL     1       5.042  15.151  18.102  0.00  0.00    +0.000 A 
ATOM     29  C   UNL     1       4.867  16.450  18.594  0.00  0.00    +0.000 A 
ATOM     30  C   UNL     1       5.955  17.283  18.831  0.00  0.00    +0.000 A 
ATOM     31  C   UNL     1       7.246  16.830  18.590  0.00  0.00    +0.000 A 
ATOM     32  C   UNL     1       7.458  15.522  18.136  0.00  0.00    +0.000 A 
ATOM     33  C   UNL     1       8.858  15.050  17.868  0.00  0.00    +0.000 C 
ATOM     34  C   UNL     1       6.350  14.674  17.924  0.00  0.00    +0.000 A 
ENDBRANCH  25  28
ENDBRANCH   4  22
BRANCH   1  35
ATOM     35  C   UNL     1      -2.436  12.127  19.378  0.00  0.00    +0.000 C 
BRANCH  35  37
ATOM     36  C   UNL     1      -2.307  10.005  17.969  0.00  0.00    +0.000 C 
ATOM     37  C   UNL     1      -3.119  11.239  18.325  0.00  0.00    +0.000 C 
ENDBRANCH  35  37
ENDBRANCH   1  35
TORSDOF 5
ENDMDL
