MODEL 1
REMARK VINA RESULT:      -8.2      0.000      0.000
REMARK  Name = 
REMARK  6 active torsions:
REMARK  status: ('A' for Active; 'I' for Inactive)
REMARK    1  A    between atoms: C_1  and  C_2
REMARK    2  A    between atoms: C_2  and  C_3
REMARK    3  A    between atoms: C_2  and  C_4
REMARK    4  A    between atoms: C_4  and  C_17
REMARK    5  A    between atoms: C_5  and  C_6
REMARK    6  A    between atoms: C_20  and  N_21
REMARK                            x       y       z     vdW  Elec       q    Type
REMARK                         _______ _______ _______ _____ _____    ______ ____
ROOT
ATOM      1  C   UNL     1       2.488   4.872  19.636  0.00  0.00    +0.000 C 
ATOM      2  C   UNL     1       1.743   5.976  19.863  0.00  0.00    +0.000 C 
ENDROOT
BRANCH   2   3
ATOM      3  C   UNL     1       1.947   7.356  19.312  0.00  0.00    +0.000 C 
ATOM      4  O   UNL     1       2.529   7.620  18.268  0.00  0.00    +0.000 OA
ATOM      5  N   UNL     1       1.375   8.391  20.075  0.00  0.00    +0.000 N 
ATOM      6  N   UNL     1       0.805   8.132  21.288  0.00  0.00    +0.000 NA
ATOM      7  N   UNL     1       0.393   9.271  21.817  0.00  0.00    +0.000 NA
ATOM      8  C   UNL     1       0.683  10.276  20.940  0.00  0.00    +0.000 A 
ATOM      9  C   UNL     1       0.451  11.654  21.041  0.00  0.00    +0.000 A 
ATOM     10  C   UNL     1       0.840  12.477  19.979  0.00  0.00    +0.000 A 
ATOM     11  C   UNL     1       1.443  11.937  18.843  0.00  0.00    +0.000 A 
ATOM     12  C   UNL     1       1.689  10.561  18.731  0.00  0.00    +0.000 A 
ATOM     13  C   UNL     1       1.299   9.753  19.809  0.00  0.00    +0.000 A 
ENDBRANCH   2   3
BRANCH   1  14
ATOM     14  C   UNL     1       3.701   4.914  18.796  0.00  0.00    +0.000 A 
ATOM     15  C   UNL     1       3.645   4.529  17.451  0.00  0.00    +0.000 A 
ATOM     16  C   UNL     1       4.800   4.524  16.662  0.00  0.00    +0.000 A 
ATOM     17  C   UNL     1       6.022   4.913  17.229  0.00  0.00    +0.000 A 
ATOM     18  C   UNL     1       6.088   5.319  18.567  0.00  0.00    +0.000 A 
ATOM     19  C   UNL     1       4.927   5.319  19.345  0.00  0.00    +0.000 A 
BRANCH  17  20
ATOM     20  N   UNL     1       7.245   4.885  16.415  0.00  0.00    +0.000 N 
ATOM     21  O   UNL     1       7.266   5.568  15.380  0.00  0.00    +0.000 OA
ATOM     22  O   UNL     1       8.187   4.183  16.810  0.00  0.00    +0.000 OA
ENDBRANCH  17  20
ENDBRANCH   1  14
BRANCH   1  24
ATOM     23  C   UNL     1       2.175   3.510  21.808  0.00  0.00    +0.000 C 
ATOM     24  C   UNL     1       2.181   3.511  20.271  0.00  0.00    +0.000 C 
ATOM     25  C   UNL     1       0.846   2.958  19.759  0.00  0.00    +0.000 C 
ENDBRANCH   1  24
TORSDOF 4
ENDMDL
MODEL 2
REMARK VINA RESULT:      -8.0      0.699      1.240
REMARK  Name = 
REMARK  6 active torsions:
REMARK  status: ('A' for Active; 'I' for Inactive)
REMARK    1  A    between atoms: C_1  and  C_2
REMARK    2  A    between atoms: C_2  and  C_3
REMARK    3  A    between atoms: C_2  and  C_4
REMARK    4  A    between atoms: C_4  and  C_17
REMARK    5  A    between atoms: C_5  and  C_6
REMARK    6  A    between atoms: C_20  and  N_21
REMARK                            x       y       z     vdW  Elec       q    Type
REMARK                         _______ _______ _______ _____ _____    ______ ____
ROOT
ATOM      1  C   UNL     1       2.869   4.550  19.666  0.00  0.00    +0.000 C 
ATOM      2  C   UNL     1       2.138   5.642  19.980  0.00  0.00    +0.000 C 
ENDROOT
BRANCH   2   3
ATOM      3  C   UNL     1       2.177   6.995  19.335  0.00  0.00    +0.000 C 
ATOM      4  O   UNL     1       2.647   7.237  18.231  0.00  0.00    +0.000 OA
ATOM      5  N   UNL     1       1.582   8.028  20.084  0.00  0.00    +0.000 N 
ATOM      6  N   UNL     1       1.137   7.803  21.354  0.00  0.00    +0.000 NA
ATOM      7  N   UNL     1       0.674   8.937  21.850  0.00  0.00    +0.000 NA
ATOM      8  C   UNL     1       0.804   9.904  20.895  0.00  0.00    +0.000 A 
ATOM      9  C   UNL     1       0.464  11.261  20.936  0.00  0.00    +0.000 A 
ATOM     10  C   UNL     1       0.693  12.043  19.799  0.00  0.00    +0.000 A 
ATOM     11  C   UNL     1       1.246  11.480  18.647  0.00  0.00    +0.000 A 
ATOM     12  C   UNL     1       1.599  10.124  18.594  0.00  0.00    +0.000 A 
ATOM     13  C   UNL     1       1.368   9.359  19.747  0.00  0.00    +0.000 A 
ENDBRANCH   2   3
BRANCH   1  14
ATOM     14  C   UNL     1       3.896   4.583  18.607  0.00  0.00    +0.000 A 
ATOM     15  C   UNL     1       5.195   5.021  18.895  0.00  0.00    +0.000 A 
ATOM     16  C   UNL     1       6.161   5.096  17.886  0.00  0.00    +0.000 A 
ATOM     17  C   UNL     1       5.820   4.727  16.577  0.00  0.00    +0.000 A 
ATOM     18  C   UNL     1       4.531   4.268  16.281  0.00  0.00    +0.000 A 
ATOM     19  C   UNL     1       3.574   4.199  17.298  0.00  0.00    +0.000 A 
BRANCH  17  20
ATOM     20  N   UNL     1       6.822   4.828  15.507  0.00  0.00    +0.000 N 
ATOM     21  O   UNL     1       6.759   4.010  14.577  0.00  0.00    +0.000 OA
ATOM     22  O   UNL     1       7.670   5.728  15.594  0.00  0.00    +0.000 OA
ENDBRANCH  17  20
ENDBRANCH   1  14
BRANCH   1  24
ATOM     23  C   UNL     1       2.159   3.331  21.830  0.00  0.00    +0.000 C 
ATOM     24  C   UNL     1       2.744   3.217  20.413  0.00  0.00    +0.000 C 
ATOM     25  C   UNL     1       1.916   2.213  19.603  0.00  0.00    +0.000 C 
ENDBRANCH   1  24
TORSDOF 4
ENDMDL
MODEL 3
REMARK VINA RESULT:      -7.9      1.443      2.055
REMARK  Name = 
REMARK  6 active torsions:
REMARK  status: ('A' for Active; 'I' for Inactive)
REMARK    1  A    between atoms: C_1  and  C_2
REMARK    2  A    between atoms: C_2  and  C_3
REMARK    3  A    between atoms: C_2  and  C_4
REMARK    4  A    between atoms: C_4  and  C_17
REMARK    5  A    between atoms: C_5  and  C_6
REMARK    6  A    between atoms: C_20  and  N_21
REMARK                            x       y       z     vdW  Elec       q    Type
REMARK                         _______ _______ _______ _____ _____    ______ ____
ROOT
ATOM      1  C   UNL     1       3.923   4.122  18.961  0.00  0.00    +0.000 C 
ATOM      2  C   UNL     1       3.181   5.147  19.434  0.00  0.00    +0.000 C 
ENDROOT
BRANCH   2   3
ATOM      3  C   UNL     1       3.024   6.519  18.850  0.00  0.00    +0.000 C 
ATOM      4  O   UNL     1       3.544   6.908  17.812  0.00  0.00    +0.000 OA
ATOM      5  N   UNL     1       2.174   7.379  19.571  0.00  0.00    +0.000 N 
ATOM      6  N   UNL     1       1.660   7.002  20.778  0.00  0.00    +0.000 NA
ATOM      7  N   UNL     1       0.944   8.001  21.266  0.00  0.00    +0.000 NA
ATOM      8  C   UNL     1       0.979   9.028  20.368  0.00  0.00    +0.000 A 
ATOM      9  C   UNL     1       0.384  10.294  20.425  0.00  0.00    +0.000 A 
ATOM     10  C   UNL     1       0.568  11.170  19.350  0.00  0.00    +0.000 A 
ATOM     11  C   UNL     1       1.327  10.787  18.242  0.00  0.00    +0.000 A 
ATOM     12  C   UNL     1       1.935   9.525  18.174  0.00  0.00    +0.000 A 
ATOM     13  C   UNL     1       1.745   8.665  19.265  0.00  0.00    +0.000 A 
ENDBRANCH   2   3
BRANCH   1  14
ATOM     14  C   UNL     1       4.759   4.263  17.753  0.00  0.00    +0.000 A 
ATOM     15  C   UNL     1       6.118   4.582  17.868  0.00  0.00    +0.000 A 
ATOM     16  C   UNL     1       6.906   4.761  16.725  0.00  0.00    +0.000 A 
ATOM     17  C   UNL     1       6.324   4.615  15.458  0.00  0.00    +0.000 A 
ATOM     18  C   UNL     1       4.972   4.277  15.331  0.00  0.00    +0.000 A 
ATOM     19  C   UNL     1       4.195   4.102  16.480  0.00  0.00    +0.000 A 
BRANCH  17  20
ATOM     20  N   UNL     1       7.139   4.827  14.253  0.00  0.00    +0.000 N 
ATOM     21  O   UNL     1       8.071   5.643  14.321  0.00  0.00    +0.000 OA
ATOM     22  O   UNL     1       6.849   4.176  13.239  0.00  0.00    +0.000 OA
ENDBRANCH  17  20
ENDBRANCH   1  14
BRANCH   1  24
ATOM     23  C   UNL     1       3.178   2.649  20.948  0.00  0.00    +0.000 C 
ATOM     24  C   UNL     1       4.011   2.761  19.661  0.00  0.00    +0.000 C 
ATOM     25  C   UNL     1       3.617   1.629  18.704  0.00  0.00    +0.000 C 
ENDBRANCH   1  24
TORSDOF 4
ENDMDL
MODEL 4
REMARK VINA RESULT:      -7.8      1.506      1.896
REMARK  Name = 
REMARK  6 active torsions:
REMARK  status: ('A' for Active; 'I' for Inactive)
REMARK    1  A    between atoms: C_1  and  C_2
REMARK    2  A    between atoms: C_2  and  C_3
REMARK    3  A    between atoms: C_2  and  C_4
REMARK    4  A    between atoms: C_4  and  C_17
REMARK    5  A    between atoms: C_5  and  C_6
REMARK    6  A    between atoms: C_20  and  N_21
REMARK                            x       y       z     vdW  Elec       q    Type
REMARK                         _______ _______ _______ _____ _____    ______ ____
ROOT
ATOM      1  C   UNL     1       3.978   4.150  18.801  0.00  0.00    +0.000 C 
ATOM      2  C   UNL     1       3.214   5.134  19.323  0.00  0.00    +0.000 C 
ENDROOT
BRANCH   2   3
ATOM      3  C   UNL     1       3.017   6.525  18.798  0.00  0.00    +0.000 C 
ATOM      4  O   UNL     1       3.500   6.964  17.762  0.00  0.00    +0.000 OA
ATOM      5  N   UNL     1       2.176   7.342  19.577  0.00  0.00    +0.000 N 
ATOM      6  N   UNL     1       1.704   6.909  20.782  0.00  0.00    +0.000 NA
ATOM      7  N   UNL     1       0.986   7.874  21.330  0.00  0.00    +0.000 NA
ATOM      8  C   UNL     1       0.978   8.936  20.473  0.00  0.00    +0.000 A 
ATOM      9  C   UNL     1       0.364  10.189  20.598  0.00  0.00    +0.000 A 
ATOM     10  C   UNL     1       0.502  11.109  19.553  0.00  0.00    +0.000 A 
ATOM     11  C   UNL     1       1.233  10.783  18.409  0.00  0.00    +0.000 A 
ATOM     12  C   UNL     1       1.860   9.536  18.274  0.00  0.00    +0.000 A 
ATOM     13  C   UNL     1       1.716   8.630  19.335  0.00  0.00    +0.000 A 
ENDBRANCH   2   3
BRANCH   1  14
ATOM     14  C   UNL     1       4.800   4.363  17.594  0.00  0.00    +0.000 A 
ATOM     15  C   UNL     1       4.240   4.202  16.320  0.00  0.00    +0.000 A 
ATOM     16  C   UNL     1       5.025   4.360  15.172  0.00  0.00    +0.000 A 
ATOM     17  C   UNL     1       6.383   4.682  15.306  0.00  0.00    +0.000 A 
ATOM     18  C   UNL     1       6.949   4.865  16.573  0.00  0.00    +0.000 A 
ATOM     19  C   UNL     1       6.155   4.704  17.712  0.00  0.00    +0.000 A 
BRANCH  17  20
ATOM     20  N   UNL     1       7.220   4.823  14.107  0.00  0.00    +0.000 N 
ATOM     21  O   UNL     1       6.921   4.148  13.110  0.00  0.00    +0.000 OA
ATOM     22  O   UNL     1       8.177   5.610  14.159  0.00  0.00    +0.000 OA
ENDBRANCH  17  20
ENDBRANCH   1  14
BRANCH   1  24
ATOM     23  C   UNL     1       3.376   2.610  20.786  0.00  0.00    +0.000 C 
ATOM     24  C   UNL     1       4.106   2.763  19.442  0.00  0.00    +0.000 C 
ATOM     25  C   UNL     1       3.627   1.670  18.479  0.00  0.00    +0.000 C 
ENDBRANCH   1  24
TORSDOF 4
ENDMDL
MODEL 5
REMARK VINA RESULT:      -7.8      0.851      1.107
REMARK  Name = 
REMARK  6 active torsions:
REMARK  status: ('A' for Active; 'I' for Inactive)
REMARK    1  A    between atoms: C_1  and  C_2
REMARK    2  A    between atoms: C_2  and  C_3
REMARK    3  A    between atoms: C_2  and  C_4
REMARK    4  A    between atoms: C_4  and  C_17
REMARK    5  A    between atoms: C_5  and  C_6
REMARK    6  A    between atoms: C_20  and  N_21
REMARK                            x       y       z     vdW  Elec       q    Type
REMARK                         _______ _______ _______ _____ _____    ______ ____
ROOT
ATOM      1  C   UNL     1       2.932   4.550  19.543  0.00  0.00    +0.000 C 
ATOM      2  C   UNL     1       2.195   5.620  19.913  0.00  0.00    +0.000 C 
ENDROOT
BRANCH   2   3
ATOM      3  C   UNL     1       2.173   6.984  19.291  0.00  0.00    +0.000 C 
ATOM      4  O   UNL     1       2.578   7.255  18.168  0.00  0.00    +0.000 OA
ATOM      5  N   UNL     1       1.599   7.993  20.089  0.00  0.00    +0.000 N 
ATOM      6  N   UNL     1       1.228   7.737  21.377  0.00  0.00    +0.000 NA
ATOM      7  N   UNL     1       0.770   8.854  21.917  0.00  0.00    +0.000 NA
ATOM      8  C   UNL     1       0.830   9.838  20.974  0.00  0.00    +0.000 A 
ATOM      9  C   UNL     1       0.465  11.188  21.057  0.00  0.00    +0.000 A 
ATOM     10  C   UNL     1       0.617  11.993  19.923  0.00  0.00    +0.000 A 
ATOM     11  C   UNL     1       1.118  11.461  18.734  0.00  0.00    +0.000 A 
ATOM     12  C   UNL     1       1.494  10.113  18.638  0.00  0.00    +0.000 A 
ATOM     13  C   UNL     1       1.341   9.324  19.787  0.00  0.00    +0.000 A 
ENDBRANCH   2   3
BRANCH   1  14
ATOM     14  C   UNL     1       3.902   4.623  18.434  0.00  0.00    +0.000 A 
ATOM     15  C   UNL     1       3.598   4.056  17.190  0.00  0.00    +0.000 A 
ATOM     16  C   UNL     1       4.531   4.083  16.148  0.00  0.00    +0.000 A 
ATOM     17  C   UNL     1       5.779   4.685  16.356  0.00  0.00    +0.000 A 
ATOM     18  C   UNL     1       6.087   5.273  17.589  0.00  0.00    +0.000 A 
ATOM     19  C   UNL     1       5.147   5.239  18.623  0.00  0.00    +0.000 A 
BRANCH  17  20
ATOM     20  N   UNL     1       6.774   4.694  15.276  0.00  0.00    +0.000 N 
ATOM     21  O   UNL     1       7.696   5.521  15.345  0.00  0.00    +0.000 OA
ATOM     22  O   UNL     1       6.637   3.872  14.358  0.00  0.00    +0.000 OA
ENDBRANCH  17  20
ENDBRANCH   1  14
BRANCH   1  24
ATOM     23  C   UNL     1       4.229   2.491  20.408  0.00  0.00    +0.000 C 
ATOM     24  C   UNL     1       2.873   3.202  20.272  0.00  0.00    +0.000 C 
ATOM     25  C   UNL     1       2.242   3.359  21.660  0.00  0.00    +0.000 C 
ENDBRANCH   1  24
TORSDOF 4
ENDMDL
MODEL 6
REMARK VINA RESULT:      -7.6      0.794      1.086
REMARK  Name = 
REMARK  6 active torsions:
REMARK  status: ('A' for Active; 'I' for Inactive)
REMARK    1  A    between atoms: C_1  and  C_2
REMARK    2  A    between atoms: C_2  and  C_3
REMARK    3  A    between atoms: C_2  and  C_4
REMARK    4  A    between atoms: C_4  and  C_17
REMARK    5  A    between atoms: C_5  and  C_6
REMARK    6  A    between atoms: C_20  and  N_21
REMARK                            x       y       z     vdW  Elec       q    Type
REMARK                         _______ _______ _______ _____ _____    ______ ____
ROOT
ATOM      1  C   UNL     1       2.241   5.349  19.396  0.00  0.00    +0.000 C 
ATOM      2  C   UNL     1       1.633   6.553  19.465  0.00  0.00    +0.000 C 
ENDROOT
BRANCH   2   3
ATOM      3  C   UNL     1       2.107   7.859  18.900  0.00  0.00    +0.000 C 
ATOM      4  O   UNL     1       2.936   7.983  18.007  0.00  0.00    +0.000 OA
ATOM      5  N   UNL     1       1.496   9.002  19.450  0.00  0.00    +0.000 N 
ATOM      6  N   UNL     1       0.641   8.896  20.509  0.00  0.00    +0.000 NA
ATOM      7  N   UNL     1       0.249  10.108  20.863  0.00  0.00    +0.000 NA
ATOM      8  C   UNL     1       0.839  11.007  20.022  0.00  0.00    +0.000 A 
ATOM      9  C   UNL     1       0.744  12.404  19.989  0.00  0.00    +0.000 A 
ATOM     10  C   UNL     1       1.450  13.100  19.002  0.00  0.00    +0.000 A 
ATOM     11  C   UNL     1       2.232  12.415  18.069  0.00  0.00    +0.000 A 
ATOM     12  C   UNL     1       2.343  11.017  18.095  0.00  0.00    +0.000 A 
ATOM     13  C   UNL     1       1.633  10.339  19.097  0.00  0.00    +0.000 A 
ENDBRANCH   2   3
BRANCH   1  14
ATOM     14  C   UNL     1       3.558   5.180  18.751  0.00  0.00    +0.000 A 
ATOM     15  C   UNL     1       3.642   4.834  17.397  0.00  0.00    +0.000 A 
ATOM     16  C   UNL     1       4.887   4.629  16.791  0.00  0.00    +0.000 A 
ATOM     17  C   UNL     1       6.055   4.775  17.551  0.00  0.00    +0.000 A 
ATOM     18  C   UNL     1       5.984   5.140  18.900  0.00  0.00    +0.000 A 
ATOM     19  C   UNL     1       4.736   5.341  19.495  0.00  0.00    +0.000 A 
BRANCH  17  20
ATOM     20  N   UNL     1       7.364   4.536  16.929  0.00  0.00    +0.000 N 
ATOM     21  O   UNL     1       7.476   4.754  15.713  0.00  0.00    +0.000 OA
ATOM     22  O   UNL     1       8.284   4.132  17.655  0.00  0.00    +0.000 OA
ENDBRANCH  17  20
ENDBRANCH   1  14
BRANCH   1  24
ATOM     23  C   UNL     1       1.929   2.790  19.238  0.00  0.00    +0.000 C 
ATOM     24  C   UNL     1       1.656   4.080  20.028  0.00  0.00    +0.000 C 
ATOM     25  C   UNL     1       2.155   3.907  21.468  0.00  0.00    +0.000 C 
ENDBRANCH   1  24
TORSDOF 4
ENDMDL
MODEL 7
REMARK VINA RESULT:      -7.5      4.110      6.226
REMARK  Name = 
REMARK  6 active torsions:
REMARK  status: ('A' for Active; 'I' for Inactive)
REMARK    1  A    between atoms: C_1  and  C_2
REMARK    2  A    between atoms: C_2  and  C_3
REMARK    3  A    between atoms: C_2  and  C_4
REMARK    4  A    between atoms: C_4  and  C_17
REMARK    5  A    between atoms: C_5  and  C_6
REMARK    6  A    between atoms: C_20  and  N_21
REMARK                            x       y       z     vdW  Elec       q    Type
REMARK                         _______ _______ _______ _____ _____    ______ ____
ROOT
ATOM      1  C   UNL     1       6.367   6.396  17.597  0.00  0.00    +0.000 C 
ATOM      2  C   UNL     1       5.379   6.547  18.506  0.00  0.00    +0.000 C 
ENDROOT
BRANCH   2   3
ATOM      3  C   UNL     1       3.989   5.986  18.459  0.00  0.00    +0.000 C 
ATOM      4  O   UNL     1       2.996   6.589  18.073  0.00  0.00    +0.000 OA
ATOM      5  N   UNL     1       3.876   4.644  18.871  0.00  0.00    +0.000 N 
ATOM      6  N   UNL     1       4.948   3.981  19.394  0.00  0.00    +0.000 NA
ATOM      7  N   UNL     1       4.567   2.765  19.746  0.00  0.00    +0.000 NA
ATOM      8  C   UNL     1       3.244   2.629  19.438  0.00  0.00    +0.000 A 
ATOM      9  C   UNL     1       2.386   1.537  19.617  0.00  0.00    +0.000 A 
ATOM     10  C   UNL     1       1.057   1.654  19.196  0.00  0.00    +0.000 A 
ATOM     11  C   UNL     1       0.597   2.834  18.608  0.00  0.00    +0.000 A 
ATOM     12  C   UNL     1       1.443   3.938  18.430  0.00  0.00    +0.000 A 
ATOM     13  C   UNL     1       2.769   3.804  18.864  0.00  0.00    +0.000 A 
ENDBRANCH   2   3
BRANCH   1  14
ATOM     14  C   UNL     1       6.159   5.645  16.344  0.00  0.00    +0.000 A 
ATOM     15  C   UNL     1       6.722   4.373  16.180  0.00  0.00    +0.000 A 
ATOM     16  C   UNL     1       6.566   3.674  14.978  0.00  0.00    +0.000 A 
ATOM     17  C   UNL     1       5.837   4.258  13.932  0.00  0.00    +0.000 A 
ATOM     18  C   UNL     1       5.254   5.521  14.091  0.00  0.00    +0.000 A 
ATOM     19  C   UNL     1       5.417   6.209  15.296  0.00  0.00    +0.000 A 
BRANCH  17  20
ATOM     20  N   UNL     1       5.692   3.543  12.657  0.00  0.00    +0.000 N 
ATOM     21  O   UNL     1       4.547   3.399  12.202  0.00  0.00    +0.000 OA
ATOM     22  O   UNL     1       6.722   3.126  12.108  0.00  0.00    +0.000 OA
ENDBRANCH  17  20
ENDBRANCH   1  14
BRANCH   1  24
ATOM     23  C   UNL     1       7.771   8.564  17.608  0.00  0.00    +0.000 C 
ATOM     24  C   UNL     1       7.752   7.034  17.754  0.00  0.00    +0.000 C 
ATOM     25  C   UNL     1       8.383   6.646  19.096  0.00  0.00    +0.000 C 
ENDBRANCH   1  24
TORSDOF 4
ENDMDL
MODEL 8
REMARK VINA RESULT:      -7.4      2.379      6.775
REMARK  Name = 
REMARK  6 active torsions:
REMARK  status: ('A' for Active; 'I' for Inactive)
REMARK    1  A    between atoms: C_1  and  C_2
REMARK    2  A    between atoms: C_2  and  C_3
REMARK    3  A    between atoms: C_2  and  C_4
REMARK    4  A    between atoms: C_4  and  C_17
REMARK    5  A    between atoms: C_5  and  C_6
REMARK    6  A    between atoms: C_20  and  N_21
REMARK                            x       y       z     vdW  Elec       q    Type
REMARK                         _______ _______ _______ _____ _____    ______ ____
ROOT
ATOM      1  C   UNL     1       2.608   4.662  20.187  0.00  0.00    +0.000 C 
ATOM      2  C   UNL     1       3.750   4.045  19.812  0.00  0.00    +0.000 C 
ENDROOT
BRANCH   2   3
ATOM      3  C   UNL     1       4.898   4.621  19.037  0.00  0.00    +0.000 C 
ATOM      4  O   UNL     1       5.806   5.290  19.512  0.00  0.00    +0.000 OA
ATOM      5  N   UNL     1       4.903   4.311  17.664  0.00  0.00    +0.000 N 
ATOM      6  N   UNL     1       3.855   3.648  17.093  0.00  0.00    +0.000 NA
ATOM      7  N   UNL     1       4.082   3.529  15.796  0.00  0.00    +0.000 NA
ATOM      8  C   UNL     1       5.290   4.102  15.522  0.00  0.00    +0.000 A 
ATOM      9  C   UNL     1       5.968   4.233  14.303  0.00  0.00    +0.000 A 
ATOM     10  C   UNL     1       7.218   4.861  14.297  0.00  0.00    +0.000 A 
ATOM     11  C   UNL     1       7.778   5.345  15.481  0.00  0.00    +0.000 A 
ATOM     12  C   UNL     1       7.107   5.228  16.707  0.00  0.00    +0.000 A 
ATOM     13  C   UNL     1       5.852   4.602  16.691  0.00  0.00    +0.000 A 
ENDBRANCH   2   3
BRANCH   1  14
ATOM     14  C   UNL     1       2.321   6.059  19.809  0.00  0.00    +0.000 A 
ATOM     15  C   UNL     1       1.841   6.966  20.763  0.00  0.00    +0.000 A 
ATOM     16  C   UNL     1       1.525   8.280  20.400  0.00  0.00    +0.000 A 
ATOM     17  C   UNL     1       1.694   8.687  19.070  0.00  0.00    +0.000 A 
ATOM     18  C   UNL     1       2.191   7.795  18.112  0.00  0.00    +0.000 A 
ATOM     19  C   UNL     1       2.503   6.485  18.485  0.00  0.00    +0.000 A 
BRANCH  17  20
ATOM     20  N   UNL     1       1.339  10.057  18.676  0.00  0.00    +0.000 N 
ATOM     21  O   UNL     1       2.133  10.674  17.950  0.00  0.00    +0.000 OA
ATOM     22  O   UNL     1       0.264  10.516  19.090  0.00  0.00    +0.000 OA
ENDBRANCH  17  20
ENDBRANCH   1  14
BRANCH   1  24
ATOM     23  C   UNL     1       0.450   3.246  20.102  0.00  0.00    +0.000 C 
ATOM     24  C   UNL     1       1.497   3.957  20.974  0.00  0.00    +0.000 C 
ATOM     25  C   UNL     1       2.087   2.956  21.974  0.00  0.00    +0.000 C 
ENDBRANCH   1  24
TORSDOF 4
ENDMDL
MODEL 9
REMARK VINA RESULT:      -7.4      2.412      6.700
REMARK  Name = 
REMARK  6 active torsions:
REMARK  status: ('A' for Active; 'I' for Inactive)
REMARK    1  A    between atoms: C_1  and  C_2
REMARK    2  A    between atoms: C_2  and  C_3
REMARK    3  A    between atoms: C_2  and  C_4
REMARK    4  A    between atoms: C_4  and  C_17
REMARK    5  A    between atoms: C_5  and  C_6
REMARK    6  A    between atoms: C_20  and  N_21
REMARK                            x       y       z     vdW  Elec       q    Type
REMARK                         _______ _______ _______ _____ _____    ______ ____
ROOT
ATOM      1  C   UNL     1       2.594   4.537  20.187  0.00  0.00    +0.000 C 
ATOM      2  C   UNL     1       3.750   3.935  19.832  0.00  0.00    +0.000 C 
ENDROOT
BRANCH   2   3
ATOM      3  C   UNL     1       4.896   4.520  19.061  0.00  0.00    +0.000 C 
ATOM      4  O   UNL     1       5.805   5.183  19.542  0.00  0.00    +0.000 OA
ATOM      5  N   UNL     1       4.897   4.227  17.684  0.00  0.00    +0.000 N 
ATOM      6  N   UNL     1       3.847   3.572  17.108  0.00  0.00    +0.000 NA
ATOM      7  N   UNL     1       4.070   3.469  15.810  0.00  0.00    +0.000 NA
ATOM      8  C   UNL     1       5.278   4.045  15.539  0.00  0.00    +0.000 A 
ATOM      9  C   UNL     1       5.952   4.190  14.320  0.00  0.00    +0.000 A 
ATOM     10  C   UNL     1       7.203   4.818  14.318  0.00  0.00    +0.000 A 
ATOM     11  C   UNL     1       7.766   5.286  15.507  0.00  0.00    +0.000 A 
ATOM     12  C   UNL     1       7.099   5.155  16.733  0.00  0.00    +0.000 A 
ATOM     13  C   UNL     1       5.844   4.529  16.713  0.00  0.00    +0.000 A 
ENDBRANCH   2   3
BRANCH   1  14
ATOM     14  C   UNL     1       2.286   5.924  19.785  0.00  0.00    +0.000 A 
ATOM     15  C   UNL     1       2.472   6.334  18.459  0.00  0.00    +0.000 A 
ATOM     16  C   UNL     1       2.224   7.659  18.082  0.00  0.00    +0.000 A 
ATOM     17  C   UNL     1       1.785   8.578  19.045  0.00  0.00    +0.000 A 
ATOM     18  C   UNL     1       1.577   8.175  20.369  0.00  0.00    +0.000 A 
ATOM     19  C   UNL     1       1.828   6.850  20.734  0.00  0.00    +0.000 A 
BRANCH  17  20
ATOM     20  N   UNL     1       1.548   9.976  18.663  0.00  0.00    +0.000 N 
ATOM     21  O   UNL     1       0.939  10.700  19.465  0.00  0.00    +0.000 OA
ATOM     22  O   UNL     1       1.974  10.354  17.561  0.00  0.00    +0.000 OA
ENDBRANCH  17  20
ENDBRANCH   1  14
BRANCH   1  24
ATOM     23  C   UNL     1       0.413   3.155  20.098  0.00  0.00    +0.000 C 
ATOM     24  C   UNL     1       1.486   3.824  20.972  0.00  0.00    +0.000 C 
ATOM     25  C   UNL     1       2.079   2.785  21.930  0.00  0.00    +0.000 C 
ENDBRANCH   1  24
TORSDOF 4
ENDMDL
