MODEL 1
REMARK VINA RESULT:      -7.3      0.000      0.000
REMARK  Name = 
REMARK  7 active torsions:
REMARK  status: ('A' for Active; 'I' for Inactive)
REMARK    1  A    between atoms: C_1  and  C_2
REMARK    2  A    between atoms: C_2  and  C_4
REMARK    3  A    between atoms: C_6  and  S_7
REMARK    4  A    between atoms: S_7  and  C_8
REMARK    5  A    between atoms: C_8  and  C_9
REMARK    6  A    between atoms: C_9  and  S_10
REMARK    7  A    between atoms: S_10  and  C_13
REMARK                            x       y       z     vdW  Elec       q    Type
REMARK                         _______ _______ _______ _____ _____    ______ ____
ROOT
ATOM      1  C   UNL     1       4.442   5.038  17.102  0.00  0.00    +0.000 A 
ATOM      2  S   UNL     1       4.044   6.651  17.503  0.00  0.00    +0.000 S 
ATOM      3  C   UNL     1       2.897   6.190  18.687  0.00  0.00    +0.000 A 
ATOM      4  C   UNL     1       2.790   4.814  18.768  0.00  0.00    +0.000 A 
ATOM      5  C   UNL     1       3.688   4.143  17.849  0.00  0.00    +0.000 A 
ATOM      6  C   UNL     1       3.773   2.635  17.778  0.00  0.00    +0.000 C 
ATOM      7  C   UNL     1       2.651   1.937  18.560  0.00  0.00    +0.000 C 
ATOM      8  C   UNL     1       2.376   2.613  19.901  0.00  0.00    +0.000 C 
ATOM      9  C   UNL     1       1.922   4.042  19.660  0.00  0.00    +0.000 C 
ATOM     10  O   UNL     1       0.923   4.499  20.208  0.00  0.00    +0.000 OA
ENDROOT
BRANCH   1  12
ATOM     11  C   UNL     1       6.858   4.365  16.550  0.00  0.00    +0.000 C 
ATOM     12  C   UNL     1       5.461   4.726  16.094  0.00  0.00    +0.000 C 
ATOM     13  O   UNL     1       5.215   4.725  14.887  0.00  0.00    +0.000 OA
ENDBRANCH   1  12
BRANCH   3  14
ATOM     14  S   UNL     1       2.059   7.446  19.604  0.00  0.00    +0.000 S 
BRANCH  14  15
ATOM     15  C   UNL     1       2.262   8.876  18.495  0.00  0.00    +0.000 C 
BRANCH  15  16
ATOM     16  C   UNL     1       0.916   9.367  17.983  0.00  0.00    +0.000 C 
BRANCH  16  17
ATOM     17  S   UNL     1       0.362  10.710  19.017  0.00  0.00    +0.000 S 
ATOM     18  O   UNL     1       0.483  10.308  20.405  0.00  0.00    +0.000 OA
ATOM     19  O   UNL     1       0.995  11.928  18.546  0.00  0.00    +0.000 OA
BRANCH  17  20
ATOM     20  C   UNL     1      -1.380  10.852  18.673  0.00  0.00    +0.000 A 
ATOM     21  C   UNL     1      -2.133  11.825  19.340  0.00  0.00    +0.000 A 
ATOM     22  C   UNL     1      -3.483  11.993  19.017  0.00  0.00    +0.000 A 
ATOM     23  C   UNL     1      -4.065  11.199  18.029  0.00  0.00    +0.000 A 
ATOM     24 CL   UNL     1      -5.723  11.415  17.628  0.00  0.00    +0.000 Cl
ATOM     25  C   UNL     1      -3.307  10.238  17.355  0.00  0.00    +0.000 A 
ATOM     26  C   UNL     1      -1.958  10.065  17.672  0.00  0.00    +0.000 A 
ENDBRANCH  17  20
ENDBRANCH  16  17
ENDBRANCH  15  16
ENDBRANCH  14  15
ENDBRANCH   3  14
TORSDOF 6
ENDMDL
MODEL 2
REMARK VINA RESULT:      -7.2      1.116      1.170
REMARK  Name = 
REMARK  7 active torsions:
REMARK  status: ('A' for Active; 'I' for Inactive)
REMARK    1  A    between atoms: C_1  and  C_2
REMARK    2  A    between atoms: C_2  and  C_4
REMARK    3  A    between atoms: C_6  and  S_7
REMARK    4  A    between atoms: S_7  and  C_8
REMARK    5  A    between atoms: C_8  and  C_9
REMARK    6  A    between atoms: C_9  and  S_10
REMARK    7  A    between atoms: S_10  and  C_13
REMARK                            x       y       z     vdW  Elec       q    Type
REMARK                         _______ _______ _______ _____ _____    ______ ____
ROOT
ATOM      1  C   UNL     1       4.164   5.629  17.554  0.00  0.00    +0.000 A 
ATOM      2  S   UNL     1       3.518   6.935  18.447  0.00  0.00    +0.000 S 
ATOM      3  C   UNL     1       2.421   5.945  19.311  0.00  0.00    +0.000 A 
ATOM      4  C   UNL     1       2.519   4.626  18.911  0.00  0.00    +0.000 A 
ATOM      5  C   UNL     1       3.532   4.440  17.891  0.00  0.00    +0.000 A 
ATOM      6  C   UNL     1       3.844   3.075  17.319  0.00  0.00    +0.000 C 
ATOM      7  C   UNL     1       2.819   2.009  17.728  0.00  0.00    +0.000 C 
ATOM      8  C   UNL     1       2.409   2.135  19.193  0.00  0.00    +0.000 C 
ATOM      9  C   UNL     1       1.752   3.485  19.418  0.00  0.00    +0.000 C 
ATOM     10  O   UNL     1       0.683   3.588  20.010  0.00  0.00    +0.000 OA
ENDROOT
BRANCH   1  12
ATOM     11  C   UNL     1       6.595   6.301  17.071  0.00  0.00    +0.000 C 
ATOM     12  C   UNL     1       5.245   5.824  16.581  0.00  0.00    +0.000 C 
ATOM     13  O   UNL     1       5.101   5.591  15.381  0.00  0.00    +0.000 OA
ENDBRANCH   1  12
BRANCH   3  14
ATOM     14  S   UNL     1       1.380   6.683  20.534  0.00  0.00    +0.000 S 
BRANCH  14  15
ATOM     15  C   UNL     1       1.824   8.439  20.350  0.00  0.00    +0.000 C 
BRANCH  15  16
ATOM     16  C   UNL     1       0.583   9.319  20.333  0.00  0.00    +0.000 C 
BRANCH  16  17
ATOM     17  S   UNL     1       0.626  10.345  18.873  0.00  0.00    +0.000 S 
ATOM     18  O   UNL     1       1.155  11.645  19.236  0.00  0.00    +0.000 OA
ATOM     19  O   UNL     1       1.234   9.576  17.804  0.00  0.00    +0.000 OA
BRANCH  17  20
ATOM     20  C   UNL     1      -1.086  10.587  18.445  0.00  0.00    +0.000 A 
ATOM     21  C   UNL     1      -1.833  11.554  19.127  0.00  0.00    +0.000 A 
ATOM     22  C   UNL     1      -3.153  11.803  18.744  0.00  0.00    +0.000 A 
ATOM     23  C   UNL     1      -3.712  11.096  17.679  0.00  0.00    +0.000 A 
ATOM     24 CL   UNL     1      -5.334  11.411  17.202  0.00  0.00    +0.000 Cl
ATOM     25  C   UNL     1      -2.960  10.141  16.990  0.00  0.00    +0.000 A 
ATOM     26  C   UNL     1      -1.640   9.887  17.369  0.00  0.00    +0.000 A 
ENDBRANCH  17  20
ENDBRANCH  16  17
ENDBRANCH  15  16
ENDBRANCH  14  15
ENDBRANCH   3  14
TORSDOF 6
ENDMDL
MODEL 3
REMARK VINA RESULT:      -7.1      4.110      9.159
REMARK  Name = 
REMARK  7 active torsions:
REMARK  status: ('A' for Active; 'I' for Inactive)
REMARK    1  A    between atoms: C_1  and  C_2
REMARK    2  A    between atoms: C_2  and  C_4
REMARK    3  A    between atoms: C_6  and  S_7
REMARK    4  A    between atoms: S_7  and  C_8
REMARK    5  A    between atoms: C_8  and  C_9
REMARK    6  A    between atoms: C_9  and  S_10
REMARK    7  A    between atoms: S_10  and  C_13
REMARK                            x       y       z     vdW  Elec       q    Type
REMARK                         _______ _______ _______ _____ _____    ______ ____
ROOT
ATOM      1  C   UNL     1       0.609   9.534  21.690  0.00  0.00    +0.000 A 
ATOM      2  S   UNL     1       1.123   7.966  21.245  0.00  0.00    +0.000 S 
ATOM      3  C   UNL     1       1.661   8.463  19.698  0.00  0.00    +0.000 A 
ATOM      4  C   UNL     1       1.433   9.812  19.499  0.00  0.00    +0.000 A 
ATOM      5  C   UNL     1       0.823  10.436  20.656  0.00  0.00    +0.000 A 
ATOM      6  C   UNL     1       0.506  11.915  20.688  0.00  0.00    +0.000 C 
ATOM      7  C   UNL     1       0.646  12.584  19.314  0.00  0.00    +0.000 C 
ATOM      8  C   UNL     1       1.878  12.094  18.557  0.00  0.00    +0.000 C 
ATOM      9  C   UNL     1       1.757  10.601  18.309  0.00  0.00    +0.000 C 
ATOM     10  O   UNL     1       1.953  10.117  17.198  0.00  0.00    +0.000 OA
ENDROOT
BRANCH   1  12
ATOM     11  C   UNL     1      -1.288  10.541  23.098  0.00  0.00    +0.000 C 
ATOM     12  C   UNL     1       0.033   9.808  23.011  0.00  0.00    +0.000 C 
ATOM     13  O   UNL     1       0.574   9.441  24.055  0.00  0.00    +0.000 OA
ENDBRANCH   1  12
BRANCH   3  14
ATOM     14  S   UNL     1       2.404   7.271  18.625  0.00  0.00    +0.000 S 
BRANCH  14  15
ATOM     15  C   UNL     1       2.539   5.839  19.741  0.00  0.00    +0.000 C 
BRANCH  15  16
ATOM     16  C   UNL     1       3.978   5.360  19.848  0.00  0.00    +0.000 C 
BRANCH  16  17
ATOM     17  S   UNL     1       4.140   3.822  18.958  0.00  0.00    +0.000 S 
ATOM     18  O   UNL     1       4.951   2.914  19.746  0.00  0.00    +0.000 OA
ATOM     19  O   UNL     1       2.820   3.425  18.506  0.00  0.00    +0.000 OA
BRANCH  17  20
ATOM     20  C   UNL     1       5.092   4.238  17.512  0.00  0.00    +0.000 A 
ATOM     21  C   UNL     1       6.429   4.626  17.660  0.00  0.00    +0.000 A 
ATOM     22  C   UNL     1       7.203   4.879  16.524  0.00  0.00    +0.000 A 
ATOM     23  C   UNL     1       6.643   4.731  15.255  0.00  0.00    +0.000 A 
ATOM     24 CL   UNL     1       7.602   5.033  13.859  0.00  0.00    +0.000 Cl
ATOM     25  C   UNL     1       5.313   4.330  15.110  0.00  0.00    +0.000 A 
ATOM     26  C   UNL     1       4.534   4.076  16.241  0.00  0.00    +0.000 A 
ENDBRANCH  17  20
ENDBRANCH  16  17
ENDBRANCH  15  16
ENDBRANCH  14  15
ENDBRANCH   3  14
TORSDOF 6
ENDMDL
MODEL 4
REMARK VINA RESULT:      -7.0      0.861      1.329
REMARK  Name = 
REMARK  7 active torsions:
REMARK  status: ('A' for Active; 'I' for Inactive)
REMARK    1  A    between atoms: C_1  and  C_2
REMARK    2  A    between atoms: C_2  and  C_4
REMARK    3  A    between atoms: C_6  and  S_7
REMARK    4  A    between atoms: S_7  and  C_8
REMARK    5  A    between atoms: C_8  and  C_9
REMARK    6  A    between atoms: C_9  and  S_10
REMARK    7  A    between atoms: S_10  and  C_13
REMARK                            x       y       z     vdW  Elec       q    Type
REMARK                         _______ _______ _______ _____ _____    ______ ____
ROOT
ATOM      1  C   UNL     1       4.764   4.860  16.942  0.00  0.00    +0.000 A 
ATOM      2  S   UNL     1       4.494   6.484  17.400  0.00  0.00    +0.000 S 
ATOM      3  C   UNL     1       3.238   6.082  18.492  0.00  0.00    +0.000 A 
ATOM      4  C   UNL     1       2.999   4.721  18.498  0.00  0.00    +0.000 A 
ATOM      5  C   UNL     1       3.886   4.009  17.599  0.00  0.00    +0.000 A 
ATOM      6  C   UNL     1       3.834   2.504  17.457  0.00  0.00    +0.000 C 
ATOM      7  C   UNL     1       2.607   1.883  18.137  0.00  0.00    +0.000 C 
ATOM      8  C   UNL     1       2.313   2.522  19.493  0.00  0.00    +0.000 C 
ATOM      9  C   UNL     1       2.010   3.997  19.299  0.00  0.00    +0.000 C 
ATOM     10  O   UNL     1       1.026   4.522  19.812  0.00  0.00    +0.000 OA
ENDROOT
BRANCH   1  12
ATOM     11  C   UNL     1       5.454   4.406  14.511  0.00  0.00    +0.000 C 
ATOM     12  C   UNL     1       5.809   4.498  15.979  0.00  0.00    +0.000 C 
ATOM     13  O   UNL     1       6.974   4.288  16.319  0.00  0.00    +0.000 OA
ENDBRANCH   1  12
BRANCH   3  14
ATOM     14  S   UNL     1       2.466   7.371  19.423  0.00  0.00    +0.000 S 
BRANCH  14  15
ATOM     15  C   UNL     1       1.477   8.185  18.129  0.00  0.00    +0.000 C 
BRANCH  15  16
ATOM     16  C   UNL     1       1.649   9.696  18.177  0.00  0.00    +0.000 C 
BRANCH  16  17
ATOM     17  S   UNL     1       0.626  10.350  19.484  0.00  0.00    +0.000 S 
ATOM     18  O   UNL     1       0.360   9.292  20.439  0.00  0.00    +0.000 OA
ATOM     19  O   UNL     1       1.208  11.605  19.921  0.00  0.00    +0.000 OA
BRANCH  17  20
ATOM     20  C   UNL     1      -0.923  10.732  18.692  0.00  0.00    +0.000 A 
ATOM     21  C   UNL     1      -1.267  10.072  17.507  0.00  0.00    +0.000 A 
ATOM     22  C   UNL     1      -2.515  10.310  16.923  0.00  0.00    +0.000 A 
ATOM     23  C   UNL     1      -3.410  11.190  17.531  0.00  0.00    +0.000 A 
ATOM     24 CL   UNL     1      -4.948  11.473  16.816  0.00  0.00    +0.000 Cl
ATOM     25  C   UNL     1      -3.070  11.836  18.722  0.00  0.00    +0.000 A 
ATOM     26  C   UNL     1      -1.824  11.603  19.311  0.00  0.00    +0.000 A 
ENDBRANCH  17  20
ENDBRANCH  16  17
ENDBRANCH  15  16
ENDBRANCH  14  15
ENDBRANCH   3  14
TORSDOF 6
ENDMDL
MODEL 5
REMARK VINA RESULT:      -7.0      1.140      3.269
REMARK  Name = 
REMARK  7 active torsions:
REMARK  status: ('A' for Active; 'I' for Inactive)
REMARK    1  A    between atoms: C_1  and  C_2
REMARK    2  A    between atoms: C_2  and  C_4
REMARK    3  A    between atoms: C_6  and  S_7
REMARK    4  A    between atoms: S_7  and  C_8
REMARK    5  A    between atoms: C_8  and  C_9
REMARK    6  A    between atoms: C_9  and  S_10
REMARK    7  A    between atoms: S_10  and  C_13
REMARK                            x       y       z     vdW  Elec       q    Type
REMARK                         _______ _______ _______ _____ _____    ______ ____
ROOT
ATOM      1  C   UNL     1       2.984   4.311  18.856  0.00  0.00    +0.000 A 
ATOM      2  S   UNL     1       2.384   5.869  19.220  0.00  0.00    +0.000 S 
ATOM      3  C   UNL     1       3.296   6.628  17.986  0.00  0.00    +0.000 A 
ATOM      4  C   UNL     1       4.079   5.711  17.309  0.00  0.00    +0.000 A 
ATOM      5  C   UNL     1       3.898   4.364  17.813  0.00  0.00    +0.000 A 
ATOM      6  C   UNL     1       4.625   3.184  17.208  0.00  0.00    +0.000 C 
ATOM      7  C   UNL     1       5.732   3.603  16.231  0.00  0.00    +0.000 C 
ATOM      8  C   UNL     1       5.301   4.761  15.334  0.00  0.00    +0.000 C 
ATOM      9  C   UNL     1       4.990   5.974  16.193  0.00  0.00    +0.000 C 
ATOM     10  O   UNL     1       5.450   7.081  15.930  0.00  0.00    +0.000 OA
ENDROOT
BRANCH   1  12
ATOM     11  C   UNL     1       1.271   2.420  19.156  0.00  0.00    +0.000 C 
ATOM     12  C   UNL     1       2.537   3.125  19.595  0.00  0.00    +0.000 C 
ATOM     13  O   UNL     1       3.168   2.665  20.548  0.00  0.00    +0.000 OA
ENDBRANCH   1  12
BRANCH   3  14
ATOM     14  S   UNL     1       3.126   8.369  17.741  0.00  0.00    +0.000 S 
BRANCH  14  15
ATOM     15  C   UNL     1       1.655   8.718  18.756  0.00  0.00    +0.000 C 
BRANCH  15  16
ATOM     16  C   UNL     1       0.689   9.637  18.024  0.00  0.00    +0.000 C 
BRANCH  16  17
ATOM     17  S   UNL     1       0.042  10.831  19.182  0.00  0.00    +0.000 S 
ATOM     18  O   UNL     1       0.072  10.252  20.511  0.00  0.00    +0.000 OA
ATOM     19  O   UNL     1       0.688  12.103  18.919  0.00  0.00    +0.000 OA
BRANCH  17  20
ATOM     20  C   UNL     1      -1.673  11.005  18.735  0.00  0.00    +0.000 A 
ATOM     21  C   UNL     1      -2.249  10.082  17.853  0.00  0.00    +0.000 A 
ATOM     22  C   UNL     1      -3.612  10.167  17.560  0.00  0.00    +0.000 A 
ATOM     23  C   UNL     1      -4.390  11.161  18.155  0.00  0.00    +0.000 A 
ATOM     24 CL   UNL     1      -6.070  11.256  17.800  0.00  0.00    +0.000 Cl
ATOM     25  C   UNL     1      -3.817  12.071  19.046  0.00  0.00    +0.000 A 
ATOM     26  C   UNL     1      -2.454  11.992  19.344  0.00  0.00    +0.000 A 
ENDBRANCH  17  20
ENDBRANCH  16  17
ENDBRANCH  15  16
ENDBRANCH  14  15
ENDBRANCH   3  14
TORSDOF 6
ENDMDL
MODEL 6
REMARK VINA RESULT:      -7.0      2.536      3.060
REMARK  Name = 
REMARK  7 active torsions:
REMARK  status: ('A' for Active; 'I' for Inactive)
REMARK    1  A    between atoms: C_1  and  C_2
REMARK    2  A    between atoms: C_2  and  C_4
REMARK    3  A    between atoms: C_6  and  S_7
REMARK    4  A    between atoms: S_7  and  C_8
REMARK    5  A    between atoms: C_8  and  C_9
REMARK    6  A    between atoms: C_9  and  S_10
REMARK    7  A    between atoms: S_10  and  C_13
REMARK                            x       y       z     vdW  Elec       q    Type
REMARK                         _______ _______ _______ _____ _____    ______ ____
ROOT
ATOM      1  C   UNL     1       4.783   4.827  17.084  0.00  0.00    +0.000 A 
ATOM      2  S   UNL     1       4.424   6.463  17.426  0.00  0.00    +0.000 S 
ATOM      3  C   UNL     1       3.152   6.073  18.501  0.00  0.00    +0.000 A 
ATOM      4  C   UNL     1       2.974   4.705  18.589  0.00  0.00    +0.000 A 
ATOM      5  C   UNL     1       3.922   3.979  17.767  0.00  0.00    +0.000 A 
ATOM      6  C   UNL     1       3.944   2.468  17.723  0.00  0.00    +0.000 C 
ATOM      7  C   UNL     1       2.723   1.834  18.403  0.00  0.00    +0.000 C 
ATOM      8  C   UNL     1       2.354   2.544  19.704  0.00  0.00    +0.000 C 
ATOM      9  C   UNL     1       1.991   3.987  19.404  0.00  0.00    +0.000 C 
ATOM     10  O   UNL     1       0.968   4.497  19.850  0.00  0.00    +0.000 OA
ENDROOT
BRANCH   1  12
ATOM     11  C   UNL     1       5.588   4.307  14.701  0.00  0.00    +0.000 C 
ATOM     12  C   UNL     1       5.877   4.454  16.180  0.00  0.00    +0.000 C 
ATOM     13  O   UNL     1       7.029   4.277  16.577  0.00  0.00    +0.000 OA
ENDBRANCH   1  12
BRANCH   3  14
ATOM     14  S   UNL     1       2.290   7.380  19.321  0.00  0.00    +0.000 S 
BRANCH  14  15
ATOM     15  C   UNL     1       1.792   8.407  17.902  0.00  0.00    +0.000 C 
BRANCH  15  16
ATOM     16  C   UNL     1       1.924   9.887  18.224  0.00  0.00    +0.000 C 
BRANCH  16  17
ATOM     17  S   UNL     1       0.357  10.486  18.832  0.00  0.00    +0.000 S 
ATOM     18  O   UNL     1      -0.662  10.213  17.837  0.00  0.00    +0.000 OA
ATOM     19  O   UNL     1       0.198  10.017  20.196  0.00  0.00    +0.000 OA
BRANCH  17  20
ATOM     20  C   UNL     1       0.549  12.255  18.900  0.00  0.00    +0.000 A 
ATOM     21  C   UNL     1       1.783  12.824  18.564  0.00  0.00    +0.000 A 
ATOM     22  C   UNL     1       1.917  14.215  18.540  0.00  0.00    +0.000 A 
ATOM     23  C   UNL     1       0.820  15.024  18.838  0.00  0.00    +0.000 A 
ATOM     24 CL   UNL     1       0.986  16.735  18.798  0.00  0.00    +0.000 Cl
ATOM     25  C   UNL     1      -0.414  14.454  19.159  0.00  0.00    +0.000 A 
ATOM     26  C   UNL     1      -0.555  13.064  19.185  0.00  0.00    +0.000 A 
ENDBRANCH  17  20
ENDBRANCH  16  17
ENDBRANCH  15  16
ENDBRANCH  14  15
ENDBRANCH   3  14
TORSDOF 6
ENDMDL
MODEL 7
REMARK VINA RESULT:      -7.0      3.668      8.958
REMARK  Name = 
REMARK  7 active torsions:
REMARK  status: ('A' for Active; 'I' for Inactive)
REMARK    1  A    between atoms: C_1  and  C_2
REMARK    2  A    between atoms: C_2  and  C_4
REMARK    3  A    between atoms: C_6  and  S_7
REMARK    4  A    between atoms: S_7  and  C_8
REMARK    5  A    between atoms: C_8  and  C_9
REMARK    6  A    between atoms: C_9  and  S_10
REMARK    7  A    between atoms: S_10  and  C_13
REMARK                            x       y       z     vdW  Elec       q    Type
REMARK                         _______ _______ _______ _____ _____    ______ ____
ROOT
ATOM      1  C   UNL     1      -0.581  11.246  19.245  0.00  0.00    +0.000 A 
ATOM      2  S   UNL     1       0.547   9.983  19.016  0.00  0.00    +0.000 S 
ATOM      3  C   UNL     1       0.596   9.578  20.678  0.00  0.00    +0.000 A 
ATOM      4  C   UNL     1      -0.220  10.412  21.419  0.00  0.00    +0.000 A 
ATOM      5  C   UNL     1      -0.906  11.381  20.587  0.00  0.00    +0.000 A 
ATOM      6  C   UNL     1      -1.879  12.381  21.170  0.00  0.00    +0.000 C 
ATOM      7  C   UNL     1      -1.843  12.425  22.703  0.00  0.00    +0.000 C 
ATOM      8  C   UNL     1      -1.738  11.032  23.318  0.00  0.00    +0.000 C 
ATOM      9  C   UNL     1      -0.445  10.378  22.866  0.00  0.00    +0.000 C 
ATOM     10  O   UNL     1       0.316   9.841  23.665  0.00  0.00    +0.000 OA
ENDROOT
BRANCH   1  12
ATOM     11  C   UNL     1      -2.203  11.458  17.265  0.00  0.00    +0.000 C 
ATOM     12  C   UNL     1      -1.092  12.033  18.117  0.00  0.00    +0.000 C 
ATOM     13  O   UNL     1      -0.665  13.157  17.851  0.00  0.00    +0.000 OA
ENDBRANCH   1  12
BRANCH   3  14
ATOM     14  S   UNL     1       1.608   8.226  21.202  0.00  0.00    +0.000 S 
BRANCH  14  15
ATOM     15  C   UNL     1       1.492   7.128  19.754  0.00  0.00    +0.000 C 
BRANCH  15  16
ATOM     16  C   UNL     1       2.871   6.806  19.200  0.00  0.00    +0.000 C 
BRANCH  16  17
ATOM     17  S   UNL     1       2.876   5.122  18.610  0.00  0.00    +0.000 S 
ATOM     18  O   UNL     1       3.328   4.256  19.682  0.00  0.00    +0.000 OA
ATOM     19  O   UNL     1       1.606   4.875  17.953  0.00  0.00    +0.000 OA
BRANCH  17  20
ATOM     20  C   UNL     1       4.138   5.089  17.355  0.00  0.00    +0.000 A 
ATOM     21  C   UNL     1       4.648   3.858  16.927  0.00  0.00    +0.000 A 
ATOM     22  C   UNL     1       5.581   3.821  15.888  0.00  0.00    +0.000 A 
ATOM     23  C   UNL     1       5.988   5.008  15.278  0.00  0.00    +0.000 A 
ATOM     24 CL   UNL     1       7.130   4.959  13.993  0.00  0.00    +0.000 Cl
ATOM     25  C   UNL     1       5.468   6.235  15.697  0.00  0.00    +0.000 A 
ATOM     26  C   UNL     1       4.534   6.278  16.735  0.00  0.00    +0.000 A 
ENDBRANCH  17  20
ENDBRANCH  16  17
ENDBRANCH  15  16
ENDBRANCH  14  15
ENDBRANCH   3  14
TORSDOF 6
ENDMDL
MODEL 8
REMARK VINA RESULT:      -7.0      1.246      3.180
REMARK  Name = 
REMARK  7 active torsions:
REMARK  status: ('A' for Active; 'I' for Inactive)
REMARK    1  A    between atoms: C_1  and  C_2
REMARK    2  A    between atoms: C_2  and  C_4
REMARK    3  A    between atoms: C_6  and  S_7
REMARK    4  A    between atoms: S_7  and  C_8
REMARK    5  A    between atoms: C_8  and  C_9
REMARK    6  A    between atoms: C_9  and  S_10
REMARK    7  A    between atoms: S_10  and  C_13
REMARK                            x       y       z     vdW  Elec       q    Type
REMARK                         _______ _______ _______ _____ _____    ______ ____
ROOT
ATOM      1  C   UNL     1       3.035   4.425  18.933  0.00  0.00    +0.000 A 
ATOM      2  S   UNL     1       2.499   6.019  19.238  0.00  0.00    +0.000 S 
ATOM      3  C   UNL     1       3.399   6.686  17.944  0.00  0.00    +0.000 A 
ATOM      4  C   UNL     1       4.130   5.712  17.290  0.00  0.00    +0.000 A 
ATOM      5  C   UNL     1       3.919   4.397  17.863  0.00  0.00    +0.000 A 
ATOM      6  C   UNL     1       4.588   3.166  17.295  0.00  0.00    +0.000 C 
ATOM      7  C   UNL     1       5.678   3.499  16.268  0.00  0.00    +0.000 C 
ATOM      8  C   UNL     1       5.260   4.628  15.329  0.00  0.00    +0.000 C 
ATOM      9  C   UNL     1       5.015   5.890  16.136  0.00  0.00    +0.000 C 
ATOM     10  O   UNL     1       5.503   6.967  15.808  0.00  0.00    +0.000 OA
ENDROOT
BRANCH   1  12
ATOM     11  C   UNL     1       1.110   2.902  19.688  0.00  0.00    +0.000 C 
ATOM     12  C   UNL     1       2.572   3.291  19.740  0.00  0.00    +0.000 C 
ATOM     13  O   UNL     1       3.334   2.628  20.444  0.00  0.00    +0.000 OA
ENDBRANCH   1  12
BRANCH   3  14
ATOM     14  S   UNL     1       3.279   8.419  17.619  0.00  0.00    +0.000 S 
BRANCH  14  15
ATOM     15  C   UNL     1       1.596   8.767  18.223  0.00  0.00    +0.000 C 
BRANCH  15  16
ATOM     16  C   UNL     1       1.372  10.262  18.387  0.00  0.00    +0.000 C 
BRANCH  16  17
ATOM     17  S   UNL     1       0.295  10.532  19.784  0.00  0.00    +0.000 S 
ATOM     18  O   UNL     1       0.200   9.299  20.542  0.00  0.00    +0.000 OA
ATOM     19  O   UNL     1       0.704  11.764  20.433  0.00  0.00    +0.000 OA
BRANCH  17  20
ATOM     20  C   UNL     1      -1.309  10.820  19.065  0.00  0.00    +0.000 A 
ATOM     21  C   UNL     1      -2.131  11.818  19.601  0.00  0.00    +0.000 A 
ATOM     22  C   UNL     1      -3.357  12.102  18.994  0.00  0.00    +0.000 A 
ATOM     23  C   UNL     1      -3.746  11.398  17.853  0.00  0.00    +0.000 A 
ATOM     24 CL   UNL     1      -5.251  11.756  17.102  0.00  0.00    +0.000 Cl
ATOM     25  C   UNL     1      -2.917  10.413  17.312  0.00  0.00    +0.000 A 
ATOM     26  C   UNL     1      -1.691  10.124  17.914  0.00  0.00    +0.000 A 
ENDBRANCH  17  20
ENDBRANCH  16  17
ENDBRANCH  15  16
ENDBRANCH  14  15
ENDBRANCH   3  14
TORSDOF 6
ENDMDL
MODEL 9
REMARK VINA RESULT:      -6.8      1.832      3.634
REMARK  Name = 
REMARK  7 active torsions:
REMARK  status: ('A' for Active; 'I' for Inactive)
REMARK    1  A    between atoms: C_1  and  C_2
REMARK    2  A    between atoms: C_2  and  C_4
REMARK    3  A    between atoms: C_6  and  S_7
REMARK    4  A    between atoms: S_7  and  C_8
REMARK    5  A    between atoms: C_8  and  C_9
REMARK    6  A    between atoms: C_9  and  S_10
REMARK    7  A    between atoms: S_10  and  C_13
REMARK                            x       y       z     vdW  Elec       q    Type
REMARK                         _______ _______ _______ _____ _____    ______ ____
ROOT
ATOM      1  C   UNL     1       2.329   4.712  20.410  0.00  0.00    +0.000 A 
ATOM      2  S   UNL     1       1.494   6.179  20.681  0.00  0.00    +0.000 S 
ATOM      3  C   UNL     1       2.296   6.997  19.410  0.00  0.00    +0.000 A 
ATOM      4  C   UNL     1       3.218   6.174  18.790  0.00  0.00    +0.000 A 
ATOM      5  C   UNL     1       3.237   4.846  19.369  0.00  0.00    +0.000 A 
ATOM      6  C   UNL     1       4.144   3.759  18.837  0.00  0.00    +0.000 C 
ATOM      7  C   UNL     1       5.186   4.287  17.842  0.00  0.00    +0.000 C 
ATOM      8  C   UNL     1       4.596   5.313  16.878  0.00  0.00    +0.000 C 
ATOM      9  C   UNL     1       4.093   6.511  17.664  0.00  0.00    +0.000 C 
ATOM     10  O   UNL     1       4.382   7.658  17.341  0.00  0.00    +0.000 OA
ENDROOT
BRANCH   1  12
ATOM     11  C   UNL     1       1.123   2.459  20.664  0.00  0.00    +0.000 C 
ATOM     12  C   UNL     1       2.058   3.515  21.214  0.00  0.00    +0.000 C 
ATOM     13  O   UNL     1       2.583   3.326  22.312  0.00  0.00    +0.000 OA
ENDBRANCH   1  12
BRANCH   3  14
ATOM     14  S   UNL     1       1.865   8.676  19.064  0.00  0.00    +0.000 S 
BRANCH  14  15
ATOM     15  C   UNL     1       1.312   9.235  20.706  0.00  0.00    +0.000 C 
BRANCH  15  16
ATOM     16  C   UNL     1      -0.197   9.426  20.740  0.00  0.00    +0.000 C 
BRANCH  16  17
ATOM     17  S   UNL     1      -0.574  11.110  20.289  0.00  0.00    +0.000 S 
ATOM     18  O   UNL     1      -1.457  11.672  21.293  0.00  0.00    +0.000 OA
ATOM     19  O   UNL     1       0.671  11.773  19.952  0.00  0.00    +0.000 OA
BRANCH  17  20
ATOM     20  C   UNL     1      -1.524  10.971  18.789  0.00  0.00    +0.000 A 
ATOM     21  C   UNL     1      -1.145  10.032  17.823  0.00  0.00    +0.000 A 
ATOM     22  C   UNL     1      -1.930   9.864  16.679  0.00  0.00    +0.000 A 
ATOM     23  C   UNL     1      -3.090  10.622  16.516  0.00  0.00    +0.000 A 
ATOM     24 CL   UNL     1      -4.060  10.405  15.112  0.00  0.00    +0.000 Cl
ATOM     25  C   UNL     1      -3.474  11.548  17.488  0.00  0.00    +0.000 A 
ATOM     26  C   UNL     1      -2.693  11.721  18.634  0.00  0.00    +0.000 A 
ENDBRANCH  17  20
ENDBRANCH  16  17
ENDBRANCH  15  16
ENDBRANCH  14  15
ENDBRANCH   3  14
TORSDOF 6
ENDMDL
