MODEL 1
REMARK VINA RESULT:      -6.7      0.000      0.000
REMARK  Name = 
REMARK  8 active torsions:
REMARK  status: ('A' for Active; 'I' for Inactive)
REMARK    1  A    between atoms: C_1  and  C_2
REMARK    2  A    between atoms: C_2  and  O_3
REMARK    3  A    between atoms: O_3  and  P_4
REMARK    4  A    between atoms: P_4  and  C_6
REMARK    5  A    between atoms: P_4  and  O_14
REMARK    6  A    between atoms: C_7  and  C_8
REMARK    7  A    between atoms: O_14  and  C_15
REMARK    8  A    between atoms: C_15  and  C_16
REMARK                            x       y       z     vdW  Elec       q    Type
REMARK                         _______ _______ _______ _____ _____    ______ ____
ROOT
ATOM      1  P   UNL     1       6.526   4.439  15.355  0.00  0.00    +0.000 P 
ATOM      2  O   UNL     1       6.286   5.950  15.263  0.00  0.00    +0.000 OA
ENDROOT
BRANCH   1   3
ATOM      3  C   UNL     1       5.091   3.995  16.489  0.00  0.00    +0.000 C 
ATOM      4  C   UNL     1       4.148   3.816  17.220  0.00  0.00    +0.000 C 
BRANCH   4   5
ATOM      5  C   UNL     1       3.008   3.673  18.086  0.00  0.00    +0.000 A 
ATOM      6  C   UNL     1       2.182   2.547  17.991  0.00  0.00    +0.000 A 
ATOM      7  C   UNL     1       1.098   2.389  18.863  0.00  0.00    +0.000 A 
ATOM      8  C   UNL     1       0.834   3.359  19.831  0.00  0.00    +0.000 A 
ATOM      9  C   UNL     1       1.653   4.483  19.927  0.00  0.00    +0.000 A 
ATOM     10  C   UNL     1       2.737   4.640  19.056  0.00  0.00    +0.000 A 
ENDBRANCH   4   5
ENDBRANCH   1   3
BRANCH   1  11
ATOM     11  O   UNL     1       5.509   4.191  13.977  0.00  0.00    +0.000 OA
BRANCH  11  13
ATOM     12  C   UNL     1       5.110   3.165  11.857  0.00  0.00    +0.000 C 
ATOM     13  C   UNL     1       6.156   3.589  12.869  0.00  0.00    +0.000 C 
ENDBRANCH  11  13
ENDBRANCH   1  11
BRANCH   1  14
ATOM     14  O   UNL     1       7.542   4.687  16.733  0.00  0.00    +0.000 OA
BRANCH  14  15
ATOM     15  C   UNL     1       7.279   5.875  17.458  0.00  0.00    +0.000 C 
ATOM     16  C   UNL     1       7.652   5.661  18.912  0.00  0.00    +0.000 C 
ENDBRANCH  14  15
ENDBRANCH   1  14
TORSDOF 6
ENDMDL
MODEL 2
REMARK VINA RESULT:      -6.6      0.221      1.223
REMARK  Name = 
REMARK  8 active torsions:
REMARK  status: ('A' for Active; 'I' for Inactive)
REMARK    1  A    between atoms: C_1  and  C_2
REMARK    2  A    between atoms: C_2  and  O_3
REMARK    3  A    between atoms: O_3  and  P_4
REMARK    4  A    between atoms: P_4  and  C_6
REMARK    5  A    between atoms: P_4  and  O_14
REMARK    6  A    between atoms: C_7  and  C_8
REMARK    7  A    between atoms: O_14  and  C_15
REMARK    8  A    between atoms: C_15  and  C_16
REMARK                            x       y       z     vdW  Elec       q    Type
REMARK                         _______ _______ _______ _____ _____    ______ ____
ROOT
ATOM      1  P   UNL     1       6.500   4.462  15.309  0.00  0.00    +0.000 P 
ATOM      2  O   UNL     1       6.243   5.943  15.011  0.00  0.00    +0.000 OA
ENDROOT
BRANCH   1   3
ATOM      3  C   UNL     1       5.139   4.190  16.580  0.00  0.00    +0.000 C 
ATOM      4  C   UNL     1       4.206   3.974  17.315  0.00  0.00    +0.000 C 
BRANCH   4   5
ATOM      5  C   UNL     1       3.061   3.682  18.136  0.00  0.00    +0.000 A 
ATOM      6  C   UNL     1       2.674   4.563  19.152  0.00  0.00    +0.000 A 
ATOM      7  C   UNL     1       1.536   4.299  19.922  0.00  0.00    +0.000 A 
ATOM      8  C   UNL     1       0.780   3.151  19.680  0.00  0.00    +0.000 A 
ATOM      9  C   UNL     1       1.164   2.270  18.671  0.00  0.00    +0.000 A 
ATOM     10  C   UNL     1       2.302   2.534  17.900  0.00  0.00    +0.000 A 
ENDBRANCH   4   5
ENDBRANCH   1   3
BRANCH   1  11
ATOM     11  O   UNL     1       5.405   4.015  14.047  0.00  0.00    +0.000 OA
BRANCH  11  13
ATOM     12  C   UNL     1       4.963   3.204  11.843  0.00  0.00    +0.000 C 
ATOM     13  C   UNL     1       6.030   3.598  12.845  0.00  0.00    +0.000 C 
ENDBRANCH  11  13
ENDBRANCH   1  11
BRANCH   1  14
ATOM     14  O   UNL     1       7.595   4.908  16.572  0.00  0.00    +0.000 OA
BRANCH  14  15
ATOM     15  C   UNL     1       7.260   6.105  17.251  0.00  0.00    +0.000 C 
ATOM     16  C   UNL     1       7.681   5.986  18.703  0.00  0.00    +0.000 C 
ENDBRANCH  14  15
ENDBRANCH   1  14
TORSDOF 6
ENDMDL
MODEL 3
REMARK VINA RESULT:      -6.6      0.764      3.534
REMARK  Name = 
REMARK  8 active torsions:
REMARK  status: ('A' for Active; 'I' for Inactive)
REMARK    1  A    between atoms: C_1  and  C_2
REMARK    2  A    between atoms: C_2  and  O_3
REMARK    3  A    between atoms: O_3  and  P_4
REMARK    4  A    between atoms: P_4  and  C_6
REMARK    5  A    between atoms: P_4  and  O_14
REMARK    6  A    between atoms: C_7  and  C_8
REMARK    7  A    between atoms: O_14  and  C_15
REMARK    8  A    between atoms: C_15  and  C_16
REMARK                            x       y       z     vdW  Elec       q    Type
REMARK                         _______ _______ _______ _____ _____    ______ ____
ROOT
ATOM      1  P   UNL     1       6.133   5.178  15.234  0.00  0.00    +0.000 P 
ATOM      2  O   UNL     1       7.388   4.602  15.900  0.00  0.00    +0.000 OA
ENDROOT
BRANCH   1   3
ATOM      3  C   UNL     1       4.846   4.511  16.434  0.00  0.00    +0.000 C 
ATOM      4  C   UNL     1       3.963   4.173  17.184  0.00  0.00    +0.000 C 
BRANCH   4   5
ATOM      5  C   UNL     1       2.872   3.828  18.056  0.00  0.00    +0.000 A 
ATOM      6  C   UNL     1       2.196   2.612  17.898  0.00  0.00    +0.000 A 
ATOM      7  C   UNL     1       1.161   2.259  18.773  0.00  0.00    +0.000 A 
ATOM      8  C   UNL     1       0.799   3.121  19.808  0.00  0.00    +0.000 A 
ATOM      9  C   UNL     1       1.468   4.333  19.968  0.00  0.00    +0.000 A 
ATOM     10  C   UNL     1       2.502   4.686  19.093  0.00  0.00    +0.000 A 
ENDBRANCH   4   5
ENDBRANCH   1   3
BRANCH   1  11
ATOM     11  O   UNL     1       6.279   6.611  16.193  0.00  0.00    +0.000 OA
BRANCH  11  13
ATOM     12  C   UNL     1       7.750   7.895  17.571  0.00  0.00    +0.000 C 
ATOM     13  C   UNL     1       7.208   6.513  17.260  0.00  0.00    +0.000 C 
ENDBRANCH  11  13
ENDBRANCH   1  11
BRANCH   1  14
ATOM     14  O   UNL     1       5.987   3.746  14.275  0.00  0.00    +0.000 OA
BRANCH  14  15
ATOM     15  C   UNL     1       6.496   3.859  12.959  0.00  0.00    +0.000 C 
ATOM     16  C   UNL     1       5.664   2.998  12.029  0.00  0.00    +0.000 C 
ENDBRANCH  14  15
ENDBRANCH   1  14
TORSDOF 6
ENDMDL
MODEL 4
REMARK VINA RESULT:      -6.5      0.874      3.732
REMARK  Name = 
REMARK  8 active torsions:
REMARK  status: ('A' for Active; 'I' for Inactive)
REMARK    1  A    between atoms: C_1  and  C_2
REMARK    2  A    between atoms: C_2  and  O_3
REMARK    3  A    between atoms: O_3  and  P_4
REMARK    4  A    between atoms: P_4  and  C_6
REMARK    5  A    between atoms: P_4  and  O_14
REMARK    6  A    between atoms: C_7  and  C_8
REMARK    7  A    between atoms: O_14  and  C_15
REMARK    8  A    between atoms: C_15  and  C_16
REMARK                            x       y       z     vdW  Elec       q    Type
REMARK                         _______ _______ _______ _____ _____    ______ ____
ROOT
ATOM      1  P   UNL     1       6.472   5.209  15.465  0.00  0.00    +0.000 P 
ATOM      2  O   UNL     1       7.548   4.631  16.391  0.00  0.00    +0.000 OA
ENDROOT
BRANCH   1   3
ATOM      3  C   UNL     1       4.949   4.638  16.411  0.00  0.00    +0.000 C 
ATOM      4  C   UNL     1       4.032   4.278  17.108  0.00  0.00    +0.000 C 
BRANCH   4   5
ATOM      5  C   UNL     1       2.981   3.862  17.998  0.00  0.00    +0.000 A 
ATOM      6  C   UNL     1       2.513   4.726  18.995  0.00  0.00    +0.000 A 
ATOM      7  C   UNL     1       1.462   4.335  19.833  0.00  0.00    +0.000 A 
ATOM      8  C   UNL     1       0.875   3.079  19.678  0.00  0.00    +0.000 A 
ATOM      9  C   UNL     1       1.340   2.215  18.687  0.00  0.00    +0.000 A 
ATOM     10  C   UNL     1       2.391   2.605  17.849  0.00  0.00    +0.000 A 
ENDBRANCH   4   5
ENDBRANCH   1   3
BRANCH   1  11
ATOM     11  O   UNL     1       6.479   6.682  16.372  0.00  0.00    +0.000 OA
BRANCH  11  13
ATOM     12  C   UNL     1       7.886   8.069  17.716  0.00  0.00    +0.000 C 
ATOM     13  C   UNL     1       7.335   6.673  17.503  0.00  0.00    +0.000 C 
ENDBRANCH  11  13
ENDBRANCH   1  11
BRANCH   1  14
ATOM     14  O   UNL     1       6.465   3.737  14.557  0.00  0.00    +0.000 OA
BRANCH  14  15
ATOM     15  C   UNL     1       5.620   3.745  13.421  0.00  0.00    +0.000 C 
ATOM     16  C   UNL     1       6.435   3.385  12.194  0.00  0.00    +0.000 C 
ENDBRANCH  14  15
ENDBRANCH   1  14
TORSDOF 6
ENDMDL
MODEL 5
REMARK VINA RESULT:      -6.3      1.137      1.315
REMARK  Name = 
REMARK  8 active torsions:
REMARK  status: ('A' for Active; 'I' for Inactive)
REMARK    1  A    between atoms: C_1  and  C_2
REMARK    2  A    between atoms: C_2  and  O_3
REMARK    3  A    between atoms: O_3  and  P_4
REMARK    4  A    between atoms: P_4  and  C_6
REMARK    5  A    between atoms: P_4  and  O_14
REMARK    6  A    between atoms: C_7  and  C_8
REMARK    7  A    between atoms: O_14  and  C_15
REMARK    8  A    between atoms: C_15  and  C_16
REMARK                            x       y       z     vdW  Elec       q    Type
REMARK                         _______ _______ _______ _____ _____    ______ ____
ROOT
ATOM      1  P   UNL     1       6.683   4.653  15.632  0.00  0.00    +0.000 P 
ATOM      2  O   UNL     1       5.996   5.898  15.061  0.00  0.00    +0.000 OA
ENDROOT
BRANCH   1   3
ATOM      3  C   UNL     1       5.356   4.140  16.864  0.00  0.00    +0.000 C 
ATOM      4  C   UNL     1       4.508   3.912  17.692  0.00  0.00    +0.000 C 
BRANCH   4   5
ATOM      5  C   UNL     1       3.497   3.713  18.696  0.00  0.00    +0.000 A 
ATOM      6  C   UNL     1       2.199   4.201  18.501  0.00  0.00    +0.000 A 
ATOM      7  C   UNL     1       1.205   3.970  19.460  0.00  0.00    +0.000 A 
ATOM      8  C   UNL     1       1.506   3.250  20.617  0.00  0.00    +0.000 A 
ATOM      9  C   UNL     1       2.797   2.764  20.815  0.00  0.00    +0.000 A 
ATOM     10  C   UNL     1       3.791   2.995  19.857  0.00  0.00    +0.000 A 
ENDBRANCH   4   5
ENDBRANCH   1   3
BRANCH   1  11
ATOM     11  O   UNL     1       5.928   3.677  14.419  0.00  0.00    +0.000 OA
BRANCH  11  13
ATOM     12  C   UNL     1       5.494   3.261  12.106  0.00  0.00    +0.000 C 
ATOM     13  C   UNL     1       6.468   3.833  13.117  0.00  0.00    +0.000 C 
ENDBRANCH  11  13
ENDBRANCH   1  11
BRANCH   1  14
ATOM     14  O   UNL     1       7.438   5.628  16.845  0.00  0.00    +0.000 OA
BRANCH  14  15
ATOM     15  C   UNL     1       6.732   6.809  17.181  0.00  0.00    +0.000 C 
ATOM     16  C   UNL     1       7.721   7.868  17.628  0.00  0.00    +0.000 C 
ENDBRANCH  14  15
ENDBRANCH   1  14
TORSDOF 6
ENDMDL
MODEL 6
REMARK VINA RESULT:      -6.3      1.178      3.759
REMARK  Name = 
REMARK  8 active torsions:
REMARK  status: ('A' for Active; 'I' for Inactive)
REMARK    1  A    between atoms: C_1  and  C_2
REMARK    2  A    between atoms: C_2  and  O_3
REMARK    3  A    between atoms: O_3  and  P_4
REMARK    4  A    between atoms: P_4  and  C_6
REMARK    5  A    between atoms: P_4  and  O_14
REMARK    6  A    between atoms: C_7  and  C_8
REMARK    7  A    between atoms: O_14  and  C_15
REMARK    8  A    between atoms: C_15  and  C_16
REMARK                            x       y       z     vdW  Elec       q    Type
REMARK                         _______ _______ _______ _____ _____    ______ ____
ROOT
ATOM      1  P   UNL     1       6.927   5.621  16.717  0.00  0.00    +0.000 P 
ATOM      2  O   UNL     1       7.771   4.354  16.537  0.00  0.00    +0.000 OA
ENDROOT
BRANCH   1   3
ATOM      3  C   UNL     1       5.357   4.822  17.379  0.00  0.00    +0.000 C 
ATOM      4  C   UNL     1       4.350   4.386  17.881  0.00  0.00    +0.000 C 
BRANCH   4   5
ATOM      5  C   UNL     1       3.150   3.922  18.525  0.00  0.00    +0.000 A 
ATOM      6  C   UNL     1       2.557   4.676  19.544  0.00  0.00    +0.000 A 
ATOM      7  C   UNL     1       1.366   4.245  20.142  0.00  0.00    +0.000 A 
ATOM      8  C   UNL     1       0.766   3.058  19.723  0.00  0.00    +0.000 A 
ATOM      9  C   UNL     1       1.355   2.303  18.710  0.00  0.00    +0.000 A 
ATOM     10  C   UNL     1       2.545   2.734  18.113  0.00  0.00    +0.000 A 
ENDBRANCH   4   5
ENDBRANCH   1   3
BRANCH   1  11
ATOM     11  O   UNL     1       7.519   5.788  18.334  0.00  0.00    +0.000 OA
BRANCH  11  13
ATOM     12  C   UNL     1       7.729   8.025  17.521  0.00  0.00    +0.000 C 
ATOM     13  C   UNL     1       8.096   7.051  18.623  0.00  0.00    +0.000 C 
ENDBRANCH  11  13
ENDBRANCH   1  11
BRANCH   1  14
ATOM     14  O   UNL     1       6.335   5.454  15.100  0.00  0.00    +0.000 OA
BRANCH  14  15
ATOM     15  C   UNL     1       6.040   4.124  14.711  0.00  0.00    +0.000 C 
ATOM     16  C   UNL     1       6.394   3.946  13.248  0.00  0.00    +0.000 C 
ENDBRANCH  14  15
ENDBRANCH   1  14
TORSDOF 6
ENDMDL
MODEL 7
REMARK VINA RESULT:      -6.3      1.306      3.622
REMARK  Name = 
REMARK  8 active torsions:
REMARK  status: ('A' for Active; 'I' for Inactive)
REMARK    1  A    between atoms: C_1  and  C_2
REMARK    2  A    between atoms: C_2  and  O_3
REMARK    3  A    between atoms: O_3  and  P_4
REMARK    4  A    between atoms: P_4  and  C_6
REMARK    5  A    between atoms: P_4  and  O_14
REMARK    6  A    between atoms: C_7  and  C_8
REMARK    7  A    between atoms: O_14  and  C_15
REMARK    8  A    between atoms: C_15  and  C_16
REMARK                            x       y       z     vdW  Elec       q    Type
REMARK                         _______ _______ _______ _____ _____    ______ ____
ROOT
ATOM      1  P   UNL     1       6.816   5.780  16.829  0.00  0.00    +0.000 P 
ATOM      2  O   UNL     1       7.741   4.559  16.793  0.00  0.00    +0.000 OA
ENDROOT
BRANCH   1   3
ATOM      3  C   UNL     1       5.261   4.938  17.474  0.00  0.00    +0.000 C 
ATOM      4  C   UNL     1       4.244   4.489  17.943  0.00  0.00    +0.000 C 
BRANCH   4   5
ATOM      5  C   UNL     1       3.019   4.019  18.532  0.00  0.00    +0.000 A 
ATOM      6  C   UNL     1       2.365   2.898  18.008  0.00  0.00    +0.000 A 
ATOM      7  C   UNL     1       1.195   2.416  18.607  0.00  0.00    +0.000 A 
ATOM      8  C   UNL     1       0.674   3.056  19.733  0.00  0.00    +0.000 A 
ATOM      9  C   UNL     1       1.321   4.173  20.256  0.00  0.00    +0.000 A 
ATOM     10  C   UNL     1       2.491   4.655  19.658  0.00  0.00    +0.000 A 
ENDBRANCH   4   5
ENDBRANCH   1   3
BRANCH   1  11
ATOM     11  O   UNL     1       7.308   6.109  18.455  0.00  0.00    +0.000 OA
BRANCH  11  13
ATOM     12  C   UNL     1       7.783   8.295  17.617  0.00  0.00    +0.000 C 
ATOM     13  C   UNL     1       8.192   7.208  18.592  0.00  0.00    +0.000 C 
ENDBRANCH  11  13
ENDBRANCH   1  11
BRANCH   1  14
ATOM     14  O   UNL     1       6.323   5.452  15.203  0.00  0.00    +0.000 OA
BRANCH  14  15
ATOM     15  C   UNL     1       6.467   4.102  14.801  0.00  0.00    +0.000 C 
ATOM     16  C   UNL     1       5.815   3.916  13.445  0.00  0.00    +0.000 C 
ENDBRANCH  14  15
ENDBRANCH   1  14
TORSDOF 6
ENDMDL
MODEL 8
REMARK VINA RESULT:      -6.3      1.136      1.750
REMARK  Name = 
REMARK  8 active torsions:
REMARK  status: ('A' for Active; 'I' for Inactive)
REMARK    1  A    between atoms: C_1  and  C_2
REMARK    2  A    between atoms: C_2  and  O_3
REMARK    3  A    between atoms: O_3  and  P_4
REMARK    4  A    between atoms: P_4  and  C_6
REMARK    5  A    between atoms: P_4  and  O_14
REMARK    6  A    between atoms: C_7  and  C_8
REMARK    7  A    between atoms: O_14  and  C_15
REMARK    8  A    between atoms: C_15  and  C_16
REMARK                            x       y       z     vdW  Elec       q    Type
REMARK                         _______ _______ _______ _____ _____    ______ ____
ROOT
ATOM      1  P   UNL     1       6.161   5.460  15.887  0.00  0.00    +0.000 P 
ATOM      2  O   UNL     1       5.457   6.248  14.777  0.00  0.00    +0.000 OA
ENDROOT
BRANCH   1   3
ATOM      3  C   UNL     1       4.645   4.967  16.888  0.00  0.00    +0.000 C 
ATOM      4  C   UNL     1       3.740   4.595  17.594  0.00  0.00    +0.000 C 
BRANCH   4   5
ATOM      5  C   UNL     1       2.710   4.123  18.481  0.00  0.00    +0.000 A 
ATOM      6  C   UNL     1       2.461   4.780  19.691  0.00  0.00    +0.000 A 
ATOM      7  C   UNL     1       1.431   4.345  20.534  0.00  0.00    +0.000 A 
ATOM      8  C   UNL     1       0.648   3.249  20.169  0.00  0.00    +0.000 A 
ATOM      9  C   UNL     1       0.894   2.591  18.966  0.00  0.00    +0.000 A 
ATOM     10  C   UNL     1       1.923   3.026  18.123  0.00  0.00    +0.000 A 
ENDBRANCH   4   5
ENDBRANCH   1   3
BRANCH   1  11
ATOM     11  O   UNL     1       6.012   4.010  14.955  0.00  0.00    +0.000 OA
BRANCH  11  13
ATOM     12  C   UNL     1       5.632   3.415  12.672  0.00  0.00    +0.000 C 
ATOM     13  C   UNL     1       6.572   4.085  13.655  0.00  0.00    +0.000 C 
ENDBRANCH  11  13
ENDBRANCH   1  11
BRANCH   1  14
ATOM     14  O   UNL     1       6.309   6.910  16.819  0.00  0.00    +0.000 OA
BRANCH  14  15
ATOM     15  C   UNL     1       7.440   6.954  17.671  0.00  0.00    +0.000 C 
ATOM     16  C   UNL     1       7.946   8.381  17.749  0.00  0.00    +0.000 C 
ENDBRANCH  14  15
ENDBRANCH   1  14
TORSDOF 6
ENDMDL
MODEL 9
REMARK VINA RESULT:      -6.2      1.209      3.579
REMARK  Name = 
REMARK  8 active torsions:
REMARK  status: ('A' for Active; 'I' for Inactive)
REMARK    1  A    between atoms: C_1  and  C_2
REMARK    2  A    between atoms: C_2  and  O_3
REMARK    3  A    between atoms: O_3  and  P_4
REMARK    4  A    between atoms: P_4  and  C_6
REMARK    5  A    between atoms: P_4  and  O_14
REMARK    6  A    between atoms: C_7  and  C_8
REMARK    7  A    between atoms: O_14  and  C_15
REMARK    8  A    between atoms: C_15  and  C_16
REMARK                            x       y       z     vdW  Elec       q    Type
REMARK                         _______ _______ _______ _____ _____    ______ ____
ROOT
ATOM      1  P   UNL     1       6.199   5.092  15.469  0.00  0.00    +0.000 P 
ATOM      2  O   UNL     1       7.550   4.679  16.062  0.00  0.00    +0.000 OA
ENDROOT
BRANCH   1   3
ATOM      3  C   UNL     1       5.078   4.412  16.819  0.00  0.00    +0.000 C 
ATOM      4  C   UNL     1       4.301   4.066  17.675  0.00  0.00    +0.000 C 
BRANCH   4   5
ATOM      5  C   UNL     1       3.333   3.712  18.679  0.00  0.00    +0.000 A 
ATOM      6  C   UNL     1       3.737   3.079  19.860  0.00  0.00    +0.000 A 
ATOM      7  C   UNL     1       2.801   2.773  20.855  0.00  0.00    +0.000 A 
ATOM      8  C   UNL     1       1.457   3.099  20.672  0.00  0.00    +0.000 A 
ATOM      9  C   UNL     1       1.050   3.727  19.496  0.00  0.00    +0.000 A 
ATOM     10  C   UNL     1       1.986   4.033  18.501  0.00  0.00    +0.000 A 
ENDBRANCH   4   5
ENDBRANCH   1   3
BRANCH   1  11
ATOM     11  O   UNL     1       6.288   6.602  16.309  0.00  0.00    +0.000 OA
BRANCH  11  13
ATOM     12  C   UNL     1       7.721   8.029  17.581  0.00  0.00    +0.000 C 
ATOM     13  C   UNL     1       7.200   6.618  17.395  0.00  0.00    +0.000 C 
ENDBRANCH  11  13
ENDBRANCH   1  11
BRANCH   1  14
ATOM     14  O   UNL     1       6.109   3.583  14.628  0.00  0.00    +0.000 OA
BRANCH  14  15
ATOM     15  C   UNL     1       5.760   3.686  13.260  0.00  0.00    +0.000 C 
ATOM     16  C   UNL     1       6.988   4.084  12.464  0.00  0.00    +0.000 C 
ENDBRANCH  14  15
ENDBRANCH   1  14
TORSDOF 6
ENDMDL
