MODEL 1
REMARK VINA RESULT:      -7.7      0.000      0.000
REMARK  Name = 
REMARK  10 active torsions:
REMARK  status: ('A' for Active; 'I' for Inactive)
REMARK    1  A    between atoms: C_1  and  O_2
REMARK    2  A    between atoms: O_2  and  C_3
REMARK    3  A    between atoms: C_13  and  C_14
REMARK    4  A    between atoms: C_17  and  O_18
REMARK    5  A    between atoms: O_18  and  C_19
REMARK    6  A    between atoms: C_19  and  C_20
REMARK    7  A    between atoms: C_20  and  C_21
REMARK    8  A    between atoms: C_21  and  N_22
REMARK    9  A    between atoms: N_25  and  C_26
REMARK   10  A    between atoms: C_29  and  C_30
REMARK                            x       y       z     vdW  Elec       q    Type
REMARK                         _______ _______ _______ _____ _____    ______ ____
ROOT
ATOM      1  C   UNL     1       0.188  10.283  19.471  0.00  0.00    +0.000 A 
ATOM      2  C   UNL     1       0.454   9.446  20.557  0.00  0.00    +0.000 A 
ATOM      3  C   UNL     1       1.322   8.369  20.456  0.00  0.00    +0.000 A 
ATOM      4  C   UNL     1       1.951   8.073  19.253  0.00  0.00    +0.000 A 
ATOM      5  C   UNL     1       1.697   8.887  18.148  0.00  0.00    +0.000 A 
ATOM      6  C   UNL     1       0.824   9.982  18.256  0.00  0.00    +0.000 A 
ENDROOT
BRANCH   1  17
ATOM      7  C   UNL     1      -1.414  17.020  23.878  0.00  0.00    +0.000 A 
ATOM      8  N   UNL     1      -0.922  18.148  24.337  0.00  0.00    +0.000 NA
ATOM      9  N   UNL     1       0.411  18.199  23.975  0.00  0.00    +0.000 NA
ATOM     10  C   UNL     1       0.687  17.100  23.303  0.00  0.00    +0.000 A 
ATOM     11  C   UNL     1       1.862  16.613  22.697  0.00  0.00    +0.000 A 
ATOM     12  C   UNL     1       1.815  15.452  22.043  0.00  0.00    +0.000 A 
ATOM     13  C   UNL     1       0.518  14.692  22.008  0.00  0.00    +0.000 A 
ATOM     14  N   UNL     1       0.451  13.499  21.318  0.00  0.00    +0.000 N 
ATOM     15  C   UNL     1       0.890  13.425  19.925  0.00  0.00    +0.000 C 
ATOM     16  C   UNL     1      -0.160  12.777  19.029  0.00  0.00    +0.000 C 
ATOM     17  C   UNL     1      -0.749  11.475  19.590  0.00  0.00    +0.000 C 
ATOM     18  C   UNL     1      -1.255  11.717  21.018  0.00  0.00    +0.000 C 
ATOM     19  C   UNL     1      -0.218  12.349  21.935  0.00  0.00    +0.000 C 
ATOM     20  N   UNL     1      -0.566  15.105  22.608  0.00  0.00    +0.000 NA
ATOM     21  N   UNL     1      -0.438  16.309  23.225  0.00  0.00    +0.000 N 
BRANCH   7  23
ATOM     22  C   UNL     1      -3.630  17.430  23.355  0.00  0.00    +0.000 C 
ATOM     23  O   UNL     1      -2.674  16.589  23.981  0.00  0.00    +0.000 OA
ENDBRANCH   7  23
ENDBRANCH   1  17
BRANCH   4  24
ATOM     24  O   UNL     1       2.816   7.017  19.078  0.00  0.00    +0.000 OA
BRANCH  24  25
ATOM     25  C   UNL     1       2.416   5.837  19.785  0.00  0.00    +0.000 C 
BRANCH  25  26
ATOM     26  C   UNL     1       3.516   4.784  19.800  0.00  0.00    +0.000 C 
BRANCH  26  27
ATOM     27  C   UNL     1       4.839   5.379  19.275  0.00  0.00    +0.000 C 
BRANCH  27  28
ATOM     28  N   UNL     1       5.744   4.367  18.713  0.00  0.00    +0.000 NA
ATOM     29  C   UNL     1       5.103   3.482  17.717  0.00  0.00    +0.000 C 
ATOM     30  C   UNL     1       4.888   4.159  16.360  0.00  0.00    +0.000 C 
ATOM     31  N   UNL     1       6.132   4.727  15.867  0.00  0.00    +0.000 N 
ATOM     32  C   UNL     1       6.419   4.746  14.451  0.00  0.00    +0.000 C 
ATOM     33  C   UNL     1       6.906   5.496  16.732  0.00  0.00    +0.000 C 
ATOM     34  O   UNL     1       7.596   6.437  16.343  0.00  0.00    +0.000 OA
ATOM     35  C   UNL     1       7.023   4.894  18.154  0.00  0.00    +0.000 C 
ATOM     36  C   UNL     1       7.828   5.797  19.087  0.00  0.00    +0.000 C 
ENDBRANCH  27  28
ENDBRANCH  26  27
ENDBRANCH  25  26
ENDBRANCH  24  25
ENDBRANCH   4  24
TORSDOF 7
ENDMDL
MODEL 2
REMARK VINA RESULT:      -7.5      2.031      3.648
REMARK  Name = 
REMARK  10 active torsions:
REMARK  status: ('A' for Active; 'I' for Inactive)
REMARK    1  A    between atoms: C_1  and  O_2
REMARK    2  A    between atoms: O_2  and  C_3
REMARK    3  A    between atoms: C_13  and  C_14
REMARK    4  A    between atoms: C_17  and  O_18
REMARK    5  A    between atoms: O_18  and  C_19
REMARK    6  A    between atoms: C_19  and  C_20
REMARK    7  A    between atoms: C_20  and  C_21
REMARK    8  A    between atoms: C_21  and  N_22
REMARK    9  A    between atoms: N_25  and  C_26
REMARK   10  A    between atoms: C_29  and  C_30
REMARK                            x       y       z     vdW  Elec       q    Type
REMARK                         _______ _______ _______ _____ _____    ______ ____
ROOT
ATOM      1  C   UNL     1       1.340   8.718  18.914  0.00  0.00    +0.000 A 
ATOM      2  C   UNL     1       1.848   7.753  19.786  0.00  0.00    +0.000 A 
ATOM      3  C   UNL     1       2.982   7.015  19.481  0.00  0.00    +0.000 A 
ATOM      4  C   UNL     1       3.650   7.202  18.277  0.00  0.00    +0.000 A 
ATOM      5  C   UNL     1       3.159   8.154  17.382  0.00  0.00    +0.000 A 
ATOM      6  C   UNL     1       2.014   8.906  17.697  0.00  0.00    +0.000 A 
ENDROOT
BRANCH   1  17
ATOM      7  C   UNL     1      -1.441  14.770  23.713  0.00  0.00    +0.000 A 
ATOM      8  N   UNL     1      -1.267  16.019  24.079  0.00  0.00    +0.000 NA
ATOM      9  N   UNL     1      -0.136  16.488  23.438  0.00  0.00    +0.000 NA
ATOM     10  C   UNL     1       0.341  15.508  22.698  0.00  0.00    +0.000 A 
ATOM     11  C   UNL     1       1.455  15.404  21.841  0.00  0.00    +0.000 A 
ATOM     12  C   UNL     1       1.659  14.260  21.186  0.00  0.00    +0.000 A 
ATOM     13  C   UNL     1       0.713  13.115  21.417  0.00  0.00    +0.000 A 
ATOM     14  N   UNL     1       0.902  11.933  20.731  0.00  0.00    +0.000 N 
ATOM     15  C   UNL     1       1.035  11.935  19.275  0.00  0.00    +0.000 C 
ATOM     16  C   UNL     1       0.096  10.932  18.614  0.00  0.00    +0.000 C 
ATOM     17  C   UNL     1       0.108   9.539  19.260  0.00  0.00    +0.000 C 
ATOM     18  C   UNL     1      -0.136   9.675  20.769  0.00  0.00    +0.000 C 
ATOM     19  C   UNL     1       0.801  10.659  21.453  0.00  0.00    +0.000 C 
ATOM     20  N   UNL     1      -0.294  13.178  22.247  0.00  0.00    +0.000 NA
ATOM     21  N   UNL     1      -0.446  14.387  22.847  0.00  0.00    +0.000 N 
BRANCH   7  23
ATOM     22  C   UNL     1      -3.725  14.535  23.996  0.00  0.00    +0.000 C 
ATOM     23  O   UNL     1      -2.433  13.953  24.077  0.00  0.00    +0.000 OA
ENDBRANCH   7  23
ENDBRANCH   1  17
BRANCH   4  24
ATOM     24  O   UNL     1       4.774   6.502  17.905  0.00  0.00    +0.000 OA
BRANCH  24  25
ATOM     25  C   UNL     1       4.692   5.968  16.577  0.00  0.00    +0.000 C 
BRANCH  25  26
ATOM     26  C   UNL     1       4.571   4.450  16.583  0.00  0.00    +0.000 C 
BRANCH  26  27
ATOM     27  C   UNL     1       4.377   3.929  18.023  0.00  0.00    +0.000 C 
BRANCH  27  28
ATOM     28  N   UNL     1       3.400   2.836  18.114  0.00  0.00    +0.000 NA
ATOM     29  C   UNL     1       3.790   1.766  19.058  0.00  0.00    +0.000 C 
ATOM     30  C   UNL     1       3.605   2.161  20.526  0.00  0.00    +0.000 C 
ATOM     31  N   UNL     1       2.251   2.634  20.764  0.00  0.00    +0.000 N 
ATOM     32  C   UNL     1       1.596   2.378  22.026  0.00  0.00    +0.000 C 
ATOM     33  C   UNL     1       1.704   3.566  19.886  0.00  0.00    +0.000 C 
ATOM     34  O   UNL     1       0.894   4.419  20.247  0.00  0.00    +0.000 OA
ATOM     35  C   UNL     1       1.996   3.256  18.397  0.00  0.00    +0.000 C 
ATOM     36  C   UNL     1       1.431   4.332  17.472  0.00  0.00    +0.000 C 
ENDBRANCH  27  28
ENDBRANCH  26  27
ENDBRANCH  25  26
ENDBRANCH  24  25
ENDBRANCH   4  24
TORSDOF 7
ENDMDL
MODEL 3
REMARK VINA RESULT:      -7.5      0.636      1.020
REMARK  Name = 
REMARK  10 active torsions:
REMARK  status: ('A' for Active; 'I' for Inactive)
REMARK    1  A    between atoms: C_1  and  O_2
REMARK    2  A    between atoms: O_2  and  C_3
REMARK    3  A    between atoms: C_13  and  C_14
REMARK    4  A    between atoms: C_17  and  O_18
REMARK    5  A    between atoms: O_18  and  C_19
REMARK    6  A    between atoms: C_19  and  C_20
REMARK    7  A    between atoms: C_20  and  C_21
REMARK    8  A    between atoms: C_21  and  N_22
REMARK    9  A    between atoms: N_25  and  C_26
REMARK   10  A    between atoms: C_29  and  C_30
REMARK                            x       y       z     vdW  Elec       q    Type
REMARK                         _______ _______ _______ _____ _____    ______ ____
ROOT
ATOM      1  C   UNL     1       0.660  10.457  18.990  0.00  0.00    +0.000 A 
ATOM      2  C   UNL     1       1.470  10.246  17.873  0.00  0.00    +0.000 A 
ATOM      3  C   UNL     1       2.222   9.091  17.721  0.00  0.00    +0.000 A 
ATOM      4  C   UNL     1       2.207   8.099  18.695  0.00  0.00    +0.000 A 
ATOM      5  C   UNL     1       1.414   8.288  19.828  0.00  0.00    +0.000 A 
ATOM      6  C   UNL     1       0.646   9.456  19.974  0.00  0.00    +0.000 A 
ENDROOT
BRANCH   1  17
ATOM      7  C   UNL     1      -0.605  17.021  23.754  0.00  0.00    +0.000 A 
ATOM      8  N   UNL     1      -0.046  18.070  24.311  0.00  0.00    +0.000 NA
ATOM      9  N   UNL     1       1.305  18.028  24.018  0.00  0.00    +0.000 NA
ATOM     10  C   UNL     1       1.523  16.953  23.288  0.00  0.00    +0.000 A 
ATOM     11  C   UNL     1       2.684  16.403  22.708  0.00  0.00    +0.000 A 
ATOM     12  C   UNL     1       2.574  15.294  21.976  0.00  0.00    +0.000 A 
ATOM     13  C   UNL     1       1.222  14.654  21.829  0.00  0.00    +0.000 A 
ATOM     14  N   UNL     1       1.092  13.517  21.058  0.00  0.00    +0.000 N 
ATOM     15  C   UNL     1       1.597  13.491  19.686  0.00  0.00    +0.000 C 
ATOM     16  C   UNL     1       0.546  12.995  18.699  0.00  0.00    +0.000 C 
ATOM     17  C   UNL     1      -0.179  11.716  19.144  0.00  0.00    +0.000 C 
ATOM     18  C   UNL     1      -0.739  11.913  20.558  0.00  0.00    +0.000 C 
ATOM     19  C   UNL     1       0.296  12.393  21.564  0.00  0.00    +0.000 C 
ATOM     20  N   UNL     1       0.146  15.122  22.402  0.00  0.00    +0.000 NA
ATOM     21  N   UNL     1       0.341  16.269  23.103  0.00  0.00    +0.000 N 
BRANCH   7  23
ATOM     22  C   UNL     1      -2.722  17.546  22.984  0.00  0.00    +0.000 C 
ATOM     23  O   UNL     1      -1.901  16.695  23.768  0.00  0.00    +0.000 OA
ENDBRANCH   7  23
ENDBRANCH   1  17
BRANCH   4  24
ATOM     24  O   UNL     1       2.933   6.934  18.616  0.00  0.00    +0.000 OA
BRANCH  24  25
ATOM     25  C   UNL     1       2.467   5.917  19.511  0.00  0.00    +0.000 C 
BRANCH  25  26
ATOM     26  C   UNL     1       3.591   4.987  19.948  0.00  0.00    +0.000 C 
BRANCH  26  27
ATOM     27  C   UNL     1       4.933   5.437  19.335  0.00  0.00    +0.000 C 
BRANCH  27  28
ATOM     28  N   UNL     1       5.708   4.328  18.763  0.00  0.00    +0.000 NA
ATOM     29  C   UNL     1       4.913   3.432  17.894  0.00  0.00    +0.000 C 
ATOM     30  C   UNL     1       4.613   4.036  16.520  0.00  0.00    +0.000 C 
ATOM     31  N   UNL     1       5.838   4.479  15.874  0.00  0.00    +0.000 N 
ATOM     32  C   UNL     1       5.986   4.387  14.440  0.00  0.00    +0.000 C 
ATOM     33  C   UNL     1       6.743   5.241  16.608  0.00  0.00    +0.000 C 
ATOM     34  O   UNL     1       7.454   6.101  16.091  0.00  0.00    +0.000 OA
ATOM     35  C   UNL     1       6.959   4.722  18.051  0.00  0.00    +0.000 C 
ATOM     36  C   UNL     1       7.911   5.620  18.840  0.00  0.00    +0.000 C 
ENDBRANCH  27  28
ENDBRANCH  26  27
ENDBRANCH  25  26
ENDBRANCH  24  25
ENDBRANCH   4  24
TORSDOF 7
ENDMDL
MODEL 4
REMARK VINA RESULT:      -7.4      2.606      3.385
REMARK  Name = 
REMARK  10 active torsions:
REMARK  status: ('A' for Active; 'I' for Inactive)
REMARK    1  A    between atoms: C_1  and  O_2
REMARK    2  A    between atoms: O_2  and  C_3
REMARK    3  A    between atoms: C_13  and  C_14
REMARK    4  A    between atoms: C_17  and  O_18
REMARK    5  A    between atoms: O_18  and  C_19
REMARK    6  A    between atoms: C_19  and  C_20
REMARK    7  A    between atoms: C_20  and  C_21
REMARK    8  A    between atoms: C_21  and  N_22
REMARK    9  A    between atoms: N_25  and  C_26
REMARK   10  A    between atoms: C_29  and  C_30
REMARK                            x       y       z     vdW  Elec       q    Type
REMARK                         _______ _______ _______ _____ _____    ______ ____
ROOT
ATOM      1  C   UNL     1       0.826  10.816  19.617  0.00  0.00    +0.000 A 
ATOM      2  C   UNL     1       1.348  10.280  18.438  0.00  0.00    +0.000 A 
ATOM      3  C   UNL     1       1.823   8.979  18.372  0.00  0.00    +0.000 A 
ATOM      4  C   UNL     1       1.811   8.160  19.495  0.00  0.00    +0.000 A 
ATOM      5  C   UNL     1       1.304   8.672  20.690  0.00  0.00    +0.000 A 
ATOM      6  C   UNL     1       0.815   9.988  20.751  0.00  0.00    +0.000 A 
ENDROOT
BRANCH   1  17
ATOM      7  C   UNL     1      -5.697  15.329  21.729  0.00  0.00    +0.000 A 
ATOM      8  N   UNL     1      -6.528  15.631  22.700  0.00  0.00    +0.000 NA
ATOM      9  N   UNL     1      -6.207  14.838  23.786  0.00  0.00    +0.000 NA
ATOM     10  C   UNL     1      -5.186  14.079  23.440  0.00  0.00    +0.000 A 
ATOM     11  C   UNL     1      -4.445  13.095  24.123  0.00  0.00    +0.000 A 
ATOM     12  C   UNL     1      -3.419  12.514  23.500  0.00  0.00    +0.000 A 
ATOM     13  C   UNL     1      -3.117  12.906  22.081  0.00  0.00    +0.000 A 
ATOM     14  N   UNL     1      -2.047  12.327  21.431  0.00  0.00    +0.000 N 
ATOM     15  C   UNL     1      -0.718  12.334  22.043  0.00  0.00    +0.000 C 
ATOM     16  C   UNL     1       0.348  12.855  21.086  0.00  0.00    +0.000 C 
ATOM     17  C   UNL     1       0.288  12.237  19.681  0.00  0.00    +0.000 C 
ATOM     18  C   UNL     1      -1.133  12.381  19.121  0.00  0.00    +0.000 C 
ATOM     19  C   UNL     1      -2.213  11.853  20.053  0.00  0.00    +0.000 C 
ATOM     20  N   UNL     1      -3.827  13.779  21.417  0.00  0.00    +0.000 NA
ATOM     21  N   UNL     1      -4.832  14.344  22.135  0.00  0.00    +0.000 N 
BRANCH   7  23
ATOM     22  C   UNL     1      -4.969  17.131  20.474  0.00  0.00    +0.000 C 
ATOM     23  O   UNL     1      -5.642  15.882  20.514  0.00  0.00    +0.000 OA
ENDBRANCH   7  23
ENDBRANCH   1  17
BRANCH   4  24
ATOM     24  O   UNL     1       2.273   6.864  19.505  0.00  0.00    +0.000 OA
BRANCH  24  25
ATOM     25  C   UNL     1       2.580   6.364  18.197  0.00  0.00    +0.000 C 
BRANCH  25  26
ATOM     26  C   UNL     1       4.081   6.243  17.975  0.00  0.00    +0.000 C 
BRANCH  26  27
ATOM     27  C   UNL     1       4.756   5.583  19.195  0.00  0.00    +0.000 C 
BRANCH  27  28
ATOM     28  N   UNL     1       5.658   4.482  18.830  0.00  0.00    +0.000 NA
ATOM     29  C   UNL     1       5.015   3.431  18.013  0.00  0.00    +0.000 C 
ATOM     30  C   UNL     1       4.801   3.847  16.554  0.00  0.00    +0.000 C 
ATOM     31  N   UNL     1       6.047   4.311  15.966  0.00  0.00    +0.000 N 
ATOM     32  C   UNL     1       6.334   4.068  14.571  0.00  0.00    +0.000 C 
ATOM     33  C   UNL     1       6.823   5.224  16.675  0.00  0.00    +0.000 C 
ATOM     34  O   UNL     1       7.516   6.075  16.120  0.00  0.00    +0.000 OA
ATOM     35  C   UNL     1       6.939   4.894  18.183  0.00  0.00    +0.000 C 
ATOM     36  C   UNL     1       7.746   5.951  18.935  0.00  0.00    +0.000 C 
ENDBRANCH  27  28
ENDBRANCH  26  27
ENDBRANCH  25  26
ENDBRANCH  24  25
ENDBRANCH   4  24
TORSDOF 7
ENDMDL
MODEL 5
REMARK VINA RESULT:      -7.3      2.993      3.681
REMARK  Name = 
REMARK  10 active torsions:
REMARK  status: ('A' for Active; 'I' for Inactive)
REMARK    1  A    between atoms: C_1  and  O_2
REMARK    2  A    between atoms: O_2  and  C_3
REMARK    3  A    between atoms: C_13  and  C_14
REMARK    4  A    between atoms: C_17  and  O_18
REMARK    5  A    between atoms: O_18  and  C_19
REMARK    6  A    between atoms: C_19  and  C_20
REMARK    7  A    between atoms: C_20  and  C_21
REMARK    8  A    between atoms: C_21  and  N_22
REMARK    9  A    between atoms: N_25  and  C_26
REMARK   10  A    between atoms: C_29  and  C_30
REMARK                            x       y       z     vdW  Elec       q    Type
REMARK                         _______ _______ _______ _____ _____    ______ ____
ROOT
ATOM      1  C   UNL     1       1.085  10.292  19.412  0.00  0.00    +0.000 A 
ATOM      2  C   UNL     1       0.999   9.509  20.565  0.00  0.00    +0.000 A 
ATOM      3  C   UNL     1       1.478   8.208  20.604  0.00  0.00    +0.000 A 
ATOM      4  C   UNL     1       2.053   7.627  19.480  0.00  0.00    +0.000 A 
ATOM      5  C   UNL     1       2.143   8.384  18.311  0.00  0.00    +0.000 A 
ATOM      6  C   UNL     1       1.665   9.705  18.277  0.00  0.00    +0.000 A 
ENDROOT
BRANCH   1  17
ATOM      7  C   UNL     1      -5.240  15.113  21.447  0.00  0.00    +0.000 A 
ATOM      8  N   UNL     1      -6.014  15.515  22.428  0.00  0.00    +0.000 NA
ATOM      9  N   UNL     1      -5.652  14.811  23.561  0.00  0.00    +0.000 NA
ATOM     10  C   UNL     1      -4.664  14.003  23.232  0.00  0.00    +0.000 A 
ATOM     11  C   UNL     1      -3.906  13.065  23.960  0.00  0.00    +0.000 A 
ATOM     12  C   UNL     1      -2.924  12.409  23.339  0.00  0.00    +0.000 A 
ATOM     13  C   UNL     1      -2.688  12.673  21.878  0.00  0.00    +0.000 A 
ATOM     14  N   UNL     1      -1.663  12.016  21.229  0.00  0.00    +0.000 N 
ATOM     15  C   UNL     1      -0.305  12.045  21.771  0.00  0.00    +0.000 C 
ATOM     16  C   UNL     1       0.720  12.459  20.721  0.00  0.00    +0.000 C 
ATOM     17  C   UNL     1       0.577  11.725  19.379  0.00  0.00    +0.000 C 
ATOM     18  C   UNL     1      -0.868  11.852  18.880  0.00  0.00    +0.000 C 
ATOM     19  C   UNL     1      -1.909  11.430  19.907  0.00  0.00    +0.000 C 
ATOM     20  N   UNL     1      -3.415  13.501  21.177  0.00  0.00    +0.000 NA
ATOM     21  N   UNL     1      -4.372  14.147  21.893  0.00  0.00    +0.000 N 
BRANCH   7  23
ATOM     22  C   UNL     1      -4.709  16.867  20.035  0.00  0.00    +0.000 C 
ATOM     23  O   UNL     1      -5.236  15.558  20.187  0.00  0.00    +0.000 OA
ENDBRANCH   7  23
ENDBRANCH   1  17
BRANCH   4  24
ATOM     24  O   UNL     1       2.540   6.342  19.443  0.00  0.00    +0.000 OA
BRANCH  24  25
ATOM     25  C   UNL     1       1.736   5.412  20.180  0.00  0.00    +0.000 C 
BRANCH  25  26
ATOM     26  C   UNL     1       2.543   4.208  20.645  0.00  0.00    +0.000 C 
BRANCH  26  27
ATOM     27  C   UNL     1       1.823   2.897  20.269  0.00  0.00    +0.000 C 
BRANCH  27  28
ATOM     28  N   UNL     1       2.560   2.096  19.282  0.00  0.00    +0.000 NA
ATOM     29  C   UNL     1       2.129   2.325  17.886  0.00  0.00    +0.000 C 
ATOM     30  C   UNL     1       2.636   3.650  17.308  0.00  0.00    +0.000 C 
ATOM     31  N   UNL     1       4.077   3.758  17.460  0.00  0.00    +0.000 N 
ATOM     32  C   UNL     1       4.872   4.430  16.458  0.00  0.00    +0.000 C 
ATOM     33  C   UNL     1       4.644   3.461  18.697  0.00  0.00    +0.000 C 
ATOM     34  O   UNL     1       5.658   4.020  19.110  0.00  0.00    +0.000 OA
ATOM     35  C   UNL     1       4.047   2.196  19.361  0.00  0.00    +0.000 C 
ATOM     36  C   UNL     1       4.653   1.940  20.740  0.00  0.00    +0.000 C 
ENDBRANCH  27  28
ENDBRANCH  26  27
ENDBRANCH  25  26
ENDBRANCH  24  25
ENDBRANCH   4  24
TORSDOF 7
ENDMDL
MODEL 6
REMARK VINA RESULT:      -7.3      3.049      4.087
REMARK  Name = 
REMARK  10 active torsions:
REMARK  status: ('A' for Active; 'I' for Inactive)
REMARK    1  A    between atoms: C_1  and  O_2
REMARK    2  A    between atoms: O_2  and  C_3
REMARK    3  A    between atoms: C_13  and  C_14
REMARK    4  A    between atoms: C_17  and  O_18
REMARK    5  A    between atoms: O_18  and  C_19
REMARK    6  A    between atoms: C_19  and  C_20
REMARK    7  A    between atoms: C_20  and  C_21
REMARK    8  A    between atoms: C_21  and  N_22
REMARK    9  A    between atoms: N_25  and  C_26
REMARK   10  A    between atoms: C_29  and  C_30
REMARK                            x       y       z     vdW  Elec       q    Type
REMARK                         _______ _______ _______ _____ _____    ______ ____
ROOT
ATOM      1  C   UNL     1       0.041  11.218  21.486  0.00  0.00    +0.000 A 
ATOM      2  C   UNL     1      -0.006  10.203  22.444  0.00  0.00    +0.000 A 
ATOM      3  C   UNL     1       0.385   8.904  22.154  0.00  0.00    +0.000 A 
ATOM      4  C   UNL     1       0.826   8.562  20.881  0.00  0.00    +0.000 A 
ATOM      5  C   UNL     1       0.874   9.555  19.901  0.00  0.00    +0.000 A 
ATOM      6  C   UNL     1       0.485  10.871  20.201  0.00  0.00    +0.000 A 
ENDROOT
BRANCH   1  17
ATOM      7  C   UNL     1      -6.237  16.503  21.291  0.00  0.00    +0.000 A 
ATOM      8  N   UNL     1      -7.476  16.717  21.670  0.00  0.00    +0.000 NA
ATOM      9  N   UNL     1      -7.916  15.579  22.320  0.00  0.00    +0.000 NA
ATOM     10  C   UNL     1      -6.926  14.708  22.318  0.00  0.00    +0.000 A 
ATOM     11  C   UNL     1      -6.794  13.401  22.826  0.00  0.00    +0.000 A 
ATOM     12  C   UNL     1      -5.625  12.774  22.695  0.00  0.00    +0.000 A 
ATOM     13  C   UNL     1      -4.503  13.475  21.979  0.00  0.00    +0.000 A 
ATOM     14  N   UNL     1      -3.282  12.846  21.855  0.00  0.00    +0.000 N 
ATOM     15  C   UNL     1      -2.605  12.303  23.032  0.00  0.00    +0.000 C 
ATOM     16  C   UNL     1      -1.158  12.772  23.126  0.00  0.00    +0.000 C 
ATOM     17  C   UNL     1      -0.370  12.646  21.814  0.00  0.00    +0.000 C 
ATOM     18  C   UNL     1      -1.145  13.336  20.684  0.00  0.00    +0.000 C 
ATOM     19  C   UNL     1      -2.589  12.872  20.562  0.00  0.00    +0.000 C 
ATOM     20  N   UNL     1      -4.626  14.666  21.458  0.00  0.00    +0.000 NA
ATOM     21  N   UNL     1      -5.838  15.244  21.663  0.00  0.00    +0.000 N 
BRANCH   7  23
ATOM     22  C   UNL     1      -6.075  18.533  20.193  0.00  0.00    +0.000 C 
ATOM     23  O   UNL     1      -5.430  17.357  20.655  0.00  0.00    +0.000 OA
ENDBRANCH   7  23
ENDBRANCH   1  17
BRANCH   4  24
ATOM     24  O   UNL     1       1.221   7.295  20.520  0.00  0.00    +0.000 OA
BRANCH  24  25
ATOM     25  C   UNL     1       2.350   7.285  19.637  0.00  0.00    +0.000 C 
BRANCH  25  26
ATOM     26  C   UNL     1       2.972   5.900  19.528  0.00  0.00    +0.000 C 
BRANCH  26  27
ATOM     27  C   UNL     1       4.345   5.978  18.829  0.00  0.00    +0.000 C 
BRANCH  27  28
ATOM     28  N   UNL     1       5.005   4.671  18.706  0.00  0.00    +0.000 NA
ATOM     29  C   UNL     1       4.282   3.718  17.837  0.00  0.00    +0.000 C 
ATOM     30  C   UNL     1       4.436   4.026  16.345  0.00  0.00    +0.000 C 
ATOM     31  N   UNL     1       5.841   4.135  15.986  0.00  0.00    +0.000 N 
ATOM     32  C   UNL     1       6.303   3.698  14.690  0.00  0.00    +0.000 C 
ATOM     33  C   UNL     1       6.676   4.914  16.783  0.00  0.00    +0.000 C 
ATOM     34  O   UNL     1       7.640   5.527  16.329  0.00  0.00    +0.000 OA
ATOM     35  C   UNL     1       6.441   4.716  18.301  0.00  0.00    +0.000 C 
ATOM     36  C   UNL     1       7.333   5.631  19.138  0.00  0.00    +0.000 C 
ENDBRANCH  27  28
ENDBRANCH  26  27
ENDBRANCH  25  26
ENDBRANCH  24  25
ENDBRANCH   4  24
TORSDOF 7
ENDMDL
MODEL 7
REMARK VINA RESULT:      -7.3      1.922      2.223
REMARK  Name = 
REMARK  10 active torsions:
REMARK  status: ('A' for Active; 'I' for Inactive)
REMARK    1  A    between atoms: C_1  and  O_2
REMARK    2  A    between atoms: O_2  and  C_3
REMARK    3  A    between atoms: C_13  and  C_14
REMARK    4  A    between atoms: C_17  and  O_18
REMARK    5  A    between atoms: O_18  and  C_19
REMARK    6  A    between atoms: C_19  and  C_20
REMARK    7  A    between atoms: C_20  and  C_21
REMARK    8  A    between atoms: C_21  and  N_22
REMARK    9  A    between atoms: N_25  and  C_26
REMARK   10  A    between atoms: C_29  and  C_30
REMARK                            x       y       z     vdW  Elec       q    Type
REMARK                         _______ _______ _______ _____ _____    ______ ____
ROOT
ATOM      1  C   UNL     1       0.735  10.293  18.940  0.00  0.00    +0.000 A 
ATOM      2  C   UNL     1       0.687   9.674  20.191  0.00  0.00    +0.000 A 
ATOM      3  C   UNL     1       1.367   8.494  20.450  0.00  0.00    +0.000 A 
ATOM      4  C   UNL     1       2.115   7.871  19.458  0.00  0.00    +0.000 A 
ATOM      5  C   UNL     1       2.173   8.463  18.196  0.00  0.00    +0.000 A 
ATOM      6  C   UNL     1       1.490   9.663  17.938  0.00  0.00    +0.000 A 
ENDROOT
BRANCH   1  17
ATOM      7  C   UNL     1      -4.547  15.712  22.121  0.00  0.00    +0.000 A 
ATOM      8  N   UNL     1      -4.791  16.509  23.136  0.00  0.00    +0.000 NA
ATOM      9  N   UNL     1      -3.780  16.327  24.061  0.00  0.00    +0.000 NA
ATOM     10  C   UNL     1      -2.949  15.426  23.576  0.00  0.00    +0.000 A 
ATOM     11  C   UNL     1      -1.760  14.851  24.066  0.00  0.00    +0.000 A 
ATOM     12  C   UNL     1      -1.111  13.968  23.306  0.00  0.00    +0.000 A 
ATOM     13  C   UNL     1      -1.693  13.595  21.972  0.00  0.00    +0.000 A 
ATOM     14  N   UNL     1      -1.021  12.697  21.167  0.00  0.00    +0.000 N 
ATOM     15  C   UNL     1       0.389  12.908  20.841  0.00  0.00    +0.000 C 
ATOM     16  C   UNL     1       0.648  12.817  19.341  0.00  0.00    +0.000 C 
ATOM     17  C   UNL     1       0.004  11.598  18.665  0.00  0.00    +0.000 C 
ATOM     18  C   UNL     1      -1.489  11.551  19.013  0.00  0.00    +0.000 C 
ATOM     19  C   UNL     1      -1.771  11.624  20.506  0.00  0.00    +0.000 C 
ATOM     20  N   UNL     1      -2.821  14.080  21.525  0.00  0.00    +0.000 NA
ATOM     21  N   UNL     1      -3.400  14.993  22.348  0.00  0.00    +0.000 N 
BRANCH   7  23
ATOM     22  C   UNL     1      -6.220  16.624  20.809  0.00  0.00    +0.000 C 
ATOM     23  O   UNL     1      -5.261  15.595  20.997  0.00  0.00    +0.000 OA
ENDBRANCH   7  23
ENDBRANCH   1  17
BRANCH   4  24
ATOM     24  O   UNL     1       2.808   6.697  19.641  0.00  0.00    +0.000 OA
BRANCH  24  25
ATOM     25  C   UNL     1       2.402   5.657  18.742  0.00  0.00    +0.000 C 
BRANCH  25  26
ATOM     26  C   UNL     1       3.361   4.475  18.774  0.00  0.00    +0.000 C 
BRANCH  26  27
ATOM     27  C   UNL     1       4.804   4.956  19.035  0.00  0.00    +0.000 C 
BRANCH  27  28
ATOM     28  N   UNL     1       5.820   4.084  18.431  0.00  0.00    +0.000 NA
ATOM     29  C   UNL     1       5.314   3.268  17.306  0.00  0.00    +0.000 C 
ATOM     30  C   UNL     1       5.122   4.072  16.017  0.00  0.00    +0.000 C 
ATOM     31  N   UNL     1       6.341   4.785  15.670  0.00  0.00    +0.000 N 
ATOM     32  C   UNL     1       6.707   4.982  14.287  0.00  0.00    +0.000 C 
ATOM     33  C   UNL     1       6.997   5.511  16.661  0.00  0.00    +0.000 C 
ATOM     34  O   UNL     1       7.628   6.538  16.420  0.00  0.00    +0.000 OA
ATOM     35  C   UNL     1       7.082   4.766  18.016  0.00  0.00    +0.000 C 
ATOM     36  C   UNL     1       7.753   5.619  19.091  0.00  0.00    +0.000 C 
ENDBRANCH  27  28
ENDBRANCH  26  27
ENDBRANCH  25  26
ENDBRANCH  24  25
ENDBRANCH   4  24
TORSDOF 7
ENDMDL
MODEL 8
REMARK VINA RESULT:      -7.3      1.853      2.314
REMARK  Name = 
REMARK  10 active torsions:
REMARK  status: ('A' for Active; 'I' for Inactive)
REMARK    1  A    between atoms: C_1  and  O_2
REMARK    2  A    between atoms: O_2  and  C_3
REMARK    3  A    between atoms: C_13  and  C_14
REMARK    4  A    between atoms: C_17  and  O_18
REMARK    5  A    between atoms: O_18  and  C_19
REMARK    6  A    between atoms: C_19  and  C_20
REMARK    7  A    between atoms: C_20  and  C_21
REMARK    8  A    between atoms: C_21  and  N_22
REMARK    9  A    between atoms: N_25  and  C_26
REMARK   10  A    between atoms: C_29  and  C_30
REMARK                            x       y       z     vdW  Elec       q    Type
REMARK                         _______ _______ _______ _____ _____    ______ ____
ROOT
ATOM      1  C   UNL     1       0.383  10.324  18.816  0.00  0.00    +0.000 A 
ATOM      2  C   UNL     1       1.124   9.829  17.740  0.00  0.00    +0.000 A 
ATOM      3  C   UNL     1       1.997   8.762  17.882  0.00  0.00    +0.000 A 
ATOM      4  C   UNL     1       2.179   8.150  19.117  0.00  0.00    +0.000 A 
ATOM      5  C   UNL     1       1.458   8.630  20.212  0.00  0.00    +0.000 A 
ATOM      6  C   UNL     1       0.568   9.707  20.063  0.00  0.00    +0.000 A 
ENDROOT
BRANCH   1  17
ATOM      7  C   UNL     1      -4.729  15.293  22.885  0.00  0.00    +0.000 A 
ATOM      8  N   UNL     1      -4.836  16.152  23.872  0.00  0.00    +0.000 NA
ATOM      9  N   UNL     1      -3.611  16.207  24.513  0.00  0.00    +0.000 NA
ATOM     10  C   UNL     1      -2.796  15.379  23.891  0.00  0.00    +0.000 A 
ATOM     11  C   UNL     1      -1.448  15.024  24.092  0.00  0.00    +0.000 A 
ATOM     12  C   UNL     1      -0.877  14.160  23.251  0.00  0.00    +0.000 A 
ATOM     13  C   UNL     1      -1.706  13.573  22.143  0.00  0.00    +0.000 A 
ATOM     14  N   UNL     1      -1.122  12.693  21.255  0.00  0.00    +0.000 N 
ATOM     15  C   UNL     1       0.113  13.055  20.559  0.00  0.00    +0.000 C 
ATOM     16  C   UNL     1       0.003  12.841  19.053  0.00  0.00    +0.000 C 
ATOM     17  C   UNL     1      -0.589  11.482  18.652  0.00  0.00    +0.000 C 
ATOM     18  C   UNL     1      -1.923  11.272  19.380  0.00  0.00    +0.000 C 
ATOM     19  C   UNL     1      -1.834  11.465  20.886  0.00  0.00    +0.000 C 
ATOM     20  N   UNL     1      -2.970  13.852  21.974  0.00  0.00    +0.000 NA
ATOM     21  N   UNL     1      -3.463  14.762  22.855  0.00  0.00    +0.000 N 
BRANCH   7  23
ATOM     22  C   UNL     1      -6.998  15.104  22.480  0.00  0.00    +0.000 C 
ATOM     23  O   UNL     1      -5.671  14.963  21.998  0.00  0.00    +0.000 OA
ENDBRANCH   7  23
ENDBRANCH   1  17
BRANCH   4  24
ATOM     24  O   UNL     1       3.033   7.094  19.333  0.00  0.00    +0.000 OA
BRANCH  24  25
ATOM     25  C   UNL     1       2.381   5.819  19.271  0.00  0.00    +0.000 C 
BRANCH  25  26
ATOM     26  C   UNL     1       3.357   4.672  19.495  0.00  0.00    +0.000 C 
BRANCH  26  27
ATOM     27  C   UNL     1       4.812   5.168  19.365  0.00  0.00    +0.000 C 
BRANCH  27  28
ATOM     28  N   UNL     1       5.695   4.198  18.703  0.00  0.00    +0.000 NA
ATOM     29  C   UNL     1       5.024   3.400  17.654  0.00  0.00    +0.000 C 
ATOM     30  C   UNL     1       4.785   4.184  16.361  0.00  0.00    +0.000 C 
ATOM     31  N   UNL     1       6.022   4.781  15.886  0.00  0.00    +0.000 N 
ATOM     32  C   UNL     1       6.278   4.911  14.471  0.00  0.00    +0.000 C 
ATOM     33  C   UNL     1       6.822   5.474  16.792  0.00  0.00    +0.000 C 
ATOM     34  O   UNL     1       7.511   6.437  16.463  0.00  0.00    +0.000 OA
ATOM     35  C   UNL     1       6.966   4.759  18.158  0.00  0.00    +0.000 C 
ATOM     36  C   UNL     1       7.800   5.579  19.142  0.00  0.00    +0.000 C 
ENDBRANCH  27  28
ENDBRANCH  26  27
ENDBRANCH  25  26
ENDBRANCH  24  25
ENDBRANCH   4  24
TORSDOF 7
ENDMDL
MODEL 9
REMARK VINA RESULT:      -7.2      2.702      3.784
REMARK  Name = 
REMARK  10 active torsions:
REMARK  status: ('A' for Active; 'I' for Inactive)
REMARK    1  A    between atoms: C_1  and  O_2
REMARK    2  A    between atoms: O_2  and  C_3
REMARK    3  A    between atoms: C_13  and  C_14
REMARK    4  A    between atoms: C_17  and  O_18
REMARK    5  A    between atoms: O_18  and  C_19
REMARK    6  A    between atoms: C_19  and  C_20
REMARK    7  A    between atoms: C_20  and  C_21
REMARK    8  A    between atoms: C_21  and  N_22
REMARK    9  A    between atoms: N_25  and  C_26
REMARK   10  A    between atoms: C_29  and  C_30
REMARK                            x       y       z     vdW  Elec       q    Type
REMARK                         _______ _______ _______ _____ _____    ______ ____
ROOT
ATOM      1  C   UNL     1       0.898  11.008  20.421  0.00  0.00    +0.000 A 
ATOM      2  C   UNL     1       1.212  10.861  19.068  0.00  0.00    +0.000 A 
ATOM      3  C   UNL     1       1.594   9.640  18.533  0.00  0.00    +0.000 A 
ATOM      4  C   UNL     1       1.694   8.511  19.338  0.00  0.00    +0.000 A 
ATOM      5  C   UNL     1       1.395   8.631  20.696  0.00  0.00    +0.000 A 
ATOM      6  C   UNL     1       1.000   9.868  21.233  0.00  0.00    +0.000 A 
ENDROOT
BRANCH   1  17
ATOM      7  C   UNL     1      -5.283  16.404  20.668  0.00  0.00    +0.000 A 
ATOM      8  N   UNL     1      -6.556  16.570  20.943  0.00  0.00    +0.000 NA
ATOM      9  N   UNL     1      -7.075  15.334  21.279  0.00  0.00    +0.000 NA
ATOM     10  C   UNL     1      -6.097  14.454  21.201  0.00  0.00    +0.000 A 
ATOM     11  C   UNL     1      -6.033  13.065  21.426  0.00  0.00    +0.000 A 
ATOM     12  C   UNL     1      -4.860  12.444  21.295  0.00  0.00    +0.000 A 
ATOM     13  C   UNL     1      -3.659  13.247  20.877  0.00  0.00    +0.000 A 
ATOM     14  N   UNL     1      -2.435  12.621  20.757  0.00  0.00    +0.000 N 
ATOM     15  C   UNL     1      -1.903  11.819  21.859  0.00  0.00    +0.000 C 
ATOM     16  C   UNL     1      -0.473  12.213  22.212  0.00  0.00    +0.000 C 
ATOM     17  C   UNL     1       0.461  12.345  21.000  0.00  0.00    +0.000 C 
ATOM     18  C   UNL     1      -0.174  13.284  19.966  0.00  0.00    +0.000 C 
ATOM     19  C   UNL     1      -1.597  12.901  19.586  0.00  0.00    +0.000 C 
ATOM     20  N   UNL     1      -3.713  14.525  20.615  0.00  0.00    +0.000 NA
ATOM     21  N   UNL     1      -4.937  15.083  20.802  0.00  0.00    +0.000 N 
BRANCH   7  23
ATOM     22  C   UNL     1      -4.609  17.895  19.032  0.00  0.00    +0.000 C 
ATOM     23  O   UNL     1      -4.402  17.349  20.325  0.00  0.00    +0.000 OA
ENDBRANCH   7  23
ENDBRANCH   1  17
BRANCH   4  24
ATOM     24  O   UNL     1       2.074   7.272  18.879  0.00  0.00    +0.000 OA
BRANCH  24  25
ATOM     25  C   UNL     1       2.132   6.281  19.912  0.00  0.00    +0.000 C 
BRANCH  25  26
ATOM     26  C   UNL     1       3.427   5.482  19.859  0.00  0.00    +0.000 C 
BRANCH  26  27
ATOM     27  C   UNL     1       4.094   5.625  18.475  0.00  0.00    +0.000 C 
BRANCH  27  28
ATOM     28  N   UNL     1       5.018   4.526  18.164  0.00  0.00    +0.000 NA
ATOM     29  C   UNL     1       4.591   3.694  17.019  0.00  0.00    +0.000 C 
ATOM     30  C   UNL     1       4.815   4.372  15.664  0.00  0.00    +0.000 C 
ATOM     31  N   UNL     1       6.193   4.816  15.533  0.00  0.00    +0.000 N 
ATOM     32  C   UNL     1       6.852   4.792  14.249  0.00  0.00    +0.000 C 
ATOM     33  C   UNL     1       6.772   5.519  16.587  0.00  0.00    +0.000 C 
ATOM     34  O   UNL     1       7.626   6.387  16.412  0.00  0.00    +0.000 OA
ATOM     35  C   UNL     1       6.444   4.925  17.978  0.00  0.00    +0.000 C 
ATOM     36  C   UNL     1       7.048   5.760  19.107  0.00  0.00    +0.000 C 
ENDBRANCH  27  28
ENDBRANCH  26  27
ENDBRANCH  25  26
ENDBRANCH  24  25
ENDBRANCH   4  24
TORSDOF 7
ENDMDL
