MODEL 1
REMARK VINA RESULT:      -6.5      0.000      0.000
REMARK  Name = 
REMARK  6 active torsions:
REMARK  status: ('A' for Active; 'I' for Inactive)
REMARK    1  A    between atoms: C_2  and  C_3
REMARK    2  A    between atoms: C_3  and  N_4
REMARK    3  A    between atoms: C_5  and  C_7
REMARK    4  A    between atoms: C_7  and  C_8
REMARK    5  A    between atoms: C_9  and  C_10
REMARK    6  A    between atoms: C_9  and  C_11
REMARK                            x       y       z     vdW  Elec       q    Type
REMARK                         _______ _______ _______ _____ _____    ______ ____
ROOT
ATOM      1  C   UNL     1       5.558   5.777  16.688  0.00  0.00    +0.000 C 
ATOM      2  C   UNL     1       6.119   7.107  17.122  0.00  0.00    +0.000 C 
ATOM      3  C   UNL     1       4.380   5.291  17.164  0.00  0.00    +0.000 C 
ATOM      4  C   UNL     1       3.712   3.982  16.815  0.00  0.00    +0.000 C 
ENDROOT
BRANCH   3   5
ATOM      5  C   UNL     1       3.578   6.061  18.141  0.00  0.00    +0.000 A 
ATOM      6  C   UNL     1       3.055   7.316  17.803  0.00  0.00    +0.000 A 
ATOM      7  C   UNL     1       2.263   8.017  18.716  0.00  0.00    +0.000 A 
ATOM      8  C   UNL     1       1.998   7.465  19.970  0.00  0.00    +0.000 A 
ATOM      9 BR   UNL     1       0.924   8.412  21.204  0.00  0.00    +0.000 Br
ATOM     10  C   UNL     1       2.514   6.218  20.318  0.00  0.00    +0.000 A 
ATOM     11  C   UNL     1       3.302   5.516  19.403  0.00  0.00    +0.000 A 
ENDBRANCH   3   5
BRANCH   1  13
ATOM     12  N   UNL     1       5.934   4.791  14.484  0.00  0.00    +0.000 N 
ATOM     13  C   UNL     1       6.410   4.940  15.767  0.00  0.00    +0.000 C 
ATOM     14  O   UNL     1       7.471   4.450  16.131  0.00  0.00    +0.000 OA
ATOM     15  H   UNL     1       5.062   5.205  14.199  0.00  0.00    +0.000 HD
BRANCH  12  16
ATOM     16  C   UNL     1       6.619   3.958  13.515  0.00  0.00    +0.000 C 
BRANCH  16  18
ATOM     17  C   UNL     1       5.772   2.410  11.726  0.00  0.00    +0.000 C 
ATOM     18  C   UNL     1       5.634   3.509  12.480  0.00  0.00    +0.000 C 
ENDBRANCH  16  18
ENDBRANCH  12  16
ENDBRANCH   1  13
TORSDOF 4
ENDMDL
MODEL 2
REMARK VINA RESULT:      -6.4      3.298      5.231
REMARK  Name = 
REMARK  6 active torsions:
REMARK  status: ('A' for Active; 'I' for Inactive)
REMARK    1  A    between atoms: C_2  and  C_3
REMARK    2  A    between atoms: C_3  and  N_4
REMARK    3  A    between atoms: C_5  and  C_7
REMARK    4  A    between atoms: C_7  and  C_8
REMARK    5  A    between atoms: C_9  and  C_10
REMARK    6  A    between atoms: C_9  and  C_11
REMARK                            x       y       z     vdW  Elec       q    Type
REMARK                         _______ _______ _______ _____ _____    ______ ____
ROOT
ATOM      1  C   UNL     1       6.201   6.340  17.834  0.00  0.00    +0.000 C 
ATOM      2  C   UNL     1       6.454   5.535  19.082  0.00  0.00    +0.000 C 
ATOM      3  C   UNL     1       5.070   6.201  17.092  0.00  0.00    +0.000 C 
ATOM      4  C   UNL     1       4.697   6.939  15.828  0.00  0.00    +0.000 C 
ENDROOT
BRANCH   3   5
ATOM      5  C   UNL     1       4.013   5.241  17.486  0.00  0.00    +0.000 A 
ATOM      6  C   UNL     1       4.091   3.897  17.099  0.00  0.00    +0.000 A 
ATOM      7  C   UNL     1       3.112   2.989  17.510  0.00  0.00    +0.000 A 
ATOM      8  C   UNL     1       2.053   3.426  18.307  0.00  0.00    +0.000 A 
ATOM      9 BR   UNL     1       0.731   2.196  18.867  0.00  0.00    +0.000 Br
ATOM     10  C   UNL     1       1.964   4.760  18.697  0.00  0.00    +0.000 A 
ATOM     11  C   UNL     1       2.946   5.667  18.288  0.00  0.00    +0.000 A 
ENDBRANCH   3   5
BRANCH   1  13
ATOM     12  N   UNL     1       7.453   8.425  18.073  0.00  0.00    +0.000 N 
ATOM     13  C   UNL     1       7.308   7.252  17.368  0.00  0.00    +0.000 C 
ATOM     14  O   UNL     1       8.050   6.951  16.442  0.00  0.00    +0.000 OA
ATOM     15  H   UNL     1       6.838   8.655  18.837  0.00  0.00    +0.000 HD
BRANCH  12  16
ATOM     16  C   UNL     1       8.434   9.422  17.692  0.00  0.00    +0.000 C 
BRANCH  16  18
ATOM     17  C   UNL     1       9.867  11.042  18.971  0.00  0.00    +0.000 C 
ATOM     18  C   UNL     1       9.101   9.943  18.926  0.00  0.00    +0.000 C 
ENDBRANCH  16  18
ENDBRANCH  12  16
ENDBRANCH   1  13
TORSDOF 4
ENDMDL
MODEL 3
REMARK VINA RESULT:      -6.4      1.429      1.752
REMARK  Name = 
REMARK  6 active torsions:
REMARK  status: ('A' for Active; 'I' for Inactive)
REMARK    1  A    between atoms: C_2  and  C_3
REMARK    2  A    between atoms: C_3  and  N_4
REMARK    3  A    between atoms: C_5  and  C_7
REMARK    4  A    between atoms: C_7  and  C_8
REMARK    5  A    between atoms: C_9  and  C_10
REMARK    6  A    between atoms: C_9  and  C_11
REMARK                            x       y       z     vdW  Elec       q    Type
REMARK                         _______ _______ _______ _____ _____    ______ ____
ROOT
ATOM      1  C   UNL     1       4.239   5.821  17.282  0.00  0.00    +0.000 C 
ATOM      2  C   UNL     1       5.131   7.031  17.385  0.00  0.00    +0.000 C 
ATOM      3  C   UNL     1       2.978   5.797  17.791  0.00  0.00    +0.000 C 
ATOM      4  C   UNL     1       1.989   4.657  17.757  0.00  0.00    +0.000 C 
ENDROOT
BRANCH   3   5
ATOM      5  C   UNL     1       2.412   6.981  18.477  0.00  0.00    +0.000 A 
ATOM      6  C   UNL     1       2.040   8.118  17.748  0.00  0.00    +0.000 A 
ATOM      7  C   UNL     1       1.467   9.214  18.398  0.00  0.00    +0.000 A 
ATOM      8  C   UNL     1       1.271   9.175  19.779  0.00  0.00    +0.000 A 
ATOM      9 BR   UNL     1       0.492  10.656  20.658  0.00  0.00    +0.000 Br
ATOM     10  C   UNL     1       1.637   8.051  20.515  0.00  0.00    +0.000 A 
ATOM     11  C   UNL     1       2.206   6.953  19.864  0.00  0.00    +0.000 A 
ENDBRANCH   3   5
BRANCH   1  13
ATOM     12  N   UNL     1       5.609   4.775  15.549  0.00  0.00    +0.000 N 
ATOM     13  C   UNL     1       4.836   4.578  16.670  0.00  0.00    +0.000 C 
ATOM     14  O   UNL     1       4.666   3.469  17.160  0.00  0.00    +0.000 OA
ATOM     15  H   UNL     1       5.744   5.695  15.163  0.00  0.00    +0.000 HD
BRANCH  12  16
ATOM     16  C   UNL     1       6.189   3.662  14.823  0.00  0.00    +0.000 C 
BRANCH  16  18
ATOM     17  C   UNL     1       5.803   3.309  12.366  0.00  0.00    +0.000 C 
ATOM     18  C   UNL     1       6.302   4.032  13.377  0.00  0.00    +0.000 C 
ENDBRANCH  16  18
ENDBRANCH  12  16
ENDBRANCH   1  13
TORSDOF 4
ENDMDL
MODEL 4
REMARK VINA RESULT:      -6.4      0.465      1.274
REMARK  Name = 
REMARK  6 active torsions:
REMARK  status: ('A' for Active; 'I' for Inactive)
REMARK    1  A    between atoms: C_2  and  C_3
REMARK    2  A    between atoms: C_3  and  N_4
REMARK    3  A    between atoms: C_5  and  C_7
REMARK    4  A    between atoms: C_7  and  C_8
REMARK    5  A    between atoms: C_9  and  C_10
REMARK    6  A    between atoms: C_9  and  C_11
REMARK                            x       y       z     vdW  Elec       q    Type
REMARK                         _______ _______ _______ _____ _____    ______ ____
ROOT
ATOM      1  C   UNL     1       5.627   6.031  16.894  0.00  0.00    +0.000 C 
ATOM      2  C   UNL     1       6.133   7.345  17.429  0.00  0.00    +0.000 C 
ATOM      3  C   UNL     1       4.426   5.507  17.258  0.00  0.00    +0.000 C 
ATOM      4  C   UNL     1       3.806   4.208  16.800  0.00  0.00    +0.000 C 
ENDROOT
BRANCH   3   5
ATOM      5  C   UNL     1       3.542   6.219  18.209  0.00  0.00    +0.000 A 
ATOM      6  C   UNL     1       3.282   5.685  19.478  0.00  0.00    +0.000 A 
ATOM      7  C   UNL     1       2.481   6.383  20.384  0.00  0.00    +0.000 A 
ATOM      8  C   UNL     1       1.936   7.615  20.021  0.00  0.00    +0.000 A 
ATOM      9 BR   UNL     1       0.857   8.563  21.250  0.00  0.00    +0.000 Br
ATOM     10  C   UNL     1       2.187   8.157  18.762  0.00  0.00    +0.000 A 
ATOM     11  C   UNL     1       2.991   7.459  17.857  0.00  0.00    +0.000 A 
ENDBRANCH   3   5
BRANCH   1  13
ATOM     12  N   UNL     1       6.375   5.428  14.646  0.00  0.00    +0.000 N 
ATOM     13  C   UNL     1       6.556   5.250  15.999  0.00  0.00    +0.000 C 
ATOM     14  O   UNL     1       7.435   4.526  16.450  0.00  0.00    +0.000 OA
ATOM     15  H   UNL     1       5.651   6.032  14.291  0.00  0.00    +0.000 HD
BRANCH  12  16
ATOM     16  C   UNL     1       7.155   4.690  13.673  0.00  0.00    +0.000 C 
BRANCH  16  18
ATOM     17  C   UNL     1       6.368   3.150  11.850  0.00  0.00    +0.000 C 
ATOM     18  C   UNL     1       6.315   3.583  13.117  0.00  0.00    +0.000 C 
ENDBRANCH  16  18
ENDBRANCH  12  16
ENDBRANCH   1  13
TORSDOF 4
ENDMDL
MODEL 5
REMARK VINA RESULT:      -6.4      1.661      2.767
REMARK  Name = 
REMARK  6 active torsions:
REMARK  status: ('A' for Active; 'I' for Inactive)
REMARK    1  A    between atoms: C_2  and  C_3
REMARK    2  A    between atoms: C_3  and  N_4
REMARK    3  A    between atoms: C_5  and  C_7
REMARK    4  A    between atoms: C_7  and  C_8
REMARK    5  A    between atoms: C_9  and  C_10
REMARK    6  A    between atoms: C_9  and  C_11
REMARK                            x       y       z     vdW  Elec       q    Type
REMARK                         _______ _______ _______ _____ _____    ______ ____
ROOT
ATOM      1  C   UNL     1       3.210   4.991  17.621  0.00  0.00    +0.000 C 
ATOM      2  C   UNL     1       1.760   4.602  17.739  0.00  0.00    +0.000 C 
ATOM      3  C   UNL     1       3.663   6.231  17.951  0.00  0.00    +0.000 C 
ATOM      4  C   UNL     1       5.081   6.747  17.878  0.00  0.00    +0.000 C 
ENDROOT
BRANCH   3   5
ATOM      5  C   UNL     1       2.737   7.271  18.454  0.00  0.00    +0.000 A 
ATOM      6  C   UNL     1       2.318   7.266  19.791  0.00  0.00    +0.000 A 
ATOM      7  C   UNL     1       1.478   8.275  20.269  0.00  0.00    +0.000 A 
ATOM      8  C   UNL     1       1.052   9.287  19.407  0.00  0.00    +0.000 A 
ATOM      9 BR   UNL     1      -0.081  10.654  20.055  0.00  0.00    +0.000 Br
ATOM     10  C   UNL     1       1.460   9.301  18.076  0.00  0.00    +0.000 A 
ATOM     11  C   UNL     1       2.304   8.294  17.600  0.00  0.00    +0.000 A 
ENDBRANCH   3   5
BRANCH   1  13
ATOM     12  N   UNL     1       4.942   4.427  15.992  0.00  0.00    +0.000 N 
ATOM     13  C   UNL     1       4.148   3.974  17.021  0.00  0.00    +0.000 C 
ATOM     14  O   UNL     1       4.219   2.827  17.444  0.00  0.00    +0.000 OA
ATOM     15  H   UNL     1       4.876   5.375  15.660  0.00  0.00    +0.000 HD
BRANCH  12  16
ATOM     16  C   UNL     1       5.841   3.539  15.281  0.00  0.00    +0.000 C 
BRANCH  16  18
ATOM     17  C   UNL     1       6.100   3.574  12.782  0.00  0.00    +0.000 C 
ATOM     18  C   UNL     1       6.216   4.170  13.976  0.00  0.00    +0.000 C 
ENDBRANCH  16  18
ENDBRANCH  12  16
ENDBRANCH   1  13
TORSDOF 4
ENDMDL
MODEL 6
REMARK VINA RESULT:      -6.4      3.301      5.201
REMARK  Name = 
REMARK  6 active torsions:
REMARK  status: ('A' for Active; 'I' for Inactive)
REMARK    1  A    between atoms: C_2  and  C_3
REMARK    2  A    between atoms: C_3  and  N_4
REMARK    3  A    between atoms: C_5  and  C_7
REMARK    4  A    between atoms: C_7  and  C_8
REMARK    5  A    between atoms: C_9  and  C_10
REMARK    6  A    between atoms: C_9  and  C_11
REMARK                            x       y       z     vdW  Elec       q    Type
REMARK                         _______ _______ _______ _____ _____    ______ ____
ROOT
ATOM      1  C   UNL     1       6.266   6.308  17.881  0.00  0.00    +0.000 C 
ATOM      2  C   UNL     1       6.545   5.534  19.143  0.00  0.00    +0.000 C 
ATOM      3  C   UNL     1       5.123   6.147  17.162  0.00  0.00    +0.000 C 
ATOM      4  C   UNL     1       4.724   6.854  15.888  0.00  0.00    +0.000 C 
ENDROOT
BRANCH   3   5
ATOM      5  C   UNL     1       4.079   5.191  17.596  0.00  0.00    +0.000 A 
ATOM      6  C   UNL     1       3.012   5.616  18.399  0.00  0.00    +0.000 A 
ATOM      7  C   UNL     1       2.009   4.717  18.769  0.00  0.00    +0.000 A 
ATOM      8  C   UNL     1       2.075   3.391  18.340  0.00  0.00    +0.000 A 
ATOM      9 BR   UNL     1       0.715   2.176  18.838  0.00  0.00    +0.000 Br
ATOM     10  C   UNL     1       3.131   2.956  17.543  0.00  0.00    +0.000 A 
ATOM     11  C   UNL     1       4.132   3.857  17.170  0.00  0.00    +0.000 A 
ENDBRANCH   3   5
BRANCH   1  13
ATOM     12  N   UNL     1       7.558   8.372  18.093  0.00  0.00    +0.000 N 
ATOM     13  C   UNL     1       7.360   7.215  17.375  0.00  0.00    +0.000 C 
ATOM     14  O   UNL     1       8.048   6.923  16.405  0.00  0.00    +0.000 OA
ATOM     15  H   UNL     1       6.987   8.595  18.893  0.00  0.00    +0.000 HD
BRANCH  12  16
ATOM     16  C   UNL     1       8.531   9.364  17.680  0.00  0.00    +0.000 C 
BRANCH  16  18
ATOM     17  C   UNL     1       9.984  11.027  18.879  0.00  0.00    +0.000 C 
ATOM     18  C   UNL     1       9.008  10.108  18.888  0.00  0.00    +0.000 C 
ENDBRANCH  16  18
ENDBRANCH  12  16
ENDBRANCH   1  13
TORSDOF 4
ENDMDL
MODEL 7
REMARK VINA RESULT:      -6.3      1.466      2.152
REMARK  Name = 
REMARK  6 active torsions:
REMARK  status: ('A' for Active; 'I' for Inactive)
REMARK    1  A    between atoms: C_2  and  C_3
REMARK    2  A    between atoms: C_3  and  N_4
REMARK    3  A    between atoms: C_5  and  C_7
REMARK    4  A    between atoms: C_7  and  C_8
REMARK    5  A    between atoms: C_9  and  C_10
REMARK    6  A    between atoms: C_9  and  C_11
REMARK                            x       y       z     vdW  Elec       q    Type
REMARK                         _______ _______ _______ _____ _____    ______ ____
ROOT
ATOM      1  C   UNL     1       4.233   5.889  17.419  0.00  0.00    +0.000 C 
ATOM      2  C   UNL     1       5.098   7.116  17.547  0.00  0.00    +0.000 C 
ATOM      3  C   UNL     1       2.949   5.851  17.868  0.00  0.00    +0.000 C 
ATOM      4  C   UNL     1       1.981   4.694  17.804  0.00  0.00    +0.000 C 
ENDROOT
BRANCH   3   5
ATOM      5  C   UNL     1       2.331   7.035  18.509  0.00  0.00    +0.000 A 
ATOM      6  C   UNL     1       2.156   7.084  19.898  0.00  0.00    +0.000 A 
ATOM      7  C   UNL     1       1.610   8.222  20.498  0.00  0.00    +0.000 A 
ATOM      8  C   UNL     1       1.237   9.310  19.708  0.00  0.00    +0.000 A 
ATOM      9 BR   UNL     1       0.503  10.851  20.521  0.00  0.00    +0.000 Br
ATOM     10  C   UNL     1       1.405   9.272  18.326  0.00  0.00    +0.000 A 
ATOM     11  C   UNL     1       1.954   8.135  17.727  0.00  0.00    +0.000 A 
ENDBRANCH   3   5
BRANCH   1  13
ATOM     12  N   UNL     1       5.417   4.774  15.596  0.00  0.00    +0.000 N 
ATOM     13  C   UNL     1       4.878   4.648  16.856  0.00  0.00    +0.000 C 
ATOM     14  O   UNL     1       4.943   3.605  17.493  0.00  0.00    +0.000 OA
ATOM     15  H   UNL     1       5.361   5.641  15.088  0.00  0.00    +0.000 HD
BRANCH  12  16
ATOM     16  C   UNL     1       6.010   3.643  14.909  0.00  0.00    +0.000 C 
BRANCH  16  18
ATOM     17  C   UNL     1       5.849   3.380  12.416  0.00  0.00    +0.000 C 
ATOM     18  C   UNL     1       6.302   4.033  13.494  0.00  0.00    +0.000 C 
ENDBRANCH  16  18
ENDBRANCH  12  16
ENDBRANCH   1  13
TORSDOF 4
ENDMDL
MODEL 8
REMARK VINA RESULT:      -6.3      1.678      2.555
REMARK  Name = 
REMARK  6 active torsions:
REMARK  status: ('A' for Active; 'I' for Inactive)
REMARK    1  A    between atoms: C_2  and  C_3
REMARK    2  A    between atoms: C_3  and  N_4
REMARK    3  A    between atoms: C_5  and  C_7
REMARK    4  A    between atoms: C_7  and  C_8
REMARK    5  A    between atoms: C_9  and  C_10
REMARK    6  A    between atoms: C_9  and  C_11
REMARK                            x       y       z     vdW  Elec       q    Type
REMARK                         _______ _______ _______ _____ _____    ______ ____
ROOT
ATOM      1  C   UNL     1       3.232   5.066  17.709  0.00  0.00    +0.000 C 
ATOM      2  C   UNL     1       1.781   4.677  17.822  0.00  0.00    +0.000 C 
ATOM      3  C   UNL     1       3.679   6.314  18.016  0.00  0.00    +0.000 C 
ATOM      4  C   UNL     1       5.096   6.831  17.945  0.00  0.00    +0.000 C 
ENDROOT
BRANCH   3   5
ATOM      5  C   UNL     1       2.747   7.362  18.490  0.00  0.00    +0.000 A 
ATOM      6  C   UNL     1       2.283   8.352  17.614  0.00  0.00    +0.000 A 
ATOM      7  C   UNL     1       1.370   9.312  18.058  0.00  0.00    +0.000 A 
ATOM      8  C   UNL     1       0.925   9.285  19.380  0.00  0.00    +0.000 A 
ATOM      9 BR   UNL     1      -0.313  10.582  19.979  0.00  0.00    +0.000 Br
ATOM     10  C   UNL     1       1.380   8.306  20.261  0.00  0.00    +0.000 A 
ATOM     11  C   UNL     1       2.289   7.344  19.814  0.00  0.00    +0.000 A 
ENDBRANCH   3   5
BRANCH   1  13
ATOM     12  N   UNL     1       4.847   4.412  15.995  0.00  0.00    +0.000 N 
ATOM     13  C   UNL     1       4.177   4.039  17.138  0.00  0.00    +0.000 C 
ATOM     14  O   UNL     1       4.357   2.954  17.676  0.00  0.00    +0.000 OA
ATOM     15  H   UNL     1       4.692   5.311  15.569  0.00  0.00    +0.000 HD
BRANCH  12  16
ATOM     16  C   UNL     1       5.735   3.498  15.305  0.00  0.00    +0.000 C 
BRANCH  16  18
ATOM     17  C   UNL     1       6.043   3.551  12.812  0.00  0.00    +0.000 C 
ATOM     18  C   UNL     1       6.170   4.124  14.017  0.00  0.00    +0.000 C 
ENDBRANCH  16  18
ENDBRANCH  12  16
ENDBRANCH   1  13
TORSDOF 4
ENDMDL
MODEL 9
REMARK VINA RESULT:      -6.2      3.424      5.207
REMARK  Name = 
REMARK  6 active torsions:
REMARK  status: ('A' for Active; 'I' for Inactive)
REMARK    1  A    between atoms: C_2  and  C_3
REMARK    2  A    between atoms: C_3  and  N_4
REMARK    3  A    between atoms: C_5  and  C_7
REMARK    4  A    between atoms: C_7  and  C_8
REMARK    5  A    between atoms: C_9  and  C_10
REMARK    6  A    between atoms: C_9  and  C_11
REMARK                            x       y       z     vdW  Elec       q    Type
REMARK                         _______ _______ _______ _____ _____    ______ ____
ROOT
ATOM      1  C   UNL     1       5.979   6.553  17.318  0.00  0.00    +0.000 C 
ATOM      2  C   UNL     1       4.859   6.744  16.329  0.00  0.00    +0.000 C 
ATOM      3  C   UNL     1       5.882   5.705  18.377  0.00  0.00    +0.000 C 
ATOM      4  C   UNL     1       6.922   5.425  19.436  0.00  0.00    +0.000 C 
ENDROOT
BRANCH   3   5
ATOM      5  C   UNL     1       4.653   4.911  18.607  0.00  0.00    +0.000 A 
ATOM      6  C   UNL     1       3.686   5.343  19.523  0.00  0.00    +0.000 A 
ATOM      7  C   UNL     1       2.510   4.610  19.702  0.00  0.00    +0.000 A 
ATOM      8  C   UNL     1       2.303   3.442  18.968  0.00  0.00    +0.000 A 
ATOM      9 BR   UNL     1       0.710   2.453  19.208  0.00  0.00    +0.000 Br
ATOM     10  C   UNL     1       3.258   3.001  18.055  0.00  0.00    +0.000 A 
ATOM     11  C   UNL     1       4.433   3.737  17.873  0.00  0.00    +0.000 A 
ENDBRANCH   3   5
BRANCH   1  13
ATOM     12  N   UNL     1       7.188   8.610  17.852  0.00  0.00    +0.000 N 
ATOM     13  C   UNL     1       7.199   7.425  17.152  0.00  0.00    +0.000 C 
ATOM     14  O   UNL     1       8.150   7.084  16.461  0.00  0.00    +0.000 OA
ATOM     15  H   UNL     1       6.400   8.873  18.421  0.00  0.00    +0.000 HD
BRANCH  12  16
ATOM     16  C   UNL     1       8.266   9.571  17.732  0.00  0.00    +0.000 C 
BRANCH  16  18
ATOM     17  C   UNL     1       9.414  10.705  19.658  0.00  0.00    +0.000 C 
ATOM     18  C   UNL     1       9.042   9.592  19.011  0.00  0.00    +0.000 C 
ENDBRANCH  16  18
ENDBRANCH  12  16
ENDBRANCH   1  13
TORSDOF 4
ENDMDL
