MODEL 1
REMARK VINA RESULT:      -8.7      0.000      0.000
REMARK  Name = 
REMARK  2 active torsions:
REMARK  status: ('A' for Active; 'I' for Inactive)
REMARK    1  A    between atoms: S_2  and  C_4
REMARK    2  A    between atoms: S_2  and  C_11
REMARK                            x       y       z     vdW  Elec       q    Type
REMARK                         _______ _______ _______ _____ _____    ______ ____
ROOT
ATOM      1  C   UNL     1       5.688   5.821  17.657  0.00  0.00    +0.000 A 
ATOM      2  C   UNL     1       4.843   6.893  17.350  0.00  0.00    +0.000 A 
ATOM      3  C   UNL     1       3.605   7.022  17.998  0.00  0.00    +0.000 A 
ATOM      4 CL   UNL     1       2.553   8.319  17.606  0.00  0.00    +0.000 Cl
ATOM      5  C   UNL     1       3.256   6.027  18.916  0.00  0.00    +0.000 A 
ATOM      6  O   UNL     1       2.042   5.860  19.548  0.00  0.00    +0.000 OA
ATOM      7  C   UNL     1       2.155   4.718  20.262  0.00  0.00    +0.000 A 
ATOM      8  C   UNL     1       3.423   4.187  20.203  0.00  0.00    +0.000 A 
ATOM      9  C   UNL     1       4.117   4.988  19.275  0.00  0.00    +0.000 A 
ATOM     10  C   UNL     1       5.362   4.883  18.644  0.00  0.00    +0.000 A 
ATOM     11  C   UNL     1       3.810   2.908  20.854  0.00  0.00    +0.000 C 
ATOM     12  N   UNL     1       2.704   2.394  21.683  0.00  0.00    +0.000 NA
ATOM     13  C   UNL     1       1.383   2.559  21.035  0.00  0.00    +0.000 C 
ATOM     14  C   UNL     1       0.998   4.058  20.900  0.00  0.00    +0.000 C 
ATOM     15  H   UNL     1       2.876   1.408  21.867  0.00  0.00    +0.000 HD
ENDROOT
BRANCH   1  17
ATOM     16  O   UNL     1       7.906   4.521  17.416  0.00  0.00    +0.000 OA
ATOM     17  S   UNL     1       7.149   5.523  16.689  0.00  0.00    +0.000 S 
ATOM     18  O   UNL     1       7.741   6.810  16.378  0.00  0.00    +0.000 OA
BRANCH  17  19
ATOM     19  C   UNL     1       6.658   4.826  15.138  0.00  0.00    +0.000 A 
ATOM     20  C   UNL     1       5.474   4.089  15.059  0.00  0.00    +0.000 A 
ATOM     21  C   UNL     1       5.127   3.480  13.856  0.00  0.00    +0.000 A 
ATOM     22  C   UNL     1       5.966   3.606  12.746  0.00  0.00    +0.000 A 
ATOM     23 CL   UNL     1       5.547   2.827  11.271  0.00  0.00    +0.000 Cl
ATOM     24  C   UNL     1       7.148   4.345  12.828  0.00  0.00    +0.000 A 
ATOM     25  C   UNL     1       7.503   4.957  14.030  0.00  0.00    +0.000 A 
ENDBRANCH  17  19
ENDBRANCH   1  17
TORSDOF 2
ENDMDL
MODEL 2
REMARK VINA RESULT:      -8.6      0.159      1.003
REMARK  Name = 
REMARK  2 active torsions:
REMARK  status: ('A' for Active; 'I' for Inactive)
REMARK    1  A    between atoms: S_2  and  C_4
REMARK    2  A    between atoms: S_2  and  C_11
REMARK                            x       y       z     vdW  Elec       q    Type
REMARK                         _______ _______ _______ _____ _____    ______ ____
ROOT
ATOM      1  C   UNL     1       5.695   5.839  17.662  0.00  0.00    +0.000 A 
ATOM      2  C   UNL     1       4.889   6.940  17.352  0.00  0.00    +0.000 A 
ATOM      3  C   UNL     1       3.633   7.086  17.958  0.00  0.00    +0.000 A 
ATOM      4 CL   UNL     1       2.629   8.420  17.562  0.00  0.00    +0.000 Cl
ATOM      5  C   UNL     1       3.224   6.079  18.837  0.00  0.00    +0.000 A 
ATOM      6  O   UNL     1       1.985   5.929  19.422  0.00  0.00    +0.000 OA
ATOM      7  C   UNL     1       2.042   4.767  20.110  0.00  0.00    +0.000 A 
ATOM      8  C   UNL     1       3.297   4.204  20.083  0.00  0.00    +0.000 A 
ATOM      9  C   UNL     1       4.045   5.008  19.200  0.00  0.00    +0.000 A 
ATOM     10  C   UNL     1       5.309   4.885  18.612  0.00  0.00    +0.000 A 
ATOM     11  C   UNL     1       3.626   2.900  20.714  0.00  0.00    +0.000 C 
ATOM     12  N   UNL     1       2.479   2.396  21.490  0.00  0.00    +0.000 NA
ATOM     13  C   UNL     1       1.187   2.612  20.800  0.00  0.00    +0.000 C 
ATOM     14  C   UNL     1       0.845   4.124  20.690  0.00  0.00    +0.000 C 
ATOM     15  H   UNL     1       2.618   1.401  21.656  0.00  0.00    +0.000 HD
ENDROOT
BRANCH   1  17
ATOM     16  O   UNL     1       7.942   4.573  17.527  0.00  0.00    +0.000 OA
ATOM     17  S   UNL     1       7.181   5.524  16.739  0.00  0.00    +0.000 S 
ATOM     18  O   UNL     1       7.754   6.808  16.378  0.00  0.00    +0.000 OA
BRANCH  17  19
ATOM     19  C   UNL     1       6.737   4.745  15.213  0.00  0.00    +0.000 A 
ATOM     20  C   UNL     1       7.498   4.992  14.068  0.00  0.00    +0.000 A 
ATOM     21  C   UNL     1       7.105   4.437  12.853  0.00  0.00    +0.000 A 
ATOM     22  C   UNL     1       5.954   3.648  12.790  0.00  0.00    +0.000 A 
ATOM     23 CL   UNL     1       5.456   2.989  11.281  0.00  0.00    +0.000 Cl
ATOM     24  C   UNL     1       5.196   3.401  13.937  0.00  0.00    +0.000 A 
ATOM     25  C   UNL     1       5.583   3.955  15.157  0.00  0.00    +0.000 A 
ENDBRANCH  17  19
ENDBRANCH   1  17
TORSDOF 2
ENDMDL
MODEL 3
REMARK VINA RESULT:      -7.8      2.859      3.823
REMARK  Name = 
REMARK  2 active torsions:
REMARK  status: ('A' for Active; 'I' for Inactive)
REMARK    1  A    between atoms: S_2  and  C_4
REMARK    2  A    between atoms: S_2  and  C_11
REMARK                            x       y       z     vdW  Elec       q    Type
REMARK                         _______ _______ _______ _____ _____    ______ ____
ROOT
ATOM      1  C   UNL     1       4.846   5.812  18.374  0.00  0.00    +0.000 A 
ATOM      2  C   UNL     1       4.322   4.980  19.370  0.00  0.00    +0.000 A 
ATOM      3  C   UNL     1       3.128   5.327  20.021  0.00  0.00    +0.000 A 
ATOM      4 CL   UNL     1       2.495   4.324  21.261  0.00  0.00    +0.000 Cl
ATOM      5  C   UNL     1       2.527   6.534  19.656  0.00  0.00    +0.000 A 
ATOM      6  O   UNL     1       1.451   7.150  20.258  0.00  0.00    +0.000 OA
ATOM      7  C   UNL     1       1.296   8.329  19.616  0.00  0.00    +0.000 A 
ATOM      8  C   UNL     1       2.160   8.464  18.555  0.00  0.00    +0.000 A 
ATOM      9  C   UNL     1       3.008   7.341  18.621  0.00  0.00    +0.000 A 
ATOM     10  C   UNL     1       4.184   6.974  17.958  0.00  0.00    +0.000 A 
ATOM     11  C   UNL     1       2.239   9.684  17.709  0.00  0.00    +0.000 C 
ATOM     12  N   UNL     1       1.170  10.633  18.068  0.00  0.00    +0.000 NA
ATOM     13  C   UNL     1       0.957  10.723  19.530  0.00  0.00    +0.000 C 
ATOM     14  C   UNL     1       0.397   9.394  20.108  0.00  0.00    +0.000 C 
ATOM     15  H   UNL     1       1.419  11.549  17.700  0.00  0.00    +0.000 HD
ENDROOT
BRANCH   1  17
ATOM     16  O   UNL     1       7.019   4.422  18.498  0.00  0.00    +0.000 OA
ATOM     17  S   UNL     1       6.463   5.502  17.704  0.00  0.00    +0.000 S 
ATOM     18  O   UNL     1       7.151   6.777  17.610  0.00  0.00    +0.000 OA
BRANCH  17  19
ATOM     19  C   UNL     1       6.278   4.926  16.041  0.00  0.00    +0.000 A 
ATOM     20  C   UNL     1       5.146   4.186  15.691  0.00  0.00    +0.000 A 
ATOM     21  C   UNL     1       5.037   3.671  14.402  0.00  0.00    +0.000 A 
ATOM     22  C   UNL     1       6.060   3.893  13.477  0.00  0.00    +0.000 A 
ATOM     23 CL   UNL     1       5.934   3.230  11.895  0.00  0.00    +0.000 Cl
ATOM     24  C   UNL     1       7.189   4.636  13.829  0.00  0.00    +0.000 A 
ATOM     25  C   UNL     1       7.306   5.153  15.119  0.00  0.00    +0.000 A 
ENDBRANCH  17  19
ENDBRANCH   1  17
TORSDOF 2
ENDMDL
MODEL 4
REMARK VINA RESULT:      -7.8      2.394      3.135
REMARK  Name = 
REMARK  2 active torsions:
REMARK  status: ('A' for Active; 'I' for Inactive)
REMARK    1  A    between atoms: S_2  and  C_4
REMARK    2  A    between atoms: S_2  and  C_11
REMARK                            x       y       z     vdW  Elec       q    Type
REMARK                         _______ _______ _______ _____ _____    ______ ____
ROOT
ATOM      1  C   UNL     1       5.433   5.276  17.682  0.00  0.00    +0.000 A 
ATOM      2  C   UNL     1       5.265   4.167  18.518  0.00  0.00    +0.000 A 
ATOM      3  C   UNL     1       4.205   4.132  19.436  0.00  0.00    +0.000 A 
ATOM      4 CL   UNL     1       4.009   2.787  20.483  0.00  0.00    +0.000 Cl
ATOM      5  C   UNL     1       3.368   5.250  19.493  0.00  0.00    +0.000 A 
ATOM      6  O   UNL     1       2.372   5.506  20.410  0.00  0.00    +0.000 OA
ATOM      7  C   UNL     1       1.910   6.742  20.117  0.00  0.00    +0.000 A 
ATOM      8  C   UNL     1       2.494   7.262  18.985  0.00  0.00    +0.000 A 
ATOM      9  C   UNL     1       3.490   6.335  18.621  0.00  0.00    +0.000 A 
ATOM     10  C   UNL     1       4.534   6.350  17.689  0.00  0.00    +0.000 A 
ATOM     11  C   UNL     1       2.208   8.625  18.466  0.00  0.00    +0.000 C 
ATOM     12  N   UNL     1       1.116   9.252  19.232  0.00  0.00    +0.000 NA
ATOM     13  C   UNL     1       1.216   8.988  20.685  0.00  0.00    +0.000 C 
ATOM     14  C   UNL     1       0.995   7.484  21.007  0.00  0.00    +0.000 C 
ATOM     15  H   UNL     1       1.143  10.256  19.062  0.00  0.00    +0.000 HD
ENDROOT
BRANCH   1  17
ATOM     16  O   UNL     1       7.895   4.592  17.307  0.00  0.00    +0.000 OA
ATOM     17  S   UNL     1       6.893   5.433  16.680  0.00  0.00    +0.000 S 
ATOM     18  O   UNL     1       7.140   6.849  16.481  0.00  0.00    +0.000 OA
BRANCH  17  19
ATOM     19  C   UNL     1       6.543   4.771  15.076  0.00  0.00    +0.000 A 
ATOM     20  C   UNL     1       5.382   4.019  14.880  0.00  0.00    +0.000 A 
ATOM     21  C   UNL     1       5.146   3.437  13.637  0.00  0.00    +0.000 A 
ATOM     22  C   UNL     1       6.072   3.605  12.605  0.00  0.00    +0.000 A 
ATOM     23 CL   UNL     1       5.789   2.861  11.080  0.00  0.00    +0.000 Cl
ATOM     24  C   UNL     1       7.230   4.360  12.803  0.00  0.00    +0.000 A 
ATOM     25  C   UNL     1       7.475   4.944  14.046  0.00  0.00    +0.000 A 
ENDBRANCH  17  19
ENDBRANCH   1  17
TORSDOF 2
ENDMDL
MODEL 5
REMARK VINA RESULT:      -7.6      2.376      3.304
REMARK  Name = 
REMARK  2 active torsions:
REMARK  status: ('A' for Active; 'I' for Inactive)
REMARK    1  A    between atoms: S_2  and  C_4
REMARK    2  A    between atoms: S_2  and  C_11
REMARK                            x       y       z     vdW  Elec       q    Type
REMARK                         _______ _______ _______ _____ _____    ______ ____
ROOT
ATOM      1  C   UNL     1       5.560   5.153  17.591  0.00  0.00    +0.000 A 
ATOM      2  C   UNL     1       5.383   4.082  18.474  0.00  0.00    +0.000 A 
ATOM      3  C   UNL     1       4.323   4.094  19.393  0.00  0.00    +0.000 A 
ATOM      4 CL   UNL     1       4.117   2.797  20.496  0.00  0.00    +0.000 Cl
ATOM      5  C   UNL     1       3.496   5.221  19.402  0.00  0.00    +0.000 A 
ATOM      6  O   UNL     1       2.501   5.523  20.307  0.00  0.00    +0.000 OA
ATOM      7  C   UNL     1       2.050   6.750  19.961  0.00  0.00    +0.000 A 
ATOM      8  C   UNL     1       2.637   7.216  18.809  0.00  0.00    +0.000 A 
ATOM      9  C   UNL     1       3.626   6.267  18.484  0.00  0.00    +0.000 A 
ATOM     10  C   UNL     1       4.670   6.234  17.553  0.00  0.00    +0.000 A 
ATOM     11  C   UNL     1       2.362   8.559  18.231  0.00  0.00    +0.000 C 
ATOM     12  N   UNL     1       1.276   9.227  18.970  0.00  0.00    +0.000 NA
ATOM     13  C   UNL     1       1.374   9.024  20.433  0.00  0.00    +0.000 C 
ATOM     14  C   UNL     1       1.141   7.537  20.819  0.00  0.00    +0.000 C 
ATOM     15  H   UNL     1       1.311  10.222  18.758  0.00  0.00    +0.000 HD
ENDROOT
BRANCH   1  17
ATOM     16  O   UNL     1       8.000   4.393  17.219  0.00  0.00    +0.000 OA
ATOM     17  S   UNL     1       7.021   5.255  16.584  0.00  0.00    +0.000 S 
ATOM     18  O   UNL     1       7.307   6.661  16.367  0.00  0.00    +0.000 OA
BRANCH  17  19
ATOM     19  C   UNL     1       6.647   4.584  14.989  0.00  0.00    +0.000 A 
ATOM     20  C   UNL     1       7.493   4.859  13.912  0.00  0.00    +0.000 A 
ATOM     21  C   UNL     1       7.159   4.392  12.643  0.00  0.00    +0.000 A 
ATOM     22  C   UNL     1       5.983   3.660  12.460  0.00  0.00    +0.000 A 
ATOM     23 CL   UNL     1       5.560   3.110  10.886  0.00  0.00    +0.000 Cl
ATOM     24  C   UNL     1       5.141   3.384  13.540  0.00  0.00    +0.000 A 
ATOM     25  C   UNL     1       5.468   3.851  14.813  0.00  0.00    +0.000 A 
ENDBRANCH  17  19
ENDBRANCH   1  17
TORSDOF 2
ENDMDL
MODEL 6
REMARK VINA RESULT:      -7.4      7.798      9.728
REMARK  Name = 
REMARK  2 active torsions:
REMARK  status: ('A' for Active; 'I' for Inactive)
REMARK    1  A    between atoms: S_2  and  C_4
REMARK    2  A    between atoms: S_2  and  C_11
REMARK                            x       y       z     vdW  Elec       q    Type
REMARK                         _______ _______ _______ _____ _____    ______ ____
ROOT
ATOM      1  C   UNL     1      -1.168  11.410  18.673  0.00  0.00    +0.000 A 
ATOM      2  C   UNL     1      -1.403  10.704  17.488  0.00  0.00    +0.000 A 
ATOM      3  C   UNL     1      -2.713  10.544  17.012  0.00  0.00    +0.000 A 
ATOM      4 CL   UNL     1      -3.010   9.656  15.574  0.00  0.00    +0.000 Cl
ATOM      5  C   UNL     1      -3.746  11.082  17.785  0.00  0.00    +0.000 A 
ATOM      6  O   UNL     1      -5.102  10.915  17.603  0.00  0.00    +0.000 OA
ATOM      7  C   UNL     1      -5.693  11.542  18.644  0.00  0.00    +0.000 A 
ATOM      8  C   UNL     1      -4.784  12.196  19.443  0.00  0.00    +0.000 A 
ATOM      9  C   UNL     1      -3.519  11.840  18.936  0.00  0.00    +0.000 A 
ATOM     10  C   UNL     1      -2.207  12.019  19.389  0.00  0.00    +0.000 A 
ATOM     11  C   UNL     1      -5.155  12.923  20.686  0.00  0.00    +0.000 C 
ATOM     12  N   UNL     1      -6.620  12.972  20.838  0.00  0.00    +0.000 NA
ATOM     13  C   UNL     1      -7.274  11.696  20.469  0.00  0.00    +0.000 C 
ATOM     14  C   UNL     1      -7.131  11.402  18.950  0.00  0.00    +0.000 C 
ATOM     15  H   UNL     1      -6.832  13.199  21.808  0.00  0.00    +0.000 HD
ENDROOT
BRANCH   1  17
ATOM     16  O   UNL     1       0.249  11.707  20.811  0.00  0.00    +0.000 OA
ATOM     17  S   UNL     1       0.453  11.428  19.402  0.00  0.00    +0.000 S 
ATOM     18  O   UNL     1       1.289  12.294  18.593  0.00  0.00    +0.000 OA
BRANCH  17  19
ATOM     19  C   UNL     1       1.148   9.807  19.257  0.00  0.00    +0.000 A 
ATOM     20  C   UNL     1       1.118   8.944  20.355  0.00  0.00    +0.000 A 
ATOM     21  C   UNL     1       1.731   7.697  20.262  0.00  0.00    +0.000 A 
ATOM     22  C   UNL     1       2.373   7.325  19.079  0.00  0.00    +0.000 A 
ATOM     23 CL   UNL     1       3.153   5.796  18.979  0.00  0.00    +0.000 Cl
ATOM     24  C   UNL     1       2.399   8.189  17.981  0.00  0.00    +0.000 A 
ATOM     25  C   UNL     1       1.789   9.440  18.068  0.00  0.00    +0.000 A 
ENDBRANCH  17  19
ENDBRANCH   1  17
TORSDOF 2
ENDMDL
MODEL 7
REMARK VINA RESULT:      -7.3      3.381      7.425
REMARK  Name = 
REMARK  2 active torsions:
REMARK  status: ('A' for Active; 'I' for Inactive)
REMARK    1  A    between atoms: S_2  and  C_4
REMARK    2  A    between atoms: S_2  and  C_11
REMARK                            x       y       z     vdW  Elec       q    Type
REMARK                         _______ _______ _______ _____ _____    ______ ____
ROOT
ATOM      1  C   UNL     1       4.470   5.061  17.521  0.00  0.00    +0.000 A 
ATOM      2  C   UNL     1       5.539   5.876  17.910  0.00  0.00    +0.000 A 
ATOM      3  C   UNL     1       6.564   6.176  17.000  0.00  0.00    +0.000 A 
ATOM      4 CL   UNL     1       7.891   7.152  17.479  0.00  0.00    +0.000 Cl
ATOM      5  C   UNL     1       6.479   5.604  15.727  0.00  0.00    +0.000 A 
ATOM      6  O   UNL     1       7.432   5.628  14.732  0.00  0.00    +0.000 OA
ATOM      7  C   UNL     1       6.937   4.867  13.731  0.00  0.00    +0.000 A 
ATOM      8  C   UNL     1       5.659   4.430  13.989  0.00  0.00    +0.000 A 
ATOM      9  C   UNL     1       5.386   4.840  15.309  0.00  0.00    +0.000 A 
ATOM     10  C   UNL     1       4.355   4.568  16.215  0.00  0.00    +0.000 A 
ATOM     11  C   UNL     1       4.897   3.534  13.080  0.00  0.00    +0.000 C 
ATOM     12  N   UNL     1       5.636   3.324  11.822  0.00  0.00    +0.000 NA
ATOM     13  C   UNL     1       7.089   3.145  12.039  0.00  0.00    +0.000 C 
ATOM     14  C   UNL     1       7.751   4.446  12.572  0.00  0.00    +0.000 C 
ATOM     15  H   UNL     1       5.252   2.501  11.361  0.00  0.00    +0.000 HD
ENDROOT
BRANCH   1  17
ATOM     16  O   UNL     1       4.070   3.872  19.778  0.00  0.00    +0.000 OA
ATOM     17  S   UNL     1       3.291   4.492  18.722  0.00  0.00    +0.000 S 
ATOM     18  O   UNL     1       2.275   3.734  18.016  0.00  0.00    +0.000 OA
BRANCH  17  19
ATOM     19  C   UNL     1       2.462   5.900  19.403  0.00  0.00    +0.000 A 
ATOM     20  C   UNL     1       2.511   7.121  18.726  0.00  0.00    +0.000 A 
ATOM     21  C   UNL     1       1.922   8.244  19.299  0.00  0.00    +0.000 A 
ATOM     22  C   UNL     1       1.294   8.142  20.542  0.00  0.00    +0.000 A 
ATOM     23 CL   UNL     1       0.592   9.539  21.259  0.00  0.00    +0.000 Cl
ATOM     24  C   UNL     1       1.244   6.919  21.215  0.00  0.00    +0.000 A 
ATOM     25  C   UNL     1       1.834   5.789  20.648  0.00  0.00    +0.000 A 
ENDBRANCH  17  19
ENDBRANCH   1  17
TORSDOF 2
ENDMDL
MODEL 8
REMARK VINA RESULT:      -7.2      7.826      9.783
REMARK  Name = 
REMARK  2 active torsions:
REMARK  status: ('A' for Active; 'I' for Inactive)
REMARK    1  A    between atoms: S_2  and  C_4
REMARK    2  A    between atoms: S_2  and  C_11
REMARK                            x       y       z     vdW  Elec       q    Type
REMARK                         _______ _______ _______ _____ _____    ______ ____
ROOT
ATOM      1  C   UNL     1      -1.193  11.513  18.675  0.00  0.00    +0.000 A 
ATOM      2  C   UNL     1      -1.416  10.769  17.511  0.00  0.00    +0.000 A 
ATOM      3  C   UNL     1      -2.725  10.549  17.056  0.00  0.00    +0.000 A 
ATOM      4 CL   UNL     1      -3.006   9.615  15.644  0.00  0.00    +0.000 Cl
ATOM      5  C   UNL     1      -3.768  11.070  17.827  0.00  0.00    +0.000 A 
ATOM      6  O   UNL     1      -5.119  10.850  17.667  0.00  0.00    +0.000 OA
ATOM      7  C   UNL     1      -5.719  11.482  18.700  0.00  0.00    +0.000 A 
ATOM      8  C   UNL     1      -4.826  12.189  19.470  0.00  0.00    +0.000 A 
ATOM      9  C   UNL     1      -3.555  11.865  18.956  0.00  0.00    +0.000 A 
ATOM     10  C   UNL     1      -2.245  12.103  19.388  0.00  0.00    +0.000 A 
ATOM     11  C   UNL     1      -5.208  12.933  20.699  0.00  0.00    +0.000 C 
ATOM     12  N   UNL     1      -6.673  12.934  20.868  0.00  0.00    +0.000 NA
ATOM     13  C   UNL     1      -7.284  11.626  20.539  0.00  0.00    +0.000 C 
ATOM     14  C   UNL     1      -7.148  11.298  19.026  0.00  0.00    +0.000 C 
ATOM     15  H   UNL     1      -6.881  13.178  21.834  0.00  0.00    +0.000 HD
ENDROOT
BRANCH   1  17
ATOM     16  O   UNL     1       0.235  11.854  20.799  0.00  0.00    +0.000 OA
ATOM     17  S   UNL     1       0.434  11.607  19.383  0.00  0.00    +0.000 S 
ATOM     18  O   UNL     1       1.212  12.530  18.577  0.00  0.00    +0.000 OA
BRANCH  17  19
ATOM     19  C   UNL     1       1.214  10.028  19.203  0.00  0.00    +0.000 A 
ATOM     20  C   UNL     1       1.822   9.696  17.990  0.00  0.00    +0.000 A 
ATOM     21  C   UNL     1       2.370   8.427  17.825  0.00  0.00    +0.000 A 
ATOM     22  C   UNL     1       2.302   7.500  18.868  0.00  0.00    +0.000 A 
ATOM     23 CL   UNL     1       2.955   5.924  18.648  0.00  0.00    +0.000 Cl
ATOM     24  C   UNL     1       1.696   7.836  20.080  0.00  0.00    +0.000 A 
ATOM     25  C   UNL     1       1.143   9.105  20.252  0.00  0.00    +0.000 A 
ENDBRANCH  17  19
ENDBRANCH   1  17
TORSDOF 2
ENDMDL
MODEL 9
REMARK VINA RESULT:      -7.1      6.912      9.789
REMARK  Name = 
REMARK  2 active torsions:
REMARK  status: ('A' for Active; 'I' for Inactive)
REMARK    1  A    between atoms: S_2  and  C_4
REMARK    2  A    between atoms: S_2  and  C_11
REMARK                            x       y       z     vdW  Elec       q    Type
REMARK                         _______ _______ _______ _____ _____    ______ ____
ROOT
ATOM      1  C   UNL     1      -0.260  11.431  19.955  0.00  0.00    +0.000 A 
ATOM      2  C   UNL     1      -0.492  11.073  21.288  0.00  0.00    +0.000 A 
ATOM      3  C   UNL     1       0.093   9.913  21.817  0.00  0.00    +0.000 A 
ATOM      4 CL   UNL     1      -0.210   9.453  23.442  0.00  0.00    +0.000 Cl
ATOM      5  C   UNL     1       0.871   9.136  20.954  0.00  0.00    +0.000 A 
ATOM      6  O   UNL     1       1.409   7.892  21.201  0.00  0.00    +0.000 OA
ATOM      7  C   UNL     1       1.995   7.508  20.046  0.00  0.00    +0.000 A 
ATOM      8  C   UNL     1       1.950   8.491  19.085  0.00  0.00    +0.000 A 
ATOM      9  C   UNL     1       1.160   9.517  19.641  0.00  0.00    +0.000 A 
ATOM     10  C   UNL     1       0.594  10.690  19.129  0.00  0.00    +0.000 A 
ATOM     11  C   UNL     1       2.473   8.317  17.705  0.00  0.00    +0.000 C 
ATOM     12  N   UNL     1       3.174   7.026  17.576  0.00  0.00    +0.000 NA
ATOM     13  C   UNL     1       2.474   5.927  18.278  0.00  0.00    +0.000 C 
ATOM     14  C   UNL     1       2.487   6.134  19.818  0.00  0.00    +0.000 C 
ATOM     15  H   UNL     1       3.255   6.806  16.586  0.00  0.00    +0.000 HD
ENDROOT
BRANCH   1  17
ATOM     16  O   UNL     1      -0.565  12.979  17.911  0.00  0.00    +0.000 OA
ATOM     17  S   UNL     1      -1.169  12.765  19.212  0.00  0.00    +0.000 S 
ATOM     18  O   UNL     1      -1.236  13.845  20.180  0.00  0.00    +0.000 OA
BRANCH  17  19
ATOM     19  C   UNL     1      -2.839  12.233  18.964  0.00  0.00    +0.000 A 
ATOM     20  C   UNL     1      -3.826  12.615  19.876  0.00  0.00    +0.000 A 
ATOM     21  C   UNL     1      -5.123  12.135  19.720  0.00  0.00    +0.000 A 
ATOM     22  C   UNL     1      -5.423  11.274  18.661  0.00  0.00    +0.000 A 
ATOM     23 CL   UNL     1      -7.021  10.661  18.490  0.00  0.00    +0.000 Cl
ATOM     24  C   UNL     1      -4.435  10.896  17.750  0.00  0.00    +0.000 A 
ATOM     25  C   UNL     1      -3.132  11.372  17.900  0.00  0.00    +0.000 A 
ENDBRANCH  17  19
ENDBRANCH   1  17
TORSDOF 2
ENDMDL
