MODEL 1
REMARK VINA RESULT:      -7.6      0.000      0.000
REMARK  Name = 
REMARK  10 active torsions:
REMARK  status: ('A' for Active; 'I' for Inactive)
REMARK    1  A    between atoms: C_1  and  O_2
REMARK    2  A    between atoms: O_2  and  C_3
REMARK    3  A    between atoms: C_6  and  C_7
REMARK    4  A    between atoms: N_9  and  C_10
REMARK    5  A    between atoms: C_10  and  C_11
REMARK    6  A    between atoms: C_11  and  C_12
REMARK    7  A    between atoms: C_11  and  N_18
REMARK    8  A    between atoms: N_16  and  C_17
REMARK    9  A    between atoms: C_23  and  O_24
REMARK   10  A    between atoms: O_24  and  C_25
REMARK                            x       y       z     vdW  Elec       q    Type
REMARK                         _______ _______ _______ _____ _____    ______ ____
ROOT
ATOM      1  C   UNL     1       5.513   4.476  18.256  0.00  0.00    +0.000 C 
ATOM      2  O   UNL     1       5.856   3.608  19.051  0.00  0.00    +0.000 OA
ATOM      3  N   UNL     1       4.650   5.497  18.614  0.00  0.00    +0.000 N 
ATOM      4  H   UNL     1       4.198   6.022  17.879  0.00  0.00    +0.000 HD
ENDROOT
BRANCH   1   8
ATOM      5  C   UNL     1       6.790   4.573  14.125  0.00  0.00    +0.000 A 
ATOM      6  C   UNL     1       5.730   3.762  14.526  0.00  0.00    +0.000 A 
ATOM      7  C   UNL     1       5.338   3.721  15.866  0.00  0.00    +0.000 A 
ATOM      8  C   UNL     1       5.999   4.494  16.834  0.00  0.00    +0.000 A 
ATOM      9  C   UNL     1       7.077   5.312  16.434  0.00  0.00    +0.000 A 
ATOM     10  C   UNL     1       7.469   5.329  15.082  0.00  0.00    +0.000 A 
BRANCH   5  12
ATOM     11  C   UNL     1       6.526   3.453  12.047  0.00  0.00    +0.000 C 
ATOM     12  O   UNL     1       7.058   4.546  12.785  0.00  0.00    +0.000 OA
ENDBRANCH   5  12
BRANCH   9  13
ATOM     13  O   UNL     1       7.761   6.018  17.398  0.00  0.00    +0.000 OA
ATOM     14  C   UNL     1       7.528   7.420  17.423  0.00  0.00    +0.000 C 
ENDBRANCH   9  13
ENDBRANCH   1   8
BRANCH   3  15
ATOM     15  C   UNL     1       3.966   5.480  19.898  0.00  0.00    +0.000 C 
BRANCH  15  16
ATOM     16  C   UNL     1       2.444   5.858  19.926  0.00  0.00    +0.000 C 
BRANCH  16  17
ATOM     17  C   UNL     1       2.147   7.203  19.246  0.00  0.00    +0.000 A 
ATOM     18  C   UNL     1       2.441   7.638  17.959  0.00  0.00    +0.000 A 
ATOM     19  C   UNL     1       1.949   8.953  17.798  0.00  0.00    +0.000 A 
ATOM     20  C   UNL     1       1.377   9.313  18.992  0.00  0.00    +0.000 A 
ATOM     21  N   UNL     1       1.559   8.284  19.885  0.00  0.00    +0.000 N 
ATOM     22  C   UNL     1       1.229   8.393  21.290  0.00  0.00    +0.000 C 
ENDBRANCH  16  17
BRANCH  16  23
ATOM     23  N   UNL     1       1.559   4.782  19.383  0.00  0.00    +0.000 NA
ATOM     24  C   UNL     1       0.740   4.121  20.410  0.00  0.00    +0.000 C 
ATOM     25  C   UNL     1       1.437   2.808  20.726  0.00  0.00    +0.000 C 
ATOM     26  C   UNL     1       2.012   2.399  19.388  0.00  0.00    +0.000 C 
ATOM     27  C   UNL     1       2.241   3.711  18.640  0.00  0.00    +0.000 C 
ENDBRANCH  16  23
ENDBRANCH  15  16
ENDBRANCH   3  15
TORSDOF 7
ENDMDL
MODEL 2
REMARK VINA RESULT:      -7.5      3.529      7.995
REMARK  Name = 
REMARK  10 active torsions:
REMARK  status: ('A' for Active; 'I' for Inactive)
REMARK    1  A    between atoms: C_1  and  O_2
REMARK    2  A    between atoms: O_2  and  C_3
REMARK    3  A    between atoms: C_6  and  C_7
REMARK    4  A    between atoms: N_9  and  C_10
REMARK    5  A    between atoms: C_10  and  C_11
REMARK    6  A    between atoms: C_11  and  C_12
REMARK    7  A    between atoms: C_11  and  N_18
REMARK    8  A    between atoms: N_16  and  C_17
REMARK    9  A    between atoms: C_23  and  O_24
REMARK   10  A    between atoms: O_24  and  C_25
REMARK                            x       y       z     vdW  Elec       q    Type
REMARK                         _______ _______ _______ _____ _____    ______ ____
ROOT
ATOM      1  C   UNL     1       1.874   8.662  18.707  0.00  0.00    +0.000 C 
ATOM      2  O   UNL     1       1.848   9.164  17.589  0.00  0.00    +0.000 OA
ATOM      3  N   UNL     1       2.607   7.521  18.982  0.00  0.00    +0.000 N 
ATOM      4  H   UNL     1       2.395   7.007  19.824  0.00  0.00    +0.000 HD
ENDROOT
BRANCH   1   8
ATOM      5  C   UNL     1      -0.214  10.328  22.109  0.00  0.00    +0.000 A 
ATOM      6  C   UNL     1       0.298   9.033  22.149  0.00  0.00    +0.000 A 
ATOM      7  C   UNL     1       0.952   8.495  21.038  0.00  0.00    +0.000 A 
ATOM      8  C   UNL     1       1.110   9.246  19.862  0.00  0.00    +0.000 A 
ATOM      9  C   UNL     1       0.587  10.556  19.814  0.00  0.00    +0.000 A 
ATOM     10  C   UNL     1      -0.084  11.075  20.937  0.00  0.00    +0.000 A 
BRANCH   5  12
ATOM     11  C   UNL     1      -1.760  11.798  23.155  0.00  0.00    +0.000 C 
ATOM     12  O   UNL     1      -0.808  10.747  23.266  0.00  0.00    +0.000 OA
ENDBRANCH   5  12
BRANCH   9  13
ATOM     13  O   UNL     1       0.688  11.262  18.637  0.00  0.00    +0.000 OA
ATOM     14  C   UNL     1       1.254  12.562  18.740  0.00  0.00    +0.000 C 
ENDBRANCH   9  13
ENDBRANCH   1   8
BRANCH   3  15
ATOM     15  C   UNL     1       3.231   6.760  17.910  0.00  0.00    +0.000 C 
BRANCH  15  16
ATOM     16  C   UNL     1       4.160   5.559  18.304  0.00  0.00    +0.000 C 
BRANCH  16  17
ATOM     17  C   UNL     1       3.427   4.210  18.308  0.00  0.00    +0.000 A 
ATOM     18  C   UNL     1       3.223   3.299  17.277  0.00  0.00    +0.000 A 
ATOM     19  C   UNL     1       2.501   2.194  17.779  0.00  0.00    +0.000 A 
ATOM     20  C   UNL     1       2.256   2.448  19.105  0.00  0.00    +0.000 A 
ATOM     21  N   UNL     1       2.753   3.694  19.405  0.00  0.00    +0.000 N 
ATOM     22  C   UNL     1       2.520   4.351  20.673  0.00  0.00    +0.000 C 
ENDBRANCH  16  17
BRANCH  16  23
ATOM     23  N   UNL     1       5.406   5.484  17.481  0.00  0.00    +0.000 NA
ATOM     24  C   UNL     1       6.528   4.829  18.173  0.00  0.00    +0.000 C 
ATOM     25  C   UNL     1       7.426   5.948  18.673  0.00  0.00    +0.000 C 
ATOM     26  C   UNL     1       7.301   6.994  17.587  0.00  0.00    +0.000 C 
ATOM     27  C   UNL     1       5.918   6.769  16.980  0.00  0.00    +0.000 C 
ENDBRANCH  16  23
ENDBRANCH  15  16
ENDBRANCH   3  15
TORSDOF 7
ENDMDL
MODEL 3
REMARK VINA RESULT:      -7.5      3.577      8.052
REMARK  Name = 
REMARK  10 active torsions:
REMARK  status: ('A' for Active; 'I' for Inactive)
REMARK    1  A    between atoms: C_1  and  O_2
REMARK    2  A    between atoms: O_2  and  C_3
REMARK    3  A    between atoms: C_6  and  C_7
REMARK    4  A    between atoms: N_9  and  C_10
REMARK    5  A    between atoms: C_10  and  C_11
REMARK    6  A    between atoms: C_11  and  C_12
REMARK    7  A    between atoms: C_11  and  N_18
REMARK    8  A    between atoms: N_16  and  C_17
REMARK    9  A    between atoms: C_23  and  O_24
REMARK   10  A    between atoms: O_24  and  C_25
REMARK                            x       y       z     vdW  Elec       q    Type
REMARK                         _______ _______ _______ _____ _____    ______ ____
ROOT
ATOM      1  C   UNL     1       1.805   8.532  19.097  0.00  0.00    +0.000 C 
ATOM      2  O   UNL     1       1.983   9.064  18.008  0.00  0.00    +0.000 OA
ATOM      3  N   UNL     1       2.340   7.292  19.403  0.00  0.00    +0.000 N 
ATOM      4  H   UNL     1       1.960   6.788  20.191  0.00  0.00    +0.000 HD
ENDROOT
BRANCH   1   8
ATOM      5  C   UNL     1      -0.422  10.441  22.275  0.00  0.00    +0.000 A 
ATOM      6  C   UNL     1       0.455   9.393  22.547  0.00  0.00    +0.000 A 
ATOM      7  C   UNL     1       1.155   8.768  21.512  0.00  0.00    +0.000 A 
ATOM      8  C   UNL     1       0.991   9.182  20.180  0.00  0.00    +0.000 A 
ATOM      9  C   UNL     1       0.099  10.238  19.899  0.00  0.00    +0.000 A 
ATOM     10  C   UNL     1      -0.610  10.845  20.952  0.00  0.00    +0.000 A 
BRANCH   5  12
ATOM     11  C   UNL     1      -2.142  11.834  23.139  0.00  0.00    +0.000 C 
ATOM     12  O   UNL     1      -1.024  10.986  23.374  0.00  0.00    +0.000 OA
ENDBRANCH   5  12
BRANCH   9  13
ATOM     13  O   UNL     1      -0.105  10.595  18.585  0.00  0.00    +0.000 OA
ATOM     14  C   UNL     1      -1.395  10.311  18.059  0.00  0.00    +0.000 C 
ENDBRANCH   9  13
ENDBRANCH   1   8
BRANCH   3  15
ATOM     15  C   UNL     1       2.982   6.483  18.378  0.00  0.00    +0.000 C 
BRANCH  15  16
ATOM     16  C   UNL     1       3.608   5.111  18.809  0.00  0.00    +0.000 C 
BRANCH  16  17
ATOM     17  C   UNL     1       2.562   3.995  18.956  0.00  0.00    +0.000 A 
ATOM     18  C   UNL     1       1.846   3.306  17.985  0.00  0.00    +0.000 A 
ATOM     19  C   UNL     1       1.012   2.358  18.618  0.00  0.00    +0.000 A 
ATOM     20  C   UNL     1       1.214   2.489  19.969  0.00  0.00    +0.000 A 
ATOM     21  N   UNL     1       2.096   3.523  20.175  0.00  0.00    +0.000 N 
ATOM     22  C   UNL     1       2.404   4.047  21.488  0.00  0.00    +0.000 C 
ENDBRANCH  16  17
BRANCH  16  23
ATOM     23  N   UNL     1       4.730   4.672  17.924  0.00  0.00    +0.000 NA
ATOM     24  C   UNL     1       6.051   4.759  18.565  0.00  0.00    +0.000 C 
ATOM     25  C   UNL     1       6.692   6.033  18.040  0.00  0.00    +0.000 C 
ATOM     26  C   UNL     1       6.185   6.107  16.617  0.00  0.00    +0.000 C 
ATOM     27  C   UNL     1       4.842   5.379  16.638  0.00  0.00    +0.000 C 
ENDBRANCH  16  23
ENDBRANCH  15  16
ENDBRANCH   3  15
TORSDOF 7
ENDMDL
MODEL 4
REMARK VINA RESULT:      -7.4      3.239      7.410
REMARK  Name = 
REMARK  10 active torsions:
REMARK  status: ('A' for Active; 'I' for Inactive)
REMARK    1  A    between atoms: C_1  and  O_2
REMARK    2  A    between atoms: O_2  and  C_3
REMARK    3  A    between atoms: C_6  and  C_7
REMARK    4  A    between atoms: N_9  and  C_10
REMARK    5  A    between atoms: C_10  and  C_11
REMARK    6  A    between atoms: C_11  and  C_12
REMARK    7  A    between atoms: C_11  and  N_18
REMARK    8  A    between atoms: N_16  and  C_17
REMARK    9  A    between atoms: C_23  and  O_24
REMARK   10  A    between atoms: O_24  and  C_25
REMARK                            x       y       z     vdW  Elec       q    Type
REMARK                         _______ _______ _______ _____ _____    ______ ____
ROOT
ATOM      1  C   UNL     1       1.564   6.707  20.630  0.00  0.00    +0.000 C 
ATOM      2  O   UNL     1       0.875   5.705  20.785  0.00  0.00    +0.000 OA
ATOM      3  N   UNL     1       2.847   6.641  20.113  0.00  0.00    +0.000 N 
ATOM      4  H   UNL     1       3.458   7.433  20.246  0.00  0.00    +0.000 HD
ENDROOT
BRANCH   1   8
ATOM      5  C   UNL     1       0.229  10.657  21.777  0.00  0.00    +0.000 A 
ATOM      6  C   UNL     1       0.071   9.572  22.637  0.00  0.00    +0.000 A 
ATOM      7  C   UNL     1       0.486   8.295  22.250  0.00  0.00    +0.000 A 
ATOM      8  C   UNL     1       1.071   8.079  20.991  0.00  0.00    +0.000 A 
ATOM      9  C   UNL     1       1.226   9.173  20.115  0.00  0.00    +0.000 A 
ATOM     10  C   UNL     1       0.787  10.449  20.515  0.00  0.00    +0.000 A 
BRANCH   5  12
ATOM     11  C   UNL     1      -1.470  11.875  22.906  0.00  0.00    +0.000 C 
ATOM     12  O   UNL     1      -0.192  11.855  22.282  0.00  0.00    +0.000 OA
ENDBRANCH   5  12
BRANCH   9  13
ATOM     13  O   UNL     1       1.740   8.943  18.858  0.00  0.00    +0.000 OA
ATOM     14  C   UNL     1       0.986   9.469  17.774  0.00  0.00    +0.000 C 
ENDBRANCH   9  13
ENDBRANCH   1   8
BRANCH   3  15
ATOM     15  C   UNL     1       3.502   5.358  19.905  0.00  0.00    +0.000 C 
BRANCH  15  16
ATOM     16  C   UNL     1       4.051   5.037  18.472  0.00  0.00    +0.000 C 
BRANCH  16  17
ATOM     17  C   UNL     1       5.497   5.514  18.263  0.00  0.00    +0.000 A 
ATOM     18  C   UNL     1       6.572   5.526  19.144  0.00  0.00    +0.000 A 
ATOM     19  C   UNL     1       7.702   6.048  18.479  0.00  0.00    +0.000 A 
ATOM     20  C   UNL     1       7.304   6.366  17.205  0.00  0.00    +0.000 A 
ATOM     21  N   UNL     1       5.958   6.108  17.097  0.00  0.00    +0.000 N 
ATOM     22  C   UNL     1       5.174   6.486  15.941  0.00  0.00    +0.000 C 
ENDBRANCH  16  17
BRANCH  16  23
ATOM     23  N   UNL     1       3.909   3.597  18.096  0.00  0.00    +0.000 NA
ATOM     24  C   UNL     1       2.742   3.326  17.242  0.00  0.00    +0.000 C 
ATOM     25  C   UNL     1       1.670   2.760  18.158  0.00  0.00    +0.000 C 
ATOM     26  C   UNL     1       2.470   1.961  19.163  0.00  0.00    +0.000 C 
ATOM     27  C   UNL     1       3.833   2.649  19.219  0.00  0.00    +0.000 C 
ENDBRANCH  16  23
ENDBRANCH  15  16
ENDBRANCH   3  15
TORSDOF 7
ENDMDL
MODEL 5
REMARK VINA RESULT:      -7.3      3.443      7.753
REMARK  Name = 
REMARK  10 active torsions:
REMARK  status: ('A' for Active; 'I' for Inactive)
REMARK    1  A    between atoms: C_1  and  O_2
REMARK    2  A    between atoms: O_2  and  C_3
REMARK    3  A    between atoms: C_6  and  C_7
REMARK    4  A    between atoms: N_9  and  C_10
REMARK    5  A    between atoms: C_10  and  C_11
REMARK    6  A    between atoms: C_11  and  C_12
REMARK    7  A    between atoms: C_11  and  N_18
REMARK    8  A    between atoms: N_16  and  C_17
REMARK    9  A    between atoms: C_23  and  O_24
REMARK   10  A    between atoms: O_24  and  C_25
REMARK                            x       y       z     vdW  Elec       q    Type
REMARK                         _______ _______ _______ _____ _____    ______ ____
ROOT
ATOM      1  C   UNL     1       2.049   8.475  18.548  0.00  0.00    +0.000 C 
ATOM      2  O   UNL     1       2.141   9.149  17.529  0.00  0.00    +0.000 OA
ATOM      3  N   UNL     1       2.645   7.230  18.660  0.00  0.00    +0.000 N 
ATOM      4  H   UNL     1       2.331   6.614  19.395  0.00  0.00    +0.000 HD
ENDROOT
BRANCH   1   8
ATOM      5  C   UNL     1      -0.049   9.883  22.058  0.00  0.00    +0.000 A 
ATOM      6  C   UNL     1       1.000   8.973  22.170  0.00  0.00    +0.000 A 
ATOM      7  C   UNL     1       1.659   8.507  21.029  0.00  0.00    +0.000 A 
ATOM      8  C   UNL     1       1.280   8.946  19.750  0.00  0.00    +0.000 A 
ATOM      9  C   UNL     1       0.214   9.862  19.631  0.00  0.00    +0.000 A 
ATOM     10  C   UNL     1      -0.449  10.308  20.790  0.00  0.00    +0.000 A 
BRANCH   5  12
ATOM     11  C   UNL     1      -1.544  11.338  23.195  0.00  0.00    +0.000 C 
ATOM     12  O   UNL     1      -0.592  10.282  23.247  0.00  0.00    +0.000 OA
ENDBRANCH   5  12
BRANCH   9  13
ATOM     13  O   UNL     1      -0.194  10.237  18.371  0.00  0.00    +0.000 OA
ATOM     14  C   UNL     1      -1.087  11.343  18.312  0.00  0.00    +0.000 C 
ENDBRANCH   9  13
ENDBRANCH   1   8
BRANCH   3  15
ATOM     15  C   UNL     1       3.251   6.587  17.504  0.00  0.00    +0.000 C 
BRANCH  15  16
ATOM     16  C   UNL     1       3.819   5.136  17.683  0.00  0.00    +0.000 C 
BRANCH  16  17
ATOM     17  C   UNL     1       5.341   5.109  17.889  0.00  0.00    +0.000 A 
ATOM     18  C   UNL     1       6.124   5.724  18.859  0.00  0.00    +0.000 A 
ATOM     19  C   UNL     1       7.477   5.386  18.637  0.00  0.00    +0.000 A 
ATOM     20  C   UNL     1       7.510   4.583  17.525  0.00  0.00    +0.000 A 
ATOM     21  N   UNL     1       6.230   4.473  17.034  0.00  0.00    +0.000 N 
ATOM     22  C   UNL     1       5.922   3.837  15.772  0.00  0.00    +0.000 C 
ENDBRANCH  16  17
BRANCH  16  23
ATOM     23  N   UNL     1       3.125   4.360  18.755  0.00  0.00    +0.000 NA
ATOM     24  C   UNL     1       3.836   3.132  19.145  0.00  0.00    +0.000 C 
ATOM     25  C   UNL     1       3.125   1.990  18.438  0.00  0.00    +0.000 C 
ATOM     26  C   UNL     1       1.680   2.437  18.441  0.00  0.00    +0.000 C 
ATOM     27  C   UNL     1       1.739   3.963  18.460  0.00  0.00    +0.000 C 
ENDBRANCH  16  23
ENDBRANCH  15  16
ENDBRANCH   3  15
TORSDOF 7
ENDMDL
MODEL 6
REMARK VINA RESULT:      -7.3      3.415      7.859
REMARK  Name = 
REMARK  10 active torsions:
REMARK  status: ('A' for Active; 'I' for Inactive)
REMARK    1  A    between atoms: C_1  and  O_2
REMARK    2  A    between atoms: O_2  and  C_3
REMARK    3  A    between atoms: C_6  and  C_7
REMARK    4  A    between atoms: N_9  and  C_10
REMARK    5  A    between atoms: C_10  and  C_11
REMARK    6  A    between atoms: C_11  and  C_12
REMARK    7  A    between atoms: C_11  and  N_18
REMARK    8  A    between atoms: N_16  and  C_17
REMARK    9  A    between atoms: C_23  and  O_24
REMARK   10  A    between atoms: O_24  and  C_25
REMARK                            x       y       z     vdW  Elec       q    Type
REMARK                         _______ _______ _______ _____ _____    ______ ____
ROOT
ATOM      1  C   UNL     1       2.016   8.383  18.700  0.00  0.00    +0.000 C 
ATOM      2  O   UNL     1       1.955   8.790  17.545  0.00  0.00    +0.000 OA
ATOM      3  N   UNL     1       2.746   7.257  19.043  0.00  0.00    +0.000 N 
ATOM      4  H   UNL     1       2.559   6.818  19.932  0.00  0.00    +0.000 HD
ENDROOT
BRANCH   1   8
ATOM      5  C   UNL     1       0.066  10.342  22.027  0.00  0.00    +0.000 A 
ATOM      6  C   UNL     1       0.453   9.006  22.111  0.00  0.00    +0.000 A 
ATOM      7  C   UNL     1       1.063   8.375  21.024  0.00  0.00    +0.000 A 
ATOM      8  C   UNL     1       1.301   9.071  19.828  0.00  0.00    +0.000 A 
ATOM      9  C   UNL     1       0.905  10.422  19.735  0.00  0.00    +0.000 A 
ATOM     10  C   UNL     1       0.276  11.037  20.834  0.00  0.00    +0.000 A 
BRANCH   5  12
ATOM     11  C   UNL     1      -1.207  12.075  23.036  0.00  0.00    +0.000 C 
ATOM     12  O   UNL     1      -0.495  10.850  23.164  0.00  0.00    +0.000 OA
ENDBRANCH   5  12
BRANCH   9  13
ATOM     13  O   UNL     1       1.082  11.079  18.538  0.00  0.00    +0.000 OA
ATOM     14  C   UNL     1       1.451  12.449  18.632  0.00  0.00    +0.000 C 
ENDBRANCH   9  13
ENDBRANCH   1   8
BRANCH   3  15
ATOM     15  C   UNL     1       3.322   6.402  18.017  0.00  0.00    +0.000 C 
BRANCH  15  16
ATOM     16  C   UNL     1       3.901   5.012  18.458  0.00  0.00    +0.000 C 
BRANCH  16  17
ATOM     17  C   UNL     1       2.815   3.943  18.647  0.00  0.00    +0.000 A 
ATOM     18  C   UNL     1       1.498   3.916  18.202  0.00  0.00    +0.000 A 
ATOM     19  C   UNL     1       0.899   2.706  18.617  0.00  0.00    +0.000 A 
ATOM     20  C   UNL     1       1.849   2.014  19.325  0.00  0.00    +0.000 A 
ATOM     21  N   UNL     1       2.981   2.791  19.402  0.00  0.00    +0.000 N 
ATOM     22  C   UNL     1       4.122   2.442  20.220  0.00  0.00    +0.000 C 
ENDBRANCH  16  17
BRANCH  16  23
ATOM     23  N   UNL     1       4.985   4.513  17.557  0.00  0.00    +0.000 NA
ATOM     24  C   UNL     1       6.329   4.609  18.148  0.00  0.00    +0.000 C 
ATOM     25  C   UNL     1       6.969   5.847  17.541  0.00  0.00    +0.000 C 
ATOM     26  C   UNL     1       6.415   5.860  16.134  0.00  0.00    +0.000 C 
ATOM     27  C   UNL     1       5.063   5.156  16.236  0.00  0.00    +0.000 C 
ENDBRANCH  16  23
ENDBRANCH  15  16
ENDBRANCH   3  15
TORSDOF 7
ENDMDL
MODEL 7
REMARK VINA RESULT:      -7.3      3.780      8.078
REMARK  Name = 
REMARK  10 active torsions:
REMARK  status: ('A' for Active; 'I' for Inactive)
REMARK    1  A    between atoms: C_1  and  O_2
REMARK    2  A    between atoms: O_2  and  C_3
REMARK    3  A    between atoms: C_6  and  C_7
REMARK    4  A    between atoms: N_9  and  C_10
REMARK    5  A    between atoms: C_10  and  C_11
REMARK    6  A    between atoms: C_11  and  C_12
REMARK    7  A    between atoms: C_11  and  N_18
REMARK    8  A    between atoms: N_16  and  C_17
REMARK    9  A    between atoms: C_23  and  O_24
REMARK   10  A    between atoms: O_24  and  C_25
REMARK                            x       y       z     vdW  Elec       q    Type
REMARK                         _______ _______ _______ _____ _____    ______ ____
ROOT
ATOM      1  C   UNL     1       1.754   9.103  18.436  0.00  0.00    +0.000 C 
ATOM      2  O   UNL     1       2.183   9.622  17.412  0.00  0.00    +0.000 OA
ATOM      3  N   UNL     1       2.143   7.836  18.834  0.00  0.00    +0.000 N 
ATOM      4  H   UNL     1       1.581   7.356  19.521  0.00  0.00    +0.000 HD
ENDROOT
BRANCH   1   8
ATOM      5  C   UNL     1      -0.981  11.211  21.041  0.00  0.00    +0.000 A 
ATOM      6  C   UNL     1       0.244  10.745  21.516  0.00  0.00    +0.000 A 
ATOM      7  C   UNL     1       1.112  10.047  20.674  0.00  0.00    +0.000 A 
ATOM      8  C   UNL     1       0.772   9.802  19.333  0.00  0.00    +0.000 A 
ATOM      9  C   UNL     1      -0.470  10.265  18.849  0.00  0.00    +0.000 A 
ATOM     10  C   UNL     1      -1.339  10.952  19.717  0.00  0.00    +0.000 A 
BRANCH   5  12
ATOM     11  C   UNL     1      -1.062  12.930  22.678  0.00  0.00    +0.000 C 
ATOM     12  O   UNL     1      -1.726  11.901  21.955  0.00  0.00    +0.000 OA
ENDBRANCH   5  12
BRANCH   9  13
ATOM     13  O   UNL     1      -0.824   9.966  17.553  0.00  0.00    +0.000 OA
ATOM     14  C   UNL     1      -2.206  10.093  17.243  0.00  0.00    +0.000 C 
ENDBRANCH   9  13
ENDBRANCH   1   8
BRANCH   3  15
ATOM     15  C   UNL     1       2.937   6.990  17.955  0.00  0.00    +0.000 C 
BRANCH  15  16
ATOM     16  C   UNL     1       3.588   5.700  18.567  0.00  0.00    +0.000 C 
BRANCH  16  17
ATOM     17  C   UNL     1       2.593   4.539  18.714  0.00  0.00    +0.000 A 
ATOM     18  C   UNL     1       2.009   3.733  17.743  0.00  0.00    +0.000 A 
ATOM     19  C   UNL     1       1.171   2.789  18.377  0.00  0.00    +0.000 A 
ATOM     20  C   UNL     1       1.238   3.038  19.724  0.00  0.00    +0.000 A 
ATOM     21  N   UNL     1       2.040   4.136  19.921  0.00  0.00    +0.000 N 
ATOM     22  C   UNL     1       2.195   4.779  21.208  0.00  0.00    +0.000 C 
ENDBRANCH  16  17
BRANCH  16  23
ATOM     23  N   UNL     1       4.816   5.258  17.839  0.00  0.00    +0.000 NA
ATOM     24  C   UNL     1       5.795   4.576  18.699  0.00  0.00    +0.000 C 
ATOM     25  C   UNL     1       6.865   5.608  19.021  0.00  0.00    +0.000 C 
ATOM     26  C   UNL     1       6.941   6.424  17.750  0.00  0.00    +0.000 C 
ATOM     27  C   UNL     1       5.551   6.316  17.127  0.00  0.00    +0.000 C 
ENDBRANCH  16  23
ENDBRANCH  15  16
ENDBRANCH   3  15
TORSDOF 7
ENDMDL
MODEL 8
REMARK VINA RESULT:      -7.3      3.962      8.210
REMARK  Name = 
REMARK  10 active torsions:
REMARK  status: ('A' for Active; 'I' for Inactive)
REMARK    1  A    between atoms: C_1  and  O_2
REMARK    2  A    between atoms: O_2  and  C_3
REMARK    3  A    between atoms: C_6  and  C_7
REMARK    4  A    between atoms: N_9  and  C_10
REMARK    5  A    between atoms: C_10  and  C_11
REMARK    6  A    between atoms: C_11  and  C_12
REMARK    7  A    between atoms: C_11  and  N_18
REMARK    8  A    between atoms: N_16  and  C_17
REMARK    9  A    between atoms: C_23  and  O_24
REMARK   10  A    between atoms: O_24  and  C_25
REMARK                            x       y       z     vdW  Elec       q    Type
REMARK                         _______ _______ _______ _____ _____    ______ ____
ROOT
ATOM      1  C   UNL     1       1.639   9.350  18.400  0.00  0.00    +0.000 C 
ATOM      2  O   UNL     1       2.205   9.796  17.408  0.00  0.00    +0.000 OA
ATOM      3  N   UNL     1       1.929   8.095  18.908  0.00  0.00    +0.000 N 
ATOM      4  H   UNL     1       1.272   7.675  19.548  0.00  0.00    +0.000 HD
ENDROOT
BRANCH   1   8
ATOM      5  C   UNL     1      -1.304  11.705  20.521  0.00  0.00    +0.000 A 
ATOM      6  C   UNL     1      -0.049  11.462  21.075  0.00  0.00    +0.000 A 
ATOM      7  C   UNL     1       0.889  10.683  20.393  0.00  0.00    +0.000 A 
ATOM      8  C   UNL     1       0.588  10.131  19.137  0.00  0.00    +0.000 A 
ATOM      9  C   UNL     1      -0.684  10.368  18.575  0.00  0.00    +0.000 A 
ATOM     10  C   UNL     1      -1.622  11.141  19.284  0.00  0.00    +0.000 A 
BRANCH   5  12
ATOM     11  C   UNL     1      -3.196  13.139  20.596  0.00  0.00    +0.000 C 
ATOM     12  O   UNL     1      -2.120  12.502  21.274  0.00  0.00    +0.000 OA
ENDBRANCH   5  12
BRANCH   9  13
ATOM     13  O   UNL     1      -0.995   9.770  17.374  0.00  0.00    +0.000 OA
ATOM     14  C   UNL     1      -2.323   9.971  16.906  0.00  0.00    +0.000 C 
ENDBRANCH   9  13
ENDBRANCH   1   8
BRANCH   3  15
ATOM     15  C   UNL     1       2.786   7.175  18.176  0.00  0.00    +0.000 C 
BRANCH  15  16
ATOM     16  C   UNL     1       3.529   6.058  18.988  0.00  0.00    +0.000 C 
BRANCH  16  17
ATOM     17  C   UNL     1       2.574   5.008  19.576  0.00  0.00    +0.000 A 
ATOM     18  C   UNL     1       2.214   4.766  20.897  0.00  0.00    +0.000 A 
ATOM     19  C   UNL     1       1.289   3.699  20.930  0.00  0.00    +0.000 A 
ATOM     20  C   UNL     1       1.106   3.289  19.633  0.00  0.00    +0.000 A 
ATOM     21  N   UNL     1       1.934   4.032  18.826  0.00  0.00    +0.000 N 
ATOM     22  C   UNL     1       2.123   3.750  17.419  0.00  0.00    +0.000 C 
ENDBRANCH  16  17
BRANCH  16  23
ATOM     23  N   UNL     1       4.629   5.401  18.217  0.00  0.00    +0.000 NA
ATOM     24  C   UNL     1       5.581   4.665  19.063  0.00  0.00    +0.000 C 
ATOM     25  C   UNL     1       6.794   5.568  19.216  0.00  0.00    +0.000 C 
ATOM     26  C   UNL     1       6.869   6.265  17.876  0.00  0.00    +0.000 C 
ATOM     27  C   UNL     1       5.430   6.293  17.365  0.00  0.00    +0.000 C 
ENDBRANCH  16  23
ENDBRANCH  15  16
ENDBRANCH   3  15
TORSDOF 7
ENDMDL
MODEL 9
REMARK VINA RESULT:      -7.3      3.137      6.901
REMARK  Name = 
REMARK  10 active torsions:
REMARK  status: ('A' for Active; 'I' for Inactive)
REMARK    1  A    between atoms: C_1  and  O_2
REMARK    2  A    between atoms: O_2  and  C_3
REMARK    3  A    between atoms: C_6  and  C_7
REMARK    4  A    between atoms: N_9  and  C_10
REMARK    5  A    between atoms: C_10  and  C_11
REMARK    6  A    between atoms: C_11  and  C_12
REMARK    7  A    between atoms: C_11  and  N_18
REMARK    8  A    between atoms: N_16  and  C_17
REMARK    9  A    between atoms: C_23  and  O_24
REMARK   10  A    between atoms: O_24  and  C_25
REMARK                            x       y       z     vdW  Elec       q    Type
REMARK                         _______ _______ _______ _____ _____    ______ ____
ROOT
ATOM      1  C   UNL     1       2.565   7.748  18.855  0.00  0.00    +0.000 C 
ATOM      2  O   UNL     1       3.418   7.857  17.982  0.00  0.00    +0.000 OA
ATOM      3  N   UNL     1       2.597   6.724  19.786  0.00  0.00    +0.000 N 
ATOM      4  H   UNL     1       1.756   6.524  20.307  0.00  0.00    +0.000 HD
ENDROOT
BRANCH   1   8
ATOM      5  C   UNL     1      -0.807  10.442  19.137  0.00  0.00    +0.000 A 
ATOM      6  C   UNL     1      -0.263  10.105  17.900  0.00  0.00    +0.000 A 
ATOM      7  C   UNL     1       0.840   9.251  17.818  0.00  0.00    +0.000 A 
ATOM      8  C   UNL     1       1.420   8.713  18.979  0.00  0.00    +0.000 A 
ATOM      9  C   UNL     1       0.877   9.056  20.235  0.00  0.00    +0.000 A 
ATOM     10  C   UNL     1      -0.223   9.931  20.298  0.00  0.00    +0.000 A 
BRANCH   5  12
ATOM     11  C   UNL     1      -2.804  11.052  18.005  0.00  0.00    +0.000 C 
ATOM     12  O   UNL     1      -1.898  11.263  19.081  0.00  0.00    +0.000 OA
ENDBRANCH   5  12
BRANCH   9  13
ATOM     13  O   UNL     1       1.491   8.577  21.371  0.00  0.00    +0.000 OA
ATOM     14  C   UNL     1       1.166   9.249  22.581  0.00  0.00    +0.000 C 
ENDBRANCH   9  13
ENDBRANCH   1   8
BRANCH   3  15
ATOM     15  C   UNL     1       3.541   5.625  19.654  0.00  0.00    +0.000 C 
BRANCH  15  16
ATOM     16  C   UNL     1       3.316   4.597  18.491  0.00  0.00    +0.000 C 
BRANCH  16  17
ATOM     17  C   UNL     1       4.532   4.468  17.561  0.00  0.00    +0.000 A 
ATOM     18  C   UNL     1       4.621   3.956  16.271  0.00  0.00    +0.000 A 
ATOM     19  C   UNL     1       5.957   4.070  15.827  0.00  0.00    +0.000 A 
ATOM     20  C   UNL     1       6.673   4.632  16.853  0.00  0.00    +0.000 A 
ATOM     21  N   UNL     1       5.827   4.808  17.923  0.00  0.00    +0.000 N 
ATOM     22  C   UNL     1       6.287   5.222  19.231  0.00  0.00    +0.000 C 
ENDBRANCH  16  17
BRANCH  16  23
ATOM     23  N   UNL     1       2.870   3.253  18.970  0.00  0.00    +0.000 NA
ATOM     24  C   UNL     1       1.439   2.996  18.749  0.00  0.00    +0.000 C 
ATOM     25  C   UNL     1       0.755   3.236  20.085  0.00  0.00    +0.000 C 
ATOM     26  C   UNL     1       1.787   2.760  21.084  0.00  0.00    +0.000 C 
ATOM     27  C   UNL     1       3.132   2.964  20.389  0.00  0.00    +0.000 C 
ENDBRANCH  16  23
ENDBRANCH  15  16
ENDBRANCH   3  15
TORSDOF 7
ENDMDL
