MODEL 1
REMARK VINA RESULT:      -7.9      0.000      0.000
REMARK  Name = 
REMARK  7 active torsions:
REMARK  status: ('A' for Active; 'I' for Inactive)
REMARK    1  A    between atoms: C_1  and  C_2
REMARK    2  A    between atoms: C_2  and  C_3
REMARK    3  A    between atoms: C_2  and  C_4
REMARK    4  A    between atoms: C_4  and  C_5
REMARK    5  A    between atoms: C_5  and  N_6
REMARK    6  A    between atoms: C_7  and  C_9
REMARK    7  A    between atoms: N_11  and  C_12
REMARK                            x       y       z     vdW  Elec       q    Type
REMARK                         _______ _______ _______ _____ _____    ______ ____
ROOT
ATOM      1  C   UNL     1       5.496   4.528  16.258  0.00  0.00    +0.000 A 
ATOM      2  N   UNL     1       5.080   3.265  16.473  0.00  0.00    +0.000 NA
ATOM      3  N   UNL     1       4.162   3.375  17.466  0.00  0.00    +0.000 N 
ATOM      4  C   UNL     1       3.505   2.164  17.899  0.00  0.00    +0.000 C 
ATOM      5  C   UNL     1       3.975   4.663  17.907  0.00  0.00    +0.000 A 
ATOM      6  C   UNL     1       4.826   5.431  17.122  0.00  0.00    +0.000 A 
ATOM      7  C   UNL     1       4.988   6.901  17.222  0.00  0.00    +0.000 C 
ATOM      8  S   UNL     1       3.414   7.723  17.641  0.00  0.00    +0.000 S 
ATOM      9  C   UNL     1       2.794   6.608  18.911  0.00  0.00    +0.000 A 
ATOM     10  C   UNL     1       1.972   7.189  19.888  0.00  0.00    +0.000 A 
ATOM     11  C   UNL     1       1.429   6.411  20.904  0.00  0.00    +0.000 A 
ATOM     12  C   UNL     1       1.698   5.048  20.944  0.00  0.00    +0.000 A 
ATOM     13  C   UNL     1       2.518   4.457  19.973  0.00  0.00    +0.000 A 
ATOM     14  C   UNL     1       3.075   5.217  18.936  0.00  0.00    +0.000 A 
ENDROOT
BRANCH   1  16
ATOM     15  N   UNL     1       6.330   4.253  14.027  0.00  0.00    +0.000 N 
ATOM     16  C   UNL     1       6.518   4.861  15.247  0.00  0.00    +0.000 C 
ATOM     17  O   UNL     1       7.454   5.623  15.475  0.00  0.00    +0.000 OA
ATOM     18  H   UNL     1       5.554   3.601  13.969  0.00  0.00    +0.000 HD
BRANCH  15  19
ATOM     19  C   UNL     1       7.231   4.460  12.915  0.00  0.00    +0.000 C 
BRANCH  19  20
ATOM     20  C   UNL     1       6.812   3.689  11.660  0.00  0.00    +0.000 C 
BRANCH  20  22
ATOM     21  C   UNL     1       4.341   3.176  11.308  0.00  0.00    +0.000 C 
ATOM     22  C   UNL     1       5.670   2.679  11.878  0.00  0.00    +0.000 C 
ATOM     23  C   UNL     1       6.030   1.335  11.239  0.00  0.00    +0.000 C 
ENDBRANCH  20  22
ENDBRANCH  19  20
ENDBRANCH  15  19
ENDBRANCH   1  16
TORSDOF 4
ENDMDL
MODEL 2
REMARK VINA RESULT:      -7.6      1.845      2.610
REMARK  Name = 
REMARK  7 active torsions:
REMARK  status: ('A' for Active; 'I' for Inactive)
REMARK    1  A    between atoms: C_1  and  C_2
REMARK    2  A    between atoms: C_2  and  C_3
REMARK    3  A    between atoms: C_2  and  C_4
REMARK    4  A    between atoms: C_4  and  C_5
REMARK    5  A    between atoms: C_5  and  N_6
REMARK    6  A    between atoms: C_7  and  C_9
REMARK    7  A    between atoms: N_11  and  C_12
REMARK                            x       y       z     vdW  Elec       q    Type
REMARK                         _______ _______ _______ _____ _____    ______ ____
ROOT
ATOM      1  C   UNL     1       5.166   5.508  16.487  0.00  0.00    +0.000 A 
ATOM      2  N   UNL     1       4.611   6.720  16.674  0.00  0.00    +0.000 NA
ATOM      3  N   UNL     1       3.676   6.522  17.635  0.00  0.00    +0.000 N 
ATOM      4  C   UNL     1       2.922   7.673  18.075  0.00  0.00    +0.000 C 
ATOM      5  C   UNL     1       3.598   5.222  18.073  0.00  0.00    +0.000 A 
ATOM      6  C   UNL     1       4.573   4.548  17.346  0.00  0.00    +0.000 A 
ATOM      7  C   UNL     1       4.877   3.101  17.461  0.00  0.00    +0.000 C 
ATOM      8  S   UNL     1       4.679   2.507  19.174  0.00  0.00    +0.000 S 
ATOM      9  C   UNL     1       3.147   3.336  19.629  0.00  0.00    +0.000 A 
ATOM     10  C   UNL     1       2.356   2.678  20.583  0.00  0.00    +0.000 A 
ATOM     11  C   UNL     1       1.160   3.242  21.015  0.00  0.00    +0.000 A 
ATOM     12  C   UNL     1       0.754   4.469  20.501  0.00  0.00    +0.000 A 
ATOM     13  C   UNL     1       1.538   5.134  19.549  0.00  0.00    +0.000 A 
ATOM     14  C   UNL     1       2.748   4.590  19.099  0.00  0.00    +0.000 A 
ENDROOT
BRANCH   1  16
ATOM     15  N   UNL     1       5.910   4.396  14.498  0.00  0.00    +0.000 N 
ATOM     16  C   UNL     1       6.242   5.273  15.505  0.00  0.00    +0.000 C 
ATOM     17  O   UNL     1       7.338   5.822  15.578  0.00  0.00    +0.000 OA
ATOM     18  H   UNL     1       4.995   3.961  14.569  0.00  0.00    +0.000 HD
BRANCH  15  19
ATOM     19  C   UNL     1       6.838   4.043  13.447  0.00  0.00    +0.000 C 
BRANCH  19  20
ATOM     20  C   UNL     1       6.170   3.949  12.072  0.00  0.00    +0.000 C 
BRANCH  20  22
ATOM     21  C   UNL     1       3.960   3.172  11.068  0.00  0.00    +0.000 C 
ATOM     22  C   UNL     1       5.169   2.788  11.922  0.00  0.00    +0.000 C 
ATOM     23  C   UNL     1       5.865   1.572  11.307  0.00  0.00    +0.000 C 
ENDBRANCH  20  22
ENDBRANCH  19  20
ENDBRANCH  15  19
ENDBRANCH   1  16
TORSDOF 4
ENDMDL
MODEL 3
REMARK VINA RESULT:      -7.1      1.862      2.704
REMARK  Name = 
REMARK  7 active torsions:
REMARK  status: ('A' for Active; 'I' for Inactive)
REMARK    1  A    between atoms: C_1  and  C_2
REMARK    2  A    between atoms: C_2  and  C_3
REMARK    3  A    between atoms: C_2  and  C_4
REMARK    4  A    between atoms: C_4  and  C_5
REMARK    5  A    between atoms: C_5  and  N_6
REMARK    6  A    between atoms: C_7  and  C_9
REMARK    7  A    between atoms: N_11  and  C_12
REMARK                            x       y       z     vdW  Elec       q    Type
REMARK                         _______ _______ _______ _____ _____    ______ ____
ROOT
ATOM      1  C   UNL     1       5.188   5.290  16.031  0.00  0.00    +0.000 A 
ATOM      2  N   UNL     1       4.830   6.574  16.223  0.00  0.00    +0.000 NA
ATOM      3  N   UNL     1       3.988   6.536  17.286  0.00  0.00    +0.000 N 
ATOM      4  C   UNL     1       3.454   7.793  17.754  0.00  0.00    +0.000 C 
ATOM      5  C   UNL     1       3.781   5.272  17.783  0.00  0.00    +0.000 A 
ATOM      6  C   UNL     1       4.566   4.447  16.987  0.00  0.00    +0.000 A 
ATOM      7  C   UNL     1       4.679   2.976  17.130  0.00  0.00    +0.000 C 
ATOM      8  S   UNL     1       4.592   2.462  18.878  0.00  0.00    +0.000 S 
ATOM      9  C   UNL     1       3.248   3.511  19.457  0.00  0.00    +0.000 A 
ATOM     10  C   UNL     1       2.484   2.998  20.516  0.00  0.00    +0.000 A 
ATOM     11  C   UNL     1       1.432   3.737  21.047  0.00  0.00    +0.000 A 
ATOM     12  C   UNL     1       1.145   4.995  20.528  0.00  0.00    +0.000 A 
ATOM     13  C   UNL     1       1.904   5.517  19.472  0.00  0.00    +0.000 A 
ATOM     14  C   UNL     1       2.970   4.794  18.920  0.00  0.00    +0.000 A 
ENDROOT
BRANCH   1  16
ATOM     15  N   UNL     1       5.526   4.097  13.979  0.00  0.00    +0.000 N 
ATOM     16  C   UNL     1       6.106   4.879  14.951  0.00  0.00    +0.000 C 
ATOM     17  O   UNL     1       7.287   5.215  14.921  0.00  0.00    +0.000 OA
ATOM     18  H   UNL     1       4.557   3.837  14.136  0.00  0.00    +0.000 HD
BRANCH  15  19
ATOM     19  C   UNL     1       6.270   3.599  12.844  0.00  0.00    +0.000 C 
BRANCH  19  20
ATOM     20  C   UNL     1       5.439   2.680  11.945  0.00  0.00    +0.000 C 
BRANCH  20  22
ATOM     21  C   UNL     1       7.753   2.161  11.011  0.00  0.00    +0.000 C 
ATOM     22  C   UNL     1       6.263   1.819  10.968  0.00  0.00    +0.000 C 
ATOM     23  C   UNL     1       6.068   0.335  11.285  0.00  0.00    +0.000 C 
ENDBRANCH  20  22
ENDBRANCH  19  20
ENDBRANCH  15  19
ENDBRANCH   1  16
TORSDOF 4
ENDMDL
MODEL 4
REMARK VINA RESULT:      -7.0      1.713      2.789
REMARK  Name = 
REMARK  7 active torsions:
REMARK  status: ('A' for Active; 'I' for Inactive)
REMARK    1  A    between atoms: C_1  and  C_2
REMARK    2  A    between atoms: C_2  and  C_3
REMARK    3  A    between atoms: C_2  and  C_4
REMARK    4  A    between atoms: C_4  and  C_5
REMARK    5  A    between atoms: C_5  and  N_6
REMARK    6  A    between atoms: C_7  and  C_9
REMARK    7  A    between atoms: N_11  and  C_12
REMARK                            x       y       z     vdW  Elec       q    Type
REMARK                         _______ _______ _______ _____ _____    ______ ____
ROOT
ATOM      1  C   UNL     1       4.269   5.269  18.411  0.00  0.00    +0.000 A 
ATOM      2  N   UNL     1       3.801   4.400  19.327  0.00  0.00    +0.000 NA
ATOM      3  N   UNL     1       2.871   5.104  20.019  0.00  0.00    +0.000 N 
ATOM      4  C   UNL     1       2.161   4.411  21.069  0.00  0.00    +0.000 C 
ATOM      5  C   UNL     1       2.725   6.401  19.589  0.00  0.00    +0.000 A 
ATOM      6  C   UNL     1       3.618   6.524  18.532  0.00  0.00    +0.000 A 
ATOM      7  C   UNL     1       3.834   7.754  17.734  0.00  0.00    +0.000 C 
ATOM      8  S   UNL     1       2.286   8.693  17.515  0.00  0.00    +0.000 S 
ATOM      9  C   UNL     1       1.601   8.580  19.177  0.00  0.00    +0.000 A 
ATOM     10  C   UNL     1       0.785   9.649  19.576  0.00  0.00    +0.000 A 
ATOM     11  C   UNL     1       0.194   9.651  20.835  0.00  0.00    +0.000 A 
ATOM     12  C   UNL     1       0.411   8.582  21.697  0.00  0.00    +0.000 A 
ATOM     13  C   UNL     1       1.225   7.510  21.308  0.00  0.00    +0.000 A 
ATOM     14  C   UNL     1       1.829   7.481  20.044  0.00  0.00    +0.000 A 
ENDROOT
BRANCH   1  16
ATOM     15  N   UNL     1       4.907   4.044  16.452  0.00  0.00    +0.000 N 
ATOM     16  C   UNL     1       5.320   4.906  17.441  0.00  0.00    +0.000 C 
ATOM     17  O   UNL     1       6.466   5.343  17.511  0.00  0.00    +0.000 OA
ATOM     18  H   UNL     1       3.953   3.705  16.526  0.00  0.00    +0.000 HD
BRANCH  15  19
ATOM     19  C   UNL     1       5.799   3.576  15.415  0.00  0.00    +0.000 C 
BRANCH  19  20
ATOM     20  C   UNL     1       5.613   4.322  14.090  0.00  0.00    +0.000 C 
BRANCH  20  22
ATOM     21  C   UNL     1       4.768   3.323  11.903  0.00  0.00    +0.000 C 
ATOM     22  C   UNL     1       5.967   3.500  12.836  0.00  0.00    +0.000 C 
ATOM     23  C   UNL     1       7.113   4.171  12.075  0.00  0.00    +0.000 C 
ENDBRANCH  20  22
ENDBRANCH  19  20
ENDBRANCH  15  19
ENDBRANCH   1  16
TORSDOF 4
ENDMDL
MODEL 5
REMARK VINA RESULT:      -6.6      2.129      3.420
REMARK  Name = 
REMARK  7 active torsions:
REMARK  status: ('A' for Active; 'I' for Inactive)
REMARK    1  A    between atoms: C_1  and  C_2
REMARK    2  A    between atoms: C_2  and  C_3
REMARK    3  A    between atoms: C_2  and  C_4
REMARK    4  A    between atoms: C_4  and  C_5
REMARK    5  A    between atoms: C_5  and  N_6
REMARK    6  A    between atoms: C_7  and  C_9
REMARK    7  A    between atoms: N_11  and  C_12
REMARK                            x       y       z     vdW  Elec       q    Type
REMARK                         _______ _______ _______ _____ _____    ______ ____
ROOT
ATOM      1  C   UNL     1       3.768   6.107  18.182  0.00  0.00    +0.000 A 
ATOM      2  N   UNL     1       3.456   5.150  19.076  0.00  0.00    +0.000 NA
ATOM      3  N   UNL     1       2.576   5.745  19.918  0.00  0.00    +0.000 N 
ATOM      4  C   UNL     1       2.030   4.939  20.985  0.00  0.00    +0.000 C 
ATOM      5  C   UNL     1       2.313   7.058  19.607  0.00  0.00    +0.000 A 
ATOM      6  C   UNL     1       3.070   7.308  18.469  0.00  0.00    +0.000 A 
ATOM      7  C   UNL     1       3.127   8.601  17.747  0.00  0.00    +0.000 C 
ATOM      8  S   UNL     1       1.516   9.456  17.774  0.00  0.00    +0.000 S 
ATOM      9  C   UNL     1       1.034   9.187  19.489  0.00  0.00    +0.000 A 
ATOM     10  C   UNL     1       0.214  10.173  20.056  0.00  0.00    +0.000 A 
ATOM     11  C   UNL     1      -0.227  10.052  21.369  0.00  0.00    +0.000 A 
ATOM     12  C   UNL     1       0.145   8.942  22.119  0.00  0.00    +0.000 A 
ATOM     13  C   UNL     1       0.964   7.950  21.561  0.00  0.00    +0.000 A 
ATOM     14  C   UNL     1       1.419   8.046  20.239  0.00  0.00    +0.000 A 
ENDROOT
BRANCH   1  16
ATOM     15  N   UNL     1       5.522   4.773  17.239  0.00  0.00    +0.000 N 
ATOM     16  C   UNL     1       4.718   5.877  17.076  0.00  0.00    +0.000 C 
ATOM     17  O   UNL     1       4.779   6.609  16.092  0.00  0.00    +0.000 OA
ATOM     18  H   UNL     1       5.422   4.274  18.117  0.00  0.00    +0.000 HD
BRANCH  15  19
ATOM     19  C   UNL     1       6.514   4.391  16.259  0.00  0.00    +0.000 C 
BRANCH  19  20
ATOM     20  C   UNL     1       5.915   3.634  15.070  0.00  0.00    +0.000 C 
BRANCH  20  22
ATOM     21  C   UNL     1       7.430   5.043  13.580  0.00  0.00    +0.000 C 
ATOM     22  C   UNL     1       6.077   4.342  13.711  0.00  0.00    +0.000 C 
ATOM     23  C   UNL     1       5.911   3.333  12.572  0.00  0.00    +0.000 C 
ENDBRANCH  20  22
ENDBRANCH  19  20
ENDBRANCH  15  19
ENDBRANCH   1  16
TORSDOF 4
ENDMDL
MODEL 6
REMARK VINA RESULT:      -6.6      5.299      7.937
REMARK  Name = 
REMARK  7 active torsions:
REMARK  status: ('A' for Active; 'I' for Inactive)
REMARK    1  A    between atoms: C_1  and  C_2
REMARK    2  A    between atoms: C_2  and  C_3
REMARK    3  A    between atoms: C_2  and  C_4
REMARK    4  A    between atoms: C_4  and  C_5
REMARK    5  A    between atoms: C_5  and  N_6
REMARK    6  A    between atoms: C_7  and  C_9
REMARK    7  A    between atoms: N_11  and  C_12
REMARK                            x       y       z     vdW  Elec       q    Type
REMARK                         _______ _______ _______ _____ _____    ______ ____
ROOT
ATOM      1  C   UNL     1       1.417   8.450  20.308  0.00  0.00    +0.000 A 
ATOM      2  N   UNL     1       1.349   8.356  21.650  0.00  0.00    +0.000 NA
ATOM      3  N   UNL     1       0.487   9.337  22.016  0.00  0.00    +0.000 N 
ATOM      4  C   UNL     1       0.186   9.464  23.423  0.00  0.00    +0.000 C 
ATOM      5  C   UNL     1       0.001  10.070  20.960  0.00  0.00    +0.000 A 
ATOM      6  C   UNL     1       0.585   9.497  19.836  0.00  0.00    +0.000 A 
ATOM      7  C   UNL     1       0.371   9.945  18.439  0.00  0.00    +0.000 C 
ATOM      8  S   UNL     1      -1.336  10.532  18.176  0.00  0.00    +0.000 S 
ATOM      9  C   UNL     1      -1.582  11.495  19.678  0.00  0.00    +0.000 A 
ATOM     10  C   UNL     1      -2.472  12.574  19.573  0.00  0.00    +0.000 A 
ATOM     11  C   UNL     1      -2.744  13.372  20.679  0.00  0.00    +0.000 A 
ATOM     12  C   UNL     1      -2.133  13.090  21.896  0.00  0.00    +0.000 A 
ATOM     13  C   UNL     1      -1.243  12.014  22.011  0.00  0.00    +0.000 A 
ATOM     14  C   UNL     1      -0.954  11.193  20.913  0.00  0.00    +0.000 A 
ENDROOT
BRANCH   1  16
ATOM     15  N   UNL     1       2.723   6.444  20.163  0.00  0.00    +0.000 N 
ATOM     16  C   UNL     1       2.264   7.556  19.495  0.00  0.00    +0.000 C 
ATOM     17  O   UNL     1       2.531   7.785  18.318  0.00  0.00    +0.000 OA
ATOM     18  H   UNL     1       2.484   6.387  21.149  0.00  0.00    +0.000 HD
BRANCH  15  19
ATOM     19  C   UNL     1       3.567   5.457  19.529  0.00  0.00    +0.000 C 
BRANCH  19  20
ATOM     20  C   UNL     1       3.147   4.020  19.851  0.00  0.00    +0.000 C 
BRANCH  20  22
ATOM     21  C   UNL     1       0.751   3.218  19.515  0.00  0.00    +0.000 C 
ATOM     22  C   UNL     1       1.742   3.885  20.469  0.00  0.00    +0.000 C 
ATOM     23  C   UNL     1       1.818   3.085  21.771  0.00  0.00    +0.000 C 
ENDBRANCH  20  22
ENDBRANCH  19  20
ENDBRANCH  15  19
ENDBRANCH   1  16
TORSDOF 4
ENDMDL
MODEL 7
REMARK VINA RESULT:      -6.5      1.925      3.222
REMARK  Name = 
REMARK  7 active torsions:
REMARK  status: ('A' for Active; 'I' for Inactive)
REMARK    1  A    between atoms: C_1  and  C_2
REMARK    2  A    between atoms: C_2  and  C_3
REMARK    3  A    between atoms: C_2  and  C_4
REMARK    4  A    between atoms: C_4  and  C_5
REMARK    5  A    between atoms: C_5  and  N_6
REMARK    6  A    between atoms: C_7  and  C_9
REMARK    7  A    between atoms: N_11  and  C_12
REMARK                            x       y       z     vdW  Elec       q    Type
REMARK                         _______ _______ _______ _____ _____    ______ ____
ROOT
ATOM      1  C   UNL     1       3.822   5.008  18.392  0.00  0.00    +0.000 A 
ATOM      2  N   UNL     1       3.352   4.230  19.386  0.00  0.00    +0.000 NA
ATOM      3  N   UNL     1       2.582   5.060  20.132  0.00  0.00    +0.000 N 
ATOM      4  C   UNL     1       1.906   4.490  21.275  0.00  0.00    +0.000 C 
ATOM      5  C   UNL     1       2.543   6.351  19.663  0.00  0.00    +0.000 A 
ATOM      6  C   UNL     1       3.334   6.334  18.521  0.00  0.00    +0.000 A 
ATOM      7  C   UNL     1       3.608   7.504  17.653  0.00  0.00    +0.000 C 
ATOM      8  S   UNL     1       2.162   8.612  17.543  0.00  0.00    +0.000 S 
ATOM      9  C   UNL     1       1.639   8.634  19.267  0.00  0.00    +0.000 A 
ATOM     10  C   UNL     1       0.994   9.803  19.695  0.00  0.00    +0.000 A 
ATOM     11  C   UNL     1       0.537   9.914  21.004  0.00  0.00    +0.000 A 
ATOM     12  C   UNL     1       0.716   8.856  21.887  0.00  0.00    +0.000 A 
ATOM     13  C   UNL     1       1.358   7.683  21.468  0.00  0.00    +0.000 A 
ATOM     14  C   UNL     1       1.826   7.543  20.154  0.00  0.00    +0.000 A 
ENDROOT
BRANCH   1  16
ATOM     15  N   UNL     1       5.940   5.128  17.278  0.00  0.00    +0.000 N 
ATOM     16  C   UNL     1       4.722   4.493  17.343  0.00  0.00    +0.000 C 
ATOM     17  O   UNL     1       4.409   3.570  16.596  0.00  0.00    +0.000 OA
ATOM     18  H   UNL     1       6.069   5.913  17.909  0.00  0.00    +0.000 HD
BRANCH  15  19
ATOM     19  C   UNL     1       6.951   4.760  16.311  0.00  0.00    +0.000 C 
BRANCH  19  20
ATOM     20  C   UNL     1       6.679   5.335  14.919  0.00  0.00    +0.000 C 
BRANCH  20  22
ATOM     21  C   UNL     1       5.854   3.716  13.131  0.00  0.00    +0.000 C 
ATOM     22  C   UNL     1       7.069   4.407  13.752  0.00  0.00    +0.000 C 
ATOM     23  C   UNL     1       7.812   5.202  12.676  0.00  0.00    +0.000 C 
ENDBRANCH  20  22
ENDBRANCH  19  20
ENDBRANCH  15  19
ENDBRANCH   1  16
TORSDOF 4
ENDMDL
MODEL 8
REMARK VINA RESULT:      -6.4      3.954      6.164
REMARK  Name = 
REMARK  7 active torsions:
REMARK  status: ('A' for Active; 'I' for Inactive)
REMARK    1  A    between atoms: C_1  and  C_2
REMARK    2  A    between atoms: C_2  and  C_3
REMARK    3  A    between atoms: C_2  and  C_4
REMARK    4  A    between atoms: C_4  and  C_5
REMARK    5  A    between atoms: C_5  and  N_6
REMARK    6  A    between atoms: C_7  and  C_9
REMARK    7  A    between atoms: N_11  and  C_12
REMARK                            x       y       z     vdW  Elec       q    Type
REMARK                         _______ _______ _______ _____ _____    ______ ____
ROOT
ATOM      1  C   UNL     1       5.474   6.791  17.479  0.00  0.00    +0.000 A 
ATOM      2  N   UNL     1       4.435   7.643  17.405  0.00  0.00    +0.000 NA
ATOM      3  N   UNL     1       3.352   6.886  17.713  0.00  0.00    +0.000 N 
ATOM      4  C   UNL     1       2.068   7.546  17.746  0.00  0.00    +0.000 C 
ATOM      5  C   UNL     1       3.653   5.570  17.974  0.00  0.00    +0.000 A 
ATOM      6  C   UNL     1       5.034   5.492  17.841  0.00  0.00    +0.000 A 
ATOM      7  C   UNL     1       5.842   4.263  18.024  0.00  0.00    +0.000 C 
ATOM      8  S   UNL     1       5.158   3.199  19.338  0.00  0.00    +0.000 S 
ATOM      9  C   UNL     1       3.401   3.299  18.954  0.00  0.00    +0.000 A 
ATOM     10  C   UNL     1       2.633   2.180  19.307  0.00  0.00    +0.000 A 
ATOM     11  C   UNL     1       1.263   2.163  19.068  0.00  0.00    +0.000 A 
ATOM     12  C   UNL     1       0.654   3.267  18.482  0.00  0.00    +0.000 A 
ATOM     13  C   UNL     1       1.412   4.390  18.127  0.00  0.00    +0.000 A 
ATOM     14  C   UNL     1       2.794   4.435  18.360  0.00  0.00    +0.000 A 
ENDROOT
BRANCH   1  16
ATOM     15  N   UNL     1       7.235   8.380  17.827  0.00  0.00    +0.000 N 
ATOM     16  C   UNL     1       6.862   7.211  17.205  0.00  0.00    +0.000 C 
ATOM     17  O   UNL     1       7.621   6.566  16.486  0.00  0.00    +0.000 OA
ATOM     18  H   UNL     1       6.508   8.856  18.353  0.00  0.00    +0.000 HD
BRANCH  15  19
ATOM     19  C   UNL     1       8.556   8.948  17.674  0.00  0.00    +0.000 C 
BRANCH  19  20
ATOM     20  C   UNL     1       8.888   9.980  18.755  0.00  0.00    +0.000 C 
BRANCH  20  22
ATOM     21  C   UNL     1       8.970  12.376  17.888  0.00  0.00    +0.000 C 
ATOM     22  C   UNL     1       9.782  11.141  18.281  0.00  0.00    +0.000 C 
ATOM     23  C   UNL     1      10.782  11.515  19.379  0.00  0.00    +0.000 C 
ENDBRANCH  20  22
ENDBRANCH  19  20
ENDBRANCH  15  19
ENDBRANCH   1  16
TORSDOF 4
ENDMDL
MODEL 9
REMARK VINA RESULT:      -6.4      5.349      8.172
REMARK  Name = 
REMARK  7 active torsions:
REMARK  status: ('A' for Active; 'I' for Inactive)
REMARK    1  A    between atoms: C_1  and  C_2
REMARK    2  A    between atoms: C_2  and  C_3
REMARK    3  A    between atoms: C_2  and  C_4
REMARK    4  A    between atoms: C_4  and  C_5
REMARK    5  A    between atoms: C_5  and  N_6
REMARK    6  A    between atoms: C_7  and  C_9
REMARK    7  A    between atoms: N_11  and  C_12
REMARK                            x       y       z     vdW  Elec       q    Type
REMARK                         _______ _______ _______ _____ _____    ______ ____
ROOT
ATOM      1  C   UNL     1       1.292   9.518  19.240  0.00  0.00    +0.000 A 
ATOM      2  N   UNL     1       1.495  10.643  18.527  0.00  0.00    +0.000 NA
ATOM      3  N   UNL     1       0.740  11.581  19.151  0.00  0.00    +0.000 N 
ATOM      4  C   UNL     1       0.779  12.924  18.621  0.00  0.00    +0.000 C 
ATOM      5  C   UNL     1       0.048  11.102  20.237  0.00  0.00    +0.000 A 
ATOM      6  C   UNL     1       0.406   9.762  20.320  0.00  0.00    +0.000 A 
ATOM      7  C   UNL     1      -0.088   8.807  21.340  0.00  0.00    +0.000 C 
ATOM      8  S   UNL     1      -0.330   9.615  22.957  0.00  0.00    +0.000 S 
ATOM      9  C   UNL     1      -1.112  11.152  22.436  0.00  0.00    +0.000 A 
ATOM     10  C   UNL     1      -1.990  11.736  23.361  0.00  0.00    +0.000 A 
ATOM     11  C   UNL     1      -2.633  12.932  23.063  0.00  0.00    +0.000 A 
ATOM     12  C   UNL     1      -2.395  13.554  21.843  0.00  0.00    +0.000 A 
ATOM     13  C   UNL     1      -1.518  12.980  20.912  0.00  0.00    +0.000 A 
ATOM     14  C   UNL     1      -0.856  11.776  21.189  0.00  0.00    +0.000 A 
ENDROOT
BRANCH   1  16
ATOM     15  N   UNL     1       2.214   7.429  19.969  0.00  0.00    +0.000 N 
ATOM     16  C   UNL     1       1.932   8.235  18.891  0.00  0.00    +0.000 C 
ATOM     17  O   UNL     1       2.185   7.913  17.732  0.00  0.00    +0.000 OA
ATOM     18  H   UNL     1       2.012   7.821  20.884  0.00  0.00    +0.000 HD
BRANCH  15  19
ATOM     19  C   UNL     1       2.843   6.136  19.821  0.00  0.00    +0.000 C 
BRANCH  19  20
ATOM     20  C   UNL     1       1.914   4.977  20.195  0.00  0.00    +0.000 C 
BRANCH  20  22
ATOM     21  C   UNL     1       0.789   2.802  19.488  0.00  0.00    +0.000 C 
ATOM     22  C   UNL     1       1.883   3.824  19.174  0.00  0.00    +0.000 C 
ATOM     23  C   UNL     1       1.675   4.379  17.763  0.00  0.00    +0.000 C 
ENDBRANCH  20  22
ENDBRANCH  19  20
ENDBRANCH  15  19
ENDBRANCH   1  16
TORSDOF 4
ENDMDL
