MODEL 1
REMARK VINA RESULT:      -6.2      0.000      0.000
REMARK  Name = 
REMARK  3 active torsions:
REMARK  status: ('A' for Active; 'I' for Inactive)
REMARK    1  A    between atoms: C_2  and  O_3
REMARK    2  A    between atoms: C_2  and  C_4
REMARK    3  A    between atoms: C_5  and  C_6
REMARK                            x       y       z     vdW  Elec       q    Type
REMARK                         _______ _______ _______ _____ _____    ______ ____
ROOT
ATOM      1  C   UNL     1       3.821   4.804  19.081  0.00  0.00    +0.000 C 
ATOM      2  O   UNL     1       3.132   5.079  20.065  0.00  0.00    +0.000 OA
ATOM      3  N   UNL     1       5.170   4.612  19.172  0.00  0.00    +0.000 N 
ATOM      4  C   UNL     1       6.009   4.564  18.084  0.00  0.00    +0.000 A 
ATOM      5  N   UNL     1       5.715   4.744  16.818  0.00  0.00    +0.000 NA
ATOM      6  C   UNL     1       6.907   4.592  16.177  0.00  0.00    +0.000 A 
ATOM      7  N   UNL     1       7.940   4.311  16.972  0.00  0.00    +0.000 NA
ATOM      8  N   UNL     1       7.352   4.313  18.181  0.00  0.00    +0.000 N 
ATOM      9  H   UNL     1       5.553   4.635  20.107  0.00  0.00    +0.000 HD
ATOM     10  H   UNL     1       7.909   4.107  19.001  0.00  0.00    +0.000 HD
ENDROOT
BRANCH   1  12
ATOM     11  C   UNL     1       2.381   3.598  17.441  0.00  0.00    +0.000 C 
ATOM     12  C   UNL     1       3.164   4.631  17.771  0.00  0.00    +0.000 C 
BRANCH  11  14
ATOM     13  O   UNL     1       0.889   2.333  18.728  0.00  0.00    +0.000 OA
ATOM     14  C   UNL     1       1.999   2.410  18.222  0.00  0.00    +0.000 C 
BRANCH  14  15
ATOM     15  O   UNL     1       2.894   1.410  18.279  0.00  0.00    +0.000 OA
ATOM     16  H   UNL     1       2.734   0.725  18.968  0.00  0.00    +0.000 HD
ENDBRANCH  14  15
ENDBRANCH  11  14
ENDBRANCH   1  12
TORSDOF 3
ENDMDL
MODEL 2
REMARK VINA RESULT:      -6.1      1.812      2.675
REMARK  Name = 
REMARK  3 active torsions:
REMARK  status: ('A' for Active; 'I' for Inactive)
REMARK    1  A    between atoms: C_2  and  O_3
REMARK    2  A    between atoms: C_2  and  C_4
REMARK    3  A    between atoms: C_5  and  C_6
REMARK                            x       y       z     vdW  Elec       q    Type
REMARK                         _______ _______ _______ _____ _____    ______ ____
ROOT
ATOM      1  C   UNL     1       2.465   4.043  18.057  0.00  0.00    +0.000 C 
ATOM      2  O   UNL     1       1.477   3.404  17.689  0.00  0.00    +0.000 OA
ATOM      3  N   UNL     1       3.712   3.801  17.555  0.00  0.00    +0.000 N 
ATOM      4  C   UNL     1       4.868   4.294  18.111  0.00  0.00    +0.000 A 
ATOM      5  N   UNL     1       5.008   5.002  19.207  0.00  0.00    +0.000 NA
ATOM      6  C   UNL     1       6.351   5.215  19.294  0.00  0.00    +0.000 A 
ATOM      7  N   UNL     1       7.067   4.689  18.299  0.00  0.00    +0.000 NA
ATOM      8  N   UNL     1       6.109   4.095  17.567  0.00  0.00    +0.000 N 
ATOM      9  H   UNL     1       3.758   3.120  16.809  0.00  0.00    +0.000 HD
ATOM     10  H   UNL     1       6.366   3.614  16.714  0.00  0.00    +0.000 HD
ENDROOT
BRANCH   1  12
ATOM     11  C   UNL     1       1.911   4.961  20.308  0.00  0.00    +0.000 C 
ATOM     12  C   UNL     1       2.291   5.133  19.037  0.00  0.00    +0.000 C 
BRANCH  11  14
ATOM     13  O   UNL     1       2.177   3.401  22.034  0.00  0.00    +0.000 OA
ATOM     14  C   UNL     1       1.557   3.730  21.034  0.00  0.00    +0.000 C 
BRANCH  14  15
ATOM     15  O   UNL     1       0.490   3.048  20.584  0.00  0.00    +0.000 OA
ATOM     16  H   UNL     1       0.672   2.365  19.899  0.00  0.00    +0.000 HD
ENDBRANCH  14  15
ENDBRANCH  11  14
ENDBRANCH   1  12
TORSDOF 3
ENDMDL
MODEL 3
REMARK VINA RESULT:      -6.0      1.269      1.500
REMARK  Name = 
REMARK  3 active torsions:
REMARK  status: ('A' for Active; 'I' for Inactive)
REMARK    1  A    between atoms: C_2  and  O_3
REMARK    2  A    between atoms: C_2  and  C_4
REMARK    3  A    between atoms: C_5  and  C_6
REMARK                            x       y       z     vdW  Elec       q    Type
REMARK                         _______ _______ _______ _____ _____    ______ ____
ROOT
ATOM      1  C   UNL     1       4.001   3.618  19.354  0.00  0.00    +0.000 C 
ATOM      2  O   UNL     1       3.524   3.036  20.330  0.00  0.00    +0.000 OA
ATOM      3  N   UNL     1       5.324   3.526  19.031  0.00  0.00    +0.000 N 
ATOM      4  C   UNL     1       5.948   4.349  18.125  0.00  0.00    +0.000 A 
ATOM      5  N   UNL     1       5.447   5.371  17.472  0.00  0.00    +0.000 NA
ATOM      6  C   UNL     1       6.489   5.827  16.721  0.00  0.00    +0.000 A 
ATOM      7  N   UNL     1       7.621   5.136  16.856  0.00  0.00    +0.000 NA
ATOM      8  N   UNL     1       7.262   4.212  17.764  0.00  0.00    +0.000 N 
ATOM      9  H   UNL     1       5.869   2.890  19.597  0.00  0.00    +0.000 HD
ATOM     10  H   UNL     1       7.939   3.517  18.055  0.00  0.00    +0.000 HD
ENDROOT
BRANCH   1  12
ATOM     11  C   UNL     1       1.791   4.201  18.356  0.00  0.00    +0.000 C 
ATOM     12  C   UNL     1       3.107   4.404  18.480  0.00  0.00    +0.000 C 
BRANCH  11  14
ATOM     13  O   UNL     1       0.634   2.165  18.394  0.00  0.00    +0.000 OA
ATOM     14  C   UNL     1       0.923   3.194  18.987  0.00  0.00    +0.000 C 
BRANCH  14  15
ATOM     15  O   UNL     1       0.538   3.434  20.252  0.00  0.00    +0.000 OA
ATOM     16  H   UNL     1       0.408   2.642  20.822  0.00  0.00    +0.000 HD
ENDBRANCH  14  15
ENDBRANCH  11  14
ENDBRANCH   1  12
TORSDOF 3
ENDMDL
MODEL 4
REMARK VINA RESULT:      -5.9      1.686      1.915
REMARK  Name = 
REMARK  3 active torsions:
REMARK  status: ('A' for Active; 'I' for Inactive)
REMARK    1  A    between atoms: C_2  and  O_3
REMARK    2  A    between atoms: C_2  and  C_4
REMARK    3  A    between atoms: C_5  and  C_6
REMARK                            x       y       z     vdW  Elec       q    Type
REMARK                         _______ _______ _______ _____ _____    ______ ____
ROOT
ATOM      1  C   UNL     1       4.946   3.712  19.206  0.00  0.00    +0.000 C 
ATOM      2  O   UNL     1       4.774   2.692  19.876  0.00  0.00    +0.000 OA
ATOM      3  N   UNL     1       5.987   3.838  18.332  0.00  0.00    +0.000 N 
ATOM      4  C   UNL     1       6.370   5.030  17.766  0.00  0.00    +0.000 A 
ATOM      5  N   UNL     1       5.885   6.230  17.985  0.00  0.00    +0.000 NA
ATOM      6  C   UNL     1       6.624   7.038  17.175  0.00  0.00    +0.000 A 
ATOM      7  N   UNL     1       7.545   6.409  16.444  0.00  0.00    +0.000 NA
ATOM      8  N   UNL     1       7.379   5.137  16.846  0.00  0.00    +0.000 N 
ATOM      9  H   UNL     1       6.561   3.013  18.214  0.00  0.00    +0.000 HD
ATOM     10  H   UNL     1       7.951   4.411  16.433  0.00  0.00    +0.000 HD
ENDROOT
BRANCH   1  12
ATOM     11  C   UNL     1       2.682   4.733  18.975  0.00  0.00    +0.000 C 
ATOM     12  C   UNL     1       3.973   4.817  19.317  0.00  0.00    +0.000 C 
BRANCH  11  14
ATOM     13  O   UNL     1       1.602   3.610  17.228  0.00  0.00    +0.000 OA
ATOM     14  C   UNL     1       1.923   3.607  18.407  0.00  0.00    +0.000 C 
BRANCH  14  15
ATOM     15  O   UNL     1       1.675   2.570  19.224  0.00  0.00    +0.000 OA
ATOM     16  H   UNL     1       1.510   1.704  18.786  0.00  0.00    +0.000 HD
ENDBRANCH  14  15
ENDBRANCH  11  14
ENDBRANCH   1  12
TORSDOF 3
ENDMDL
MODEL 5
REMARK VINA RESULT:      -5.9      3.443      4.696
REMARK  Name = 
REMARK  3 active torsions:
REMARK  status: ('A' for Active; 'I' for Inactive)
REMARK    1  A    between atoms: C_2  and  O_3
REMARK    2  A    between atoms: C_2  and  C_4
REMARK    3  A    between atoms: C_5  and  C_6
REMARK                            x       y       z     vdW  Elec       q    Type
REMARK                         _______ _______ _______ _____ _____    ______ ____
ROOT
ATOM      1  C   UNL     1       6.581   5.372  17.467  0.00  0.00    +0.000 C 
ATOM      2  O   UNL     1       7.681   5.918  17.356  0.00  0.00    +0.000 OA
ATOM      3  N   UNL     1       6.305   4.497  18.478  0.00  0.00    +0.000 N 
ATOM      4  C   UNL     1       5.204   3.675  18.497  0.00  0.00    +0.000 A 
ATOM      5  N   UNL     1       4.283   3.524  17.575  0.00  0.00    +0.000 NA
ATOM      6  C   UNL     1       3.439   2.592  18.099  0.00  0.00    +0.000 A 
ATOM      7  N   UNL     1       3.773   2.155  19.314  0.00  0.00    +0.000 NA
ATOM      8  N   UNL     1       4.905   2.842  19.542  0.00  0.00    +0.000 N 
ATOM      9  H   UNL     1       7.033   4.386  19.170  0.00  0.00    +0.000 HD
ATOM     10  H   UNL     1       5.388   2.721  20.424  0.00  0.00    +0.000 HD
ENDROOT
BRANCH   1  12
ATOM     11  C   UNL     1       5.564   5.450  15.192  0.00  0.00    +0.000 C 
ATOM     12  C   UNL     1       5.514   5.707  16.503  0.00  0.00    +0.000 C 
BRANCH  11  14
ATOM     13  O   UNL     1       6.416   3.799  13.766  0.00  0.00    +0.000 OA
ATOM     14  C   UNL     1       6.629   4.830  14.386  0.00  0.00    +0.000 C 
BRANCH  14  15
ATOM     15  O   UNL     1       7.797   5.491  14.316  0.00  0.00    +0.000 OA
ATOM     16  H   UNL     1       7.858   6.188  13.625  0.00  0.00    +0.000 HD
ENDBRANCH  14  15
ENDBRANCH  11  14
ENDBRANCH   1  12
TORSDOF 3
ENDMDL
MODEL 6
REMARK VINA RESULT:      -5.9      1.967      2.118
REMARK  Name = 
REMARK  3 active torsions:
REMARK  status: ('A' for Active; 'I' for Inactive)
REMARK    1  A    between atoms: C_2  and  O_3
REMARK    2  A    between atoms: C_2  and  C_4
REMARK    3  A    between atoms: C_5  and  C_6
REMARK                            x       y       z     vdW  Elec       q    Type
REMARK                         _______ _______ _______ _____ _____    ______ ____
ROOT
ATOM      1  C   UNL     1       3.530   5.021  17.552  0.00  0.00    +0.000 C 
ATOM      2  O   UNL     1       2.636   5.530  18.230  0.00  0.00    +0.000 OA
ATOM      3  N   UNL     1       4.649   5.716  17.190  0.00  0.00    +0.000 N 
ATOM      4  C   UNL     1       5.537   5.288  16.232  0.00  0.00    +0.000 A 
ATOM      5  N   UNL     1       5.463   4.222  15.470  0.00  0.00    +0.000 NA
ATOM      6  C   UNL     1       6.590   4.284  14.707  0.00  0.00    +0.000 A 
ATOM      7  N   UNL     1       7.380   5.329  14.956  0.00  0.00    +0.000 NA
ATOM      8  N   UNL     1       6.686   5.963  15.917  0.00  0.00    +0.000 N 
ATOM      9  H   UNL     1       4.730   6.646  17.577  0.00  0.00    +0.000 HD
ATOM     10  H   UNL     1       7.065   6.809  16.323  0.00  0.00    +0.000 HD
ENDROOT
BRANCH   1  12
ATOM     11  C   UNL     1       3.555   2.566  17.986  0.00  0.00    +0.000 C 
ATOM     12  C   UNL     1       3.413   3.604  17.155  0.00  0.00    +0.000 C 
BRANCH  11  14
ATOM     13  O   UNL     1       2.984   2.623  20.256  0.00  0.00    +0.000 OA
ATOM     14  C   UNL     1       3.874   2.537  19.423  0.00  0.00    +0.000 C 
BRANCH  14  15
ATOM     15  O   UNL     1       5.161   2.342  19.754  0.00  0.00    +0.000 OA
ATOM     16  H   UNL     1       5.786   2.216  19.003  0.00  0.00    +0.000 HD
ENDBRANCH  14  15
ENDBRANCH  11  14
ENDBRANCH   1  12
TORSDOF 3
ENDMDL
MODEL 7
REMARK VINA RESULT:      -5.9      1.330      1.723
REMARK  Name = 
REMARK  3 active torsions:
REMARK  status: ('A' for Active; 'I' for Inactive)
REMARK    1  A    between atoms: C_2  and  O_3
REMARK    2  A    between atoms: C_2  and  C_4
REMARK    3  A    between atoms: C_5  and  C_6
REMARK                            x       y       z     vdW  Elec       q    Type
REMARK                         _______ _______ _______ _____ _____    ______ ____
ROOT
ATOM      1  C   UNL     1       2.788   5.721  19.538  0.00  0.00    +0.000 C 
ATOM      2  O   UNL     1       1.984   6.321  20.254  0.00  0.00    +0.000 OA
ATOM      3  N   UNL     1       4.105   5.596  19.876  0.00  0.00    +0.000 N 
ATOM      4  C   UNL     1       5.080   5.174  19.004  0.00  0.00    +0.000 A 
ATOM      5  N   UNL     1       4.964   4.885  17.729  0.00  0.00    +0.000 NA
ATOM      6  C   UNL     1       6.226   4.532  17.355  0.00  0.00    +0.000 A 
ATOM      7  N   UNL     1       7.132   4.570  18.332  0.00  0.00    +0.000 NA
ATOM      8  N   UNL     1       6.388   4.995  19.368  0.00  0.00    +0.000 N 
ATOM      9  H   UNL     1       4.359   5.958  20.785  0.00  0.00    +0.000 HD
ATOM     10  H   UNL     1       6.823   5.105  20.276  0.00  0.00    +0.000 HD
ENDROOT
BRANCH   1  12
ATOM     11  C   UNL     1       1.652   3.916  18.246  0.00  0.00    +0.000 C 
ATOM     12  C   UNL     1       2.307   5.081  18.298  0.00  0.00    +0.000 C 
BRANCH  11  14
ATOM     13  O   UNL     1       1.785   1.884  19.403  0.00  0.00    +0.000 OA
ATOM     14  C   UNL     1       1.274   2.992  19.328  0.00  0.00    +0.000 C 
BRANCH  14  15
ATOM     15  O   UNL     1       0.410   3.456  20.247  0.00  0.00    +0.000 OA
ATOM     16  H   UNL     1       0.384   2.968  21.101  0.00  0.00    +0.000 HD
ENDBRANCH  14  15
ENDBRANCH  11  14
ENDBRANCH   1  12
TORSDOF 3
ENDMDL
MODEL 8
REMARK VINA RESULT:      -5.9      3.397      4.774
REMARK  Name = 
REMARK  3 active torsions:
REMARK  status: ('A' for Active; 'I' for Inactive)
REMARK    1  A    between atoms: C_2  and  O_3
REMARK    2  A    between atoms: C_2  and  C_4
REMARK    3  A    between atoms: C_5  and  C_6
REMARK                            x       y       z     vdW  Elec       q    Type
REMARK                         _______ _______ _______ _____ _____    ______ ____
ROOT
ATOM      1  C   UNL     1       6.099   4.394  17.900  0.00  0.00    +0.000 C 
ATOM      2  O   UNL     1       7.318   4.568  17.954  0.00  0.00    +0.000 OA
ATOM      3  N   UNL     1       5.465   3.465  18.675  0.00  0.00    +0.000 N 
ATOM      4  C   UNL     1       4.170   3.054  18.470  0.00  0.00    +0.000 A 
ATOM      5  N   UNL     1       3.348   3.401  17.508  0.00  0.00    +0.000 NA
ATOM      6  C   UNL     1       2.209   2.702  17.778  0.00  0.00    +0.000 A 
ATOM      7  N   UNL     1       2.265   1.941  18.872  0.00  0.00    +0.000 NA
ATOM      8  N   UNL     1       3.523   2.166  19.288  0.00  0.00    +0.000 N 
ATOM      9  H   UNL     1       6.048   2.986  19.348  0.00  0.00    +0.000 HD
ATOM     10  H   UNL     1       3.851   1.717  20.134  0.00  0.00    +0.000 HD
ENDROOT
BRANCH   1  12
ATOM     11  C   UNL     1       5.492   5.370  15.687  0.00  0.00    +0.000 C 
ATOM     12  C   UNL     1       5.291   5.243  17.003  0.00  0.00    +0.000 C 
BRANCH  11  14
ATOM     13  O   UNL     1       6.224   3.861  14.052  0.00  0.00    +0.000 OA
ATOM     14  C   UNL     1       6.518   4.763  14.822  0.00  0.00    +0.000 C 
BRANCH  14  15
ATOM     15  O   UNL     1       7.749   5.299  14.875  0.00  0.00    +0.000 OA
ATOM     16  H   UNL     1       8.342   4.950  15.579  0.00  0.00    +0.000 HD
ENDBRANCH  14  15
ENDBRANCH  11  14
ENDBRANCH   1  12
TORSDOF 3
ENDMDL
MODEL 9
REMARK VINA RESULT:      -5.9      1.070      1.072
REMARK  Name = 
REMARK  3 active torsions:
REMARK  status: ('A' for Active; 'I' for Inactive)
REMARK    1  A    between atoms: C_2  and  O_3
REMARK    2  A    between atoms: C_2  and  C_4
REMARK    3  A    between atoms: C_5  and  C_6
REMARK                            x       y       z     vdW  Elec       q    Type
REMARK                         _______ _______ _______ _____ _____    ______ ____
ROOT
ATOM      1  C   UNL     1       4.214   3.604  19.295  0.00  0.00    +0.000 C 
ATOM      2  O   UNL     1       3.870   3.024  20.327  0.00  0.00    +0.000 OA
ATOM      3  N   UNL     1       5.500   3.564  18.836  0.00  0.00    +0.000 N 
ATOM      4  C   UNL     1       5.986   4.394  17.854  0.00  0.00    +0.000 A 
ATOM      5  N   UNL     1       5.371   5.376  17.238  0.00  0.00    +0.000 NA
ATOM      6  C   UNL     1       6.306   5.861  16.374  0.00  0.00    +0.000 A 
ATOM      7  N   UNL     1       7.479   5.226  16.403  0.00  0.00    +0.000 NA
ATOM      8  N   UNL     1       7.260   4.308  17.360  0.00  0.00    +0.000 N 
ATOM      9  H   UNL     1       6.131   2.968  19.355  0.00  0.00    +0.000 HD
ATOM     10  H   UNL     1       7.996   3.652  17.592  0.00  0.00    +0.000 HD
ENDROOT
BRANCH   1  12
ATOM     11  C   UNL     1       2.027   3.811  18.115  0.00  0.00    +0.000 C 
ATOM     12  C   UNL     1       3.198   4.327  18.505  0.00  0.00    +0.000 C 
BRANCH  11  14
ATOM     13  O   UNL     1       0.275   2.319  18.546  0.00  0.00    +0.000 OA
ATOM     14  C   UNL     1       1.467   2.466  18.323  0.00  0.00    +0.000 C 
BRANCH  14  15
ATOM     15  O   UNL     1       2.312   1.430  18.182  0.00  0.00    +0.000 OA
ATOM     16  H   UNL     1       3.243   1.592  18.454  0.00  0.00    +0.000 HD
ENDBRANCH  14  15
ENDBRANCH  11  14
ENDBRANCH   1  12
TORSDOF 3
ENDMDL
