MODEL 1
REMARK VINA RESULT:      -7.9      0.000      0.000
REMARK  Name = 
REMARK  2 active torsions:
REMARK  status: ('A' for Active; 'I' for Inactive)
REMARK    1  A    between atoms: C_2  and  C_3
REMARK    2  A    between atoms: C_5  and  O_6
REMARK                            x       y       z     vdW  Elec       q    Type
REMARK                         _______ _______ _______ _____ _____    ______ ____
ROOT
ATOM      1  C   UNL     1       5.151   5.378  18.257  0.00  0.00    +0.000 A 
ATOM      2  C   UNL     1       6.100   5.621  19.249  0.00  0.00    +0.000 A 
ATOM      3  C   UNL     1       7.410   5.318  18.966  0.00  0.00    +0.000 A 
ATOM      4  N   UNL     1       7.836   4.870  17.782  0.00  0.00    +0.000 NA
ATOM      5  C   UNL     1       6.949   4.761  16.786  0.00  0.00    +0.000 A 
ATOM      6  C   UNL     1       7.421   4.354  15.542  0.00  0.00    +0.000 A 
ATOM      7  C   UNL     1       6.595   4.260  14.426  0.00  0.00    +0.000 A 
ATOM      8  C   UNL     1       5.256   4.594  14.543  0.00  0.00    +0.000 A 
ATOM      9  C   UNL     1       4.745   4.966  15.789  0.00  0.00    +0.000 A 
ATOM     10  C   UNL     1       5.573   5.040  16.942  0.00  0.00    +0.000 A 
ENDROOT
BRANCH   1  12
ATOM     11  O   UNL     1       3.152   6.557  18.494  0.00  0.00    +0.000 OA
ATOM     12  C   UNL     1       3.700   5.464  18.612  0.00  0.00    +0.000 C 
ATOM     13  N   UNL     1       2.998   4.315  19.030  0.00  0.00    +0.000 N 
ATOM     14  C   UNL     1       1.556   4.424  19.254  0.00  0.00    +0.000 C 
ATOM     15  C   UNL     1       1.119   4.095  20.684  0.00  0.00    +0.000 C 
ATOM     16  C   UNL     1       1.294   2.620  21.036  0.00  0.00    +0.000 C 
ATOM     17  O   UNL     1       2.586   2.234  21.489  0.00  0.00    +0.000 OA
ATOM     18  C   UNL     1       3.719   2.772  20.818  0.00  0.00    +0.000 C 
ATOM     19  C   UNL     1       3.566   2.984  19.303  0.00  0.00    +0.000 C 
ENDBRANCH   1  12
BRANCH   3  20
ATOM     20  O   UNL     1       8.378   5.408  19.922  0.00  0.00    +0.000 OA
ATOM     21  H   UNL     1       8.309   4.646  20.514  0.00  0.00    +0.000 HD
ENDBRANCH   3  20
TORSDOF 2
ENDMDL
MODEL 2
REMARK VINA RESULT:      -7.5      1.602      2.183
REMARK  Name = 
REMARK  2 active torsions:
REMARK  status: ('A' for Active; 'I' for Inactive)
REMARK    1  A    between atoms: C_2  and  C_3
REMARK    2  A    between atoms: C_5  and  O_6
REMARK                            x       y       z     vdW  Elec       q    Type
REMARK                         _______ _______ _______ _____ _____    ______ ____
ROOT
ATOM      1  C   UNL     1       5.795   4.546  18.500  0.00  0.00    +0.000 A 
ATOM      2  C   UNL     1       6.537   5.506  19.186  0.00  0.00    +0.000 A 
ATOM      3  C   UNL     1       7.496   6.194  18.483  0.00  0.00    +0.000 A 
ATOM      4  N   UNL     1       7.713   6.047  17.174  0.00  0.00    +0.000 NA
ATOM      5  C   UNL     1       6.915   5.223  16.484  0.00  0.00    +0.000 A 
ATOM      6  C   UNL     1       7.114   5.130  15.110  0.00  0.00    +0.000 A 
ATOM      7  C   UNL     1       6.307   4.346  14.292  0.00  0.00    +0.000 A 
ATOM      8  C   UNL     1       5.255   3.639  14.852  0.00  0.00    +0.000 A 
ATOM      9  C   UNL     1       5.057   3.681  16.235  0.00  0.00    +0.000 A 
ATOM     10  C   UNL     1       5.892   4.457  17.085  0.00  0.00    +0.000 A 
ENDROOT
BRANCH   1  12
ATOM     11  O   UNL     1       5.462   2.660  19.834  0.00  0.00    +0.000 OA
ATOM     12  C   UNL     1       4.922   3.616  19.282  0.00  0.00    +0.000 C 
ATOM     13  N   UNL     1       3.539   3.864  19.398  0.00  0.00    +0.000 N 
ATOM     14  C   UNL     1       2.747   2.993  20.268  0.00  0.00    +0.000 C 
ATOM     15  C   UNL     1       1.624   2.243  19.545  0.00  0.00    +0.000 C 
ATOM     16  C   UNL     1       0.506   3.164  19.064  0.00  0.00    +0.000 C 
ATOM     17  O   UNL     1       0.710   3.791  17.804  0.00  0.00    +0.000 OA
ATOM     18  C   UNL     1       2.004   4.309  17.515  0.00  0.00    +0.000 C 
ATOM     19  C   UNL     1       2.768   4.911  18.705  0.00  0.00    +0.000 C 
ENDBRANCH   1  12
BRANCH   3  20
ATOM     20  O   UNL     1       8.346   7.057  19.107  0.00  0.00    +0.000 OA
ATOM     21  H   UNL     1       8.221   7.943  18.740  0.00  0.00    +0.000 HD
ENDBRANCH   3  20
TORSDOF 2
ENDMDL
MODEL 3
REMARK VINA RESULT:      -7.2      1.758      2.920
REMARK  Name = 
REMARK  2 active torsions:
REMARK  status: ('A' for Active; 'I' for Inactive)
REMARK    1  A    between atoms: C_2  and  C_3
REMARK    2  A    between atoms: C_5  and  O_6
REMARK                            x       y       z     vdW  Elec       q    Type
REMARK                         _______ _______ _______ _____ _____    ______ ____
ROOT
ATOM      1  C   UNL     1       4.380   4.460  17.271  0.00  0.00    +0.000 A 
ATOM      2  C   UNL     1       4.421   3.937  15.980  0.00  0.00    +0.000 A 
ATOM      3  C   UNL     1       5.611   4.010  15.298  0.00  0.00    +0.000 A 
ATOM      4  N   UNL     1       6.744   4.490  15.819  0.00  0.00    +0.000 NA
ATOM      5  C   UNL     1       6.743   4.871  17.102  0.00  0.00    +0.000 A 
ATOM      6  C   UNL     1       7.946   5.308  17.647  0.00  0.00    +0.000 A 
ATOM      7  C   UNL     1       8.069   5.676  18.983  0.00  0.00    +0.000 A 
ATOM      8  C   UNL     1       6.963   5.595  19.814  0.00  0.00    +0.000 A 
ATOM      9  C   UNL     1       5.732   5.199  19.284  0.00  0.00    +0.000 A 
ATOM     10  C   UNL     1       5.588   4.847  17.914  0.00  0.00    +0.000 A 
ENDROOT
BRANCH   1  12
ATOM     11  O   UNL     1       2.400   5.624  17.680  0.00  0.00    +0.000 OA
ATOM     12  C   UNL     1       3.054   4.617  17.943  0.00  0.00    +0.000 C 
ATOM     13  N   UNL     1       2.573   3.620  18.816  0.00  0.00    +0.000 N 
ATOM     14  C   UNL     1       1.221   3.763  19.359  0.00  0.00    +0.000 C 
ATOM     15  C   UNL     1       1.167   3.840  20.887  0.00  0.00    +0.000 C 
ATOM     16  C   UNL     1       1.547   2.526  21.565  0.00  0.00    +0.000 C 
ATOM     17  O   UNL     1       2.938   2.304  21.763  0.00  0.00    +0.000 OA
ATOM     18  C   UNL     1       3.829   2.652  20.709  0.00  0.00    +0.000 C 
ATOM     19  C   UNL     1       3.303   2.428  19.283  0.00  0.00    +0.000 C 
ENDBRANCH   1  12
BRANCH   3  20
ATOM     20  O   UNL     1       5.701   3.636  13.990  0.00  0.00    +0.000 OA
ATOM     21  H   UNL     1       6.168   2.790  13.936  0.00  0.00    +0.000 HD
ENDBRANCH   3  20
TORSDOF 2
ENDMDL
MODEL 4
REMARK VINA RESULT:      -7.1      2.169      5.711
REMARK  Name = 
REMARK  2 active torsions:
REMARK  status: ('A' for Active; 'I' for Inactive)
REMARK    1  A    between atoms: C_2  and  C_3
REMARK    2  A    between atoms: C_5  and  O_6
REMARK                            x       y       z     vdW  Elec       q    Type
REMARK                         _______ _______ _______ _____ _____    ______ ____
ROOT
ATOM      1  C   UNL     1       2.732   4.402  18.670  0.00  0.00    +0.000 A 
ATOM      2  C   UNL     1       2.621   3.376  19.607  0.00  0.00    +0.000 A 
ATOM      3  C   UNL     1       2.343   3.726  20.906  0.00  0.00    +0.000 A 
ATOM      4  N   UNL     1       2.108   4.977  21.311  0.00  0.00    +0.000 NA
ATOM      5  C   UNL     1       2.082   5.949  20.392  0.00  0.00    +0.000 A 
ATOM      6  C   UNL     1       1.773   7.236  20.820  0.00  0.00    +0.000 A 
ATOM      7  C   UNL     1       1.666   8.309  19.940  0.00  0.00    +0.000 A 
ATOM      8  C   UNL     1       1.860   8.097  18.585  0.00  0.00    +0.000 A 
ATOM      9  C   UNL     1       2.212   6.824  18.130  0.00  0.00    +0.000 A 
ATOM     10  C   UNL     1       2.351   5.725  19.023  0.00  0.00    +0.000 A 
ENDROOT
BRANCH   1  12
ATOM     11  O   UNL     1       2.607   3.327  16.603  0.00  0.00    +0.000 OA
ATOM     12  C   UNL     1       3.269   4.081  17.311  0.00  0.00    +0.000 C 
ATOM     13  N   UNL     1       4.475   4.661  16.865  0.00  0.00    +0.000 N 
ATOM     14  C   UNL     1       4.900   4.410  15.488  0.00  0.00    +0.000 C 
ATOM     15  C   UNL     1       6.257   3.711  15.371  0.00  0.00    +0.000 C 
ATOM     16  C   UNL     1       7.422   4.593  15.812  0.00  0.00    +0.000 C 
ATOM     17  O   UNL     1       7.704   4.607  17.206  0.00  0.00    +0.000 OA
ATOM     18  C   UNL     1       6.607   4.660  18.111  0.00  0.00    +0.000 C 
ATOM     19  C   UNL     1       5.399   5.493  17.655  0.00  0.00    +0.000 C 
ENDBRANCH   1  12
BRANCH   3  20
ATOM     20  O   UNL     1       2.342   2.797  21.903  0.00  0.00    +0.000 OA
ATOM     21  H   UNL     1       2.315   1.913  21.511  0.00  0.00    +0.000 HD
ENDBRANCH   3  20
TORSDOF 2
ENDMDL
MODEL 5
REMARK VINA RESULT:      -6.5      2.216      3.513
REMARK  Name = 
REMARK  2 active torsions:
REMARK  status: ('A' for Active; 'I' for Inactive)
REMARK    1  A    between atoms: C_2  and  C_3
REMARK    2  A    between atoms: C_5  and  O_6
REMARK                            x       y       z     vdW  Elec       q    Type
REMARK                         _______ _______ _______ _____ _____    ______ ____
ROOT
ATOM      1  C   UNL     1       5.450   4.282  17.763  0.00  0.00    +0.000 A 
ATOM      2  C   UNL     1       5.112   3.881  16.471  0.00  0.00    +0.000 A 
ATOM      3  C   UNL     1       5.547   4.662  15.427  0.00  0.00    +0.000 A 
ATOM      4  N   UNL     1       6.325   5.737  15.570  0.00  0.00    +0.000 NA
ATOM      5  C   UNL     1       6.762   6.050  16.796  0.00  0.00    +0.000 A 
ATOM      6  C   UNL     1       7.623   7.135  16.919  0.00  0.00    +0.000 A 
ATOM      7  C   UNL     1       8.177   7.512  18.139  0.00  0.00    +0.000 A 
ATOM      8  C   UNL     1       7.878   6.779  19.275  0.00  0.00    +0.000 A 
ATOM      9  C   UNL     1       6.983   5.709  19.190  0.00  0.00    +0.000 A 
ATOM     10  C   UNL     1       6.390   5.331  17.954  0.00  0.00    +0.000 A 
ENDROOT
BRANCH   1  12
ATOM     11  O   UNL     1       5.488   2.850  19.605  0.00  0.00    +0.000 OA
ATOM     12  C   UNL     1       4.794   3.601  18.922  0.00  0.00    +0.000 C 
ATOM     13  N   UNL     1       3.440   3.851  19.225  0.00  0.00    +0.000 N 
ATOM     14  C   UNL     1       2.877   3.253  20.436  0.00  0.00    +0.000 C 
ATOM     15  C   UNL     1       1.696   2.312  20.176  0.00  0.00    +0.000 C 
ATOM     16  C   UNL     1       0.451   3.041  19.679  0.00  0.00    +0.000 C 
ATOM     17  O   UNL     1       0.385   3.286  18.280  0.00  0.00    +0.000 OA
ATOM     18  C   UNL     1       1.569   3.718  17.620  0.00  0.00    +0.000 C 
ATOM     19  C   UNL     1       2.490   4.646  18.428  0.00  0.00    +0.000 C 
ENDBRANCH   1  12
BRANCH   3  20
ATOM     20  O   UNL     1       5.156   4.409  14.146  0.00  0.00    +0.000 OA
ATOM     21  H   UNL     1       5.892   4.600  13.548  0.00  0.00    +0.000 HD
ENDBRANCH   3  20
TORSDOF 2
ENDMDL
MODEL 6
REMARK VINA RESULT:      -6.4      2.361      2.871
REMARK  Name = 
REMARK  2 active torsions:
REMARK  status: ('A' for Active; 'I' for Inactive)
REMARK    1  A    between atoms: C_2  and  C_3
REMARK    2  A    between atoms: C_5  and  O_6
REMARK                            x       y       z     vdW  Elec       q    Type
REMARK                         _______ _______ _______ _____ _____    ______ ____
ROOT
ATOM      1  C   UNL     1       3.087   5.275  17.519  0.00  0.00    +0.000 A 
ATOM      2  C   UNL     1       2.541   6.529  17.790  0.00  0.00    +0.000 A 
ATOM      3  C   UNL     1       3.363   7.623  17.669  0.00  0.00    +0.000 A 
ATOM      4  N   UNL     1       4.627   7.566  17.243  0.00  0.00    +0.000 NA
ATOM      5  C   UNL     1       5.116   6.382  16.854  0.00  0.00    +0.000 A 
ATOM      6  C   UNL     1       6.414   6.350  16.354  0.00  0.00    +0.000 A 
ATOM      7  C   UNL     1       6.998   5.183  15.872  0.00  0.00    +0.000 A 
ATOM      8  C   UNL     1       6.267   4.007  15.874  0.00  0.00    +0.000 A 
ATOM      9  C   UNL     1       4.976   3.999  16.409  0.00  0.00    +0.000 A 
ATOM     10  C   UNL     1       4.377   5.180  16.929  0.00  0.00    +0.000 A 
ENDROOT
BRANCH   1  12
ATOM     11  O   UNL     1       1.470   3.657  17.059  0.00  0.00    +0.000 OA
ATOM     12  C   UNL     1       2.300   4.054  17.874  0.00  0.00    +0.000 C 
ATOM     13  N   UNL     1       2.542   3.377  19.087  0.00  0.00    +0.000 N 
ATOM     14  C   UNL     1       1.830   2.123  19.337  0.00  0.00    +0.000 C 
ATOM     15  C   UNL     1       0.942   2.147  20.585  0.00  0.00    +0.000 C 
ATOM     16  C   UNL     1       1.741   2.220  21.884  0.00  0.00    +0.000 C 
ATOM     17  O   UNL     1       2.133   3.521  22.306  0.00  0.00    +0.000 OA
ATOM     18  C   UNL     1       2.611   4.429  21.320  0.00  0.00    +0.000 C 
ATOM     19  C   UNL     1       3.432   3.810  20.178  0.00  0.00    +0.000 C 
ENDBRANCH   1  12
BRANCH   3  20
ATOM     20  O   UNL     1       2.942   8.866  18.035  0.00  0.00    +0.000 OA
ATOM     21  H   UNL     1       2.029   8.991  17.739  0.00  0.00    +0.000 HD
ENDBRANCH   3  20
TORSDOF 2
ENDMDL
MODEL 7
REMARK VINA RESULT:      -6.4      1.774      6.053
REMARK  Name = 
REMARK  2 active torsions:
REMARK  status: ('A' for Active; 'I' for Inactive)
REMARK    1  A    between atoms: C_2  and  C_3
REMARK    2  A    between atoms: C_5  and  O_6
REMARK                            x       y       z     vdW  Elec       q    Type
REMARK                         _______ _______ _______ _____ _____    ______ ____
ROOT
ATOM      1  C   UNL     1       4.135   5.499  19.424  0.00  0.00    +0.000 A 
ATOM      2  C   UNL     1       3.717   6.819  19.262  0.00  0.00    +0.000 A 
ATOM      3  C   UNL     1       2.388   7.098  19.472  0.00  0.00    +0.000 A 
ATOM      4  N   UNL     1       1.491   6.200  19.885  0.00  0.00    +0.000 NA
ATOM      5  C   UNL     1       1.913   4.962  20.171  0.00  0.00    +0.000 A 
ATOM      6  C   UNL     1       0.978   4.057  20.661  0.00  0.00    +0.000 A 
ATOM      7  C   UNL     1       1.321   2.762  21.039  0.00  0.00    +0.000 A 
ATOM      8  C   UNL     1       2.641   2.354  20.941  0.00  0.00    +0.000 A 
ATOM      9  C   UNL     1       3.595   3.228  20.413  0.00  0.00    +0.000 A 
ATOM     10  C   UNL     1       3.252   4.544  19.998  0.00  0.00    +0.000 A 
ENDROOT
BRANCH   1  12
ATOM     11  O   UNL     1       6.412   5.162  19.801  0.00  0.00    +0.000 OA
ATOM     12  C   UNL     1       5.507   5.117  18.970  0.00  0.00    +0.000 C 
ATOM     13  N   UNL     1       5.728   4.690  17.644  0.00  0.00    +0.000 N 
ATOM     14  C   UNL     1       7.064   4.216  17.280  0.00  0.00    +0.000 C 
ATOM     15  C   UNL     1       7.730   5.024  16.162  0.00  0.00    +0.000 C 
ATOM     16  C   UNL     1       7.047   4.847  14.809  0.00  0.00    +0.000 C 
ATOM     17  O   UNL     1       5.925   5.685  14.559  0.00  0.00    +0.000 OA
ATOM     18  C   UNL     1       4.996   5.893  15.616  0.00  0.00    +0.000 C 
ATOM     19  C   UNL     1       4.751   4.691  16.542  0.00  0.00    +0.000 C 
ENDBRANCH   1  12
BRANCH   3  20
ATOM     20  O   UNL     1       1.877   8.335  19.213  0.00  0.00    +0.000 OA
ATOM     21  H   UNL     1       1.983   8.890  19.998  0.00  0.00    +0.000 HD
ENDBRANCH   3  20
TORSDOF 2
ENDMDL
MODEL 8
REMARK VINA RESULT:      -6.2      3.494      5.236
REMARK  Name = 
REMARK  2 active torsions:
REMARK  status: ('A' for Active; 'I' for Inactive)
REMARK    1  A    between atoms: C_2  and  C_3
REMARK    2  A    between atoms: C_5  and  O_6
REMARK                            x       y       z     vdW  Elec       q    Type
REMARK                         _______ _______ _______ _____ _____    ______ ____
ROOT
ATOM      1  C   UNL     1       2.819   6.337  18.668  0.00  0.00    +0.000 A 
ATOM      2  C   UNL     1       3.739   7.057  17.908  0.00  0.00    +0.000 A 
ATOM      3  C   UNL     1       4.542   6.354  17.043  0.00  0.00    +0.000 A 
ATOM      4  N   UNL     1       4.449   5.038  16.839  0.00  0.00    +0.000 NA
ATOM      5  C   UNL     1       3.479   4.362  17.467  0.00  0.00    +0.000 A 
ATOM      6  C   UNL     1       3.357   3.003  17.195  0.00  0.00    +0.000 A 
ATOM      7  C   UNL     1       2.350   2.220  17.751  0.00  0.00    +0.000 A 
ATOM      8  C   UNL     1       1.424   2.805  18.599  0.00  0.00    +0.000 A 
ATOM      9  C   UNL     1       1.548   4.159  18.924  0.00  0.00    +0.000 A 
ATOM     10  C   UNL     1       2.587   4.964  18.383  0.00  0.00    +0.000 A 
ENDROOT
BRANCH   1  12
ATOM     11  O   UNL     1       1.896   6.387  20.810  0.00  0.00    +0.000 OA
ATOM     12  C   UNL     1       2.107   7.032  19.785  0.00  0.00    +0.000 C 
ATOM     13  N   UNL     1       1.731   8.385  19.661  0.00  0.00    +0.000 N 
ATOM     14  C   UNL     1       1.143   9.053  20.823  0.00  0.00    +0.000 C 
ATOM     15  C   UNL     1      -0.273   9.587  20.585  0.00  0.00    +0.000 C 
ATOM     16  C   UNL     1      -0.312  10.756  19.604  0.00  0.00    +0.000 C 
ATOM     17  O   UNL     1      -0.358  10.414  18.224  0.00  0.00    +0.000 OA
ATOM     18  C   UNL     1       0.470   9.350  17.770  0.00  0.00    +0.000 C 
ATOM     19  C   UNL     1       1.840   9.224  18.455  0.00  0.00    +0.000 C 
ENDBRANCH   1  12
BRANCH   3  20
ATOM     20  O   UNL     1       5.548   6.966  16.358  0.00  0.00    +0.000 OA
ATOM     21  H   UNL     1       5.935   7.657  16.915  0.00  0.00    +0.000 HD
ENDBRANCH   3  20
TORSDOF 2
ENDMDL
MODEL 9
REMARK VINA RESULT:      -6.2      1.243      1.311
REMARK  Name = 
REMARK  2 active torsions:
REMARK  status: ('A' for Active; 'I' for Inactive)
REMARK    1  A    between atoms: C_2  and  C_3
REMARK    2  A    between atoms: C_5  and  O_6
REMARK                            x       y       z     vdW  Elec       q    Type
REMARK                         _______ _______ _______ _____ _____    ______ ____
ROOT
ATOM      1  C   UNL     1       4.757   4.348  17.772  0.00  0.00    +0.000 A 
ATOM      2  C   UNL     1       5.349   4.815  18.944  0.00  0.00    +0.000 A 
ATOM      3  C   UNL     1       6.676   5.167  18.892  0.00  0.00    +0.000 A 
ATOM      4  N   UNL     1       7.411   5.153  17.777  0.00  0.00    +0.000 NA
ATOM      5  C   UNL     1       6.813   4.832  16.624  0.00  0.00    +0.000 A 
ATOM      6  C   UNL     1       7.578   4.884  15.463  0.00  0.00    +0.000 A 
ATOM      7  C   UNL     1       7.041   4.623  14.205  0.00  0.00    +0.000 A 
ATOM      8  C   UNL     1       5.696   4.312  14.092  0.00  0.00    +0.000 A 
ATOM      9  C   UNL     1       4.913   4.212  15.245  0.00  0.00    +0.000 A 
ATOM     10  C   UNL     1       5.455   4.450  16.538  0.00  0.00    +0.000 A 
ENDROOT
BRANCH   1  12
ATOM     11  O   UNL     1       2.669   3.838  16.863  0.00  0.00    +0.000 OA
ATOM     12  C   UNL     1       3.396   3.731  17.848  0.00  0.00    +0.000 C 
ATOM     13  N   UNL     1       2.995   3.027  19.002  0.00  0.00    +0.000 N 
ATOM     14  C   UNL     1       1.702   2.342  18.985  0.00  0.00    +0.000 C 
ATOM     15  C   UNL     1       0.722   2.831  20.055  0.00  0.00    +0.000 C 
ATOM     16  C   UNL     1       1.156   2.466  21.472  0.00  0.00    +0.000 C 
ATOM     17  O   UNL     1       2.070   3.359  22.097  0.00  0.00    +0.000 OA
ATOM     18  C   UNL     1       3.141   3.876  21.316  0.00  0.00    +0.000 C 
ATOM     19  C   UNL     1       3.735   2.918  20.271  0.00  0.00    +0.000 C 
ENDBRANCH   1  12
BRANCH   3  20
ATOM     20  O   UNL     1       7.359   5.514  20.019  0.00  0.00    +0.000 OA
ATOM     21  H   UNL     1       7.640   6.437  19.947  0.00  0.00    +0.000 HD
ENDBRANCH   3  20
TORSDOF 2
ENDMDL
