MODEL 1
REMARK VINA RESULT:      -7.2      0.000      0.000
REMARK  Name = 
REMARK  7 active torsions:
REMARK  status: ('A' for Active; 'I' for Inactive)
REMARK    1  A    between atoms: C_4  and  C_5
REMARK    2  A    between atoms: C_5  and  C_6
REMARK    3  A    between atoms: C_6  and  C_7
REMARK    4  A    between atoms: C_7  and  N_8
REMARK    5  A    between atoms: C_10  and  C_11
REMARK    6  A    between atoms: C_13  and  C_14
REMARK    7  A    between atoms: C_14  and  N_15
REMARK                            x       y       z     vdW  Elec       q    Type
REMARK                         _______ _______ _______ _____ _____    ______ ____
ROOT
ATOM      1  N   UNL     1       5.630   4.637  17.107  0.00  0.00    +0.000 N 
ATOM      2  C   UNL     1       5.895   5.698  17.925  0.00  0.00    +0.000 A 
ATOM      3  C   UNL     1       6.911   6.364  17.277  0.00  0.00    +0.000 A 
ATOM      4  N   UNL     1       7.197   5.721  16.099  0.00  0.00    +0.000 NA
ATOM      5  N   UNL     1       6.393   4.672  16.000  0.00  0.00    +0.000 NA
ENDROOT
BRANCH   3   6
ATOM      6  C   UNL     1       7.641   7.575  17.745  0.00  0.00    +0.000 A 
ATOM      7  N   UNL     1       7.558   8.788  17.224  0.00  0.00    +0.000 NA
ATOM      8  C   UNL     1       8.374   9.528  18.055  0.00  0.00    +0.000 A 
ATOM      9  N   UNL     1       8.957   8.819  19.032  0.00  0.00    +0.000 NA
ATOM     10  O   UNL     1       8.483   7.531  18.826  0.00  0.00    +0.000 OA
BRANCH   8  11
ATOM     11  C   UNL     1       8.689  10.989  17.896  0.00  0.00    +0.000 C 
BRANCH  11  12
ATOM     12  N   UNL     1       9.831  11.488  18.692  0.00  0.00    +0.000 NA
ATOM     13  C   UNL     1       9.401  12.633  19.535  0.00  0.00    +0.000 C 
ATOM     14  C   UNL     1       9.216  13.950  18.756  0.00  0.00    +0.000 C 
ATOM     15  O   UNL     1      10.423  14.317  18.080  0.00  0.00    +0.000 OA
ATOM     16  C   UNL     1      10.851  13.281  17.188  0.00  0.00    +0.000 C 
ATOM     17  C   UNL     1      11.000  11.925  17.902  0.00  0.00    +0.000 C 
ENDBRANCH  11  12
ENDBRANCH   8  11
ENDBRANCH   3   6
BRANCH   1  18
ATOM     18  C   UNL     1       4.665   3.576  17.296  0.00  0.00    +0.000 C 
BRANCH  18  19
ATOM     19  C   UNL     1       3.205   4.000  17.097  0.00  0.00    +0.000 C 
BRANCH  19  20
ATOM     20  C   UNL     1       2.411   4.042  18.405  0.00  0.00    +0.000 C 
BRANCH  20  24
ATOM     21  C   UNL     1       1.924   8.068  19.883  0.00  0.00    +0.000 A 
ATOM     22  C   UNL     1       1.741   6.981  20.736  0.00  0.00    +0.000 A 
ATOM     23  C   UNL     1       1.897   5.679  20.256  0.00  0.00    +0.000 A 
ATOM     24  C   UNL     1       2.245   5.452  18.917  0.00  0.00    +0.000 A 
ATOM     25  C   UNL     1       2.419   6.551  18.065  0.00  0.00    +0.000 A 
ATOM     26  C   UNL     1       2.259   7.851  18.546  0.00  0.00    +0.000 A 
ENDBRANCH  20  24
ENDBRANCH  19  20
ENDBRANCH  18  19
ENDBRANCH   1  18
TORSDOF 7
ENDMDL
MODEL 2
REMARK VINA RESULT:      -7.2      1.601      2.454
REMARK  Name = 
REMARK  7 active torsions:
REMARK  status: ('A' for Active; 'I' for Inactive)
REMARK    1  A    between atoms: C_4  and  C_5
REMARK    2  A    between atoms: C_5  and  C_6
REMARK    3  A    between atoms: C_6  and  C_7
REMARK    4  A    between atoms: C_7  and  N_8
REMARK    5  A    between atoms: C_10  and  C_11
REMARK    6  A    between atoms: C_13  and  C_14
REMARK    7  A    between atoms: C_14  and  N_15
REMARK                            x       y       z     vdW  Elec       q    Type
REMARK                         _______ _______ _______ _____ _____    ______ ____
ROOT
ATOM      1  N   UNL     1       5.598   4.437  17.489  0.00  0.00    +0.000 N 
ATOM      2  C   UNL     1       5.623   5.728  17.934  0.00  0.00    +0.000 A 
ATOM      3  C   UNL     1       6.840   6.201  17.494  0.00  0.00    +0.000 A 
ATOM      4  N   UNL     1       7.480   5.217  16.785  0.00  0.00    +0.000 NA
ATOM      5  N   UNL     1       6.701   4.146  16.776  0.00  0.00    +0.000 NA
ENDROOT
BRANCH   3   6
ATOM      6  C   UNL     1       7.430   7.545  17.745  0.00  0.00    +0.000 A 
ATOM      7  N   UNL     1       8.351   7.838  18.649  0.00  0.00    +0.000 NA
ATOM      8  C   UNL     1       8.577   9.180  18.422  0.00  0.00    +0.000 A 
ATOM      9  N   UNL     1       7.827   9.711  17.447  0.00  0.00    +0.000 NA
ATOM     10  O   UNL     1       7.064   8.639  17.004  0.00  0.00    +0.000 OA
BRANCH   8  11
ATOM     11  C   UNL     1       9.513  10.053  19.210  0.00  0.00    +0.000 C 
BRANCH  11  12
ATOM     12  N   UNL     1       9.644  11.447  18.732  0.00  0.00    +0.000 NA
ATOM     13  C   UNL     1      10.982  11.652  18.122  0.00  0.00    +0.000 C 
ATOM     14  C   UNL     1      12.126  11.772  19.147  0.00  0.00    +0.000 C 
ATOM     15  O   UNL     1      11.880  12.843  20.063  0.00  0.00    +0.000 OA
ATOM     16  C   UNL     1      10.634  12.664  20.746  0.00  0.00    +0.000 C 
ATOM     17  C   UNL     1       9.458  12.483  19.769  0.00  0.00    +0.000 C 
ENDBRANCH  11  12
ENDBRANCH   8  11
ENDBRANCH   3   6
BRANCH   1  18
ATOM     18  C   UNL     1       4.566   3.442  17.679  0.00  0.00    +0.000 C 
BRANCH  18  19
ATOM     19  C   UNL     1       3.287   3.686  16.870  0.00  0.00    +0.000 C 
BRANCH  19  20
ATOM     20  C   UNL     1       2.256   4.530  17.623  0.00  0.00    +0.000 C 
BRANCH  20  24
ATOM     21  C   UNL     1       1.663   3.125  21.660  0.00  0.00    +0.000 A 
ATOM     22  C   UNL     1       1.229   2.358  20.581  0.00  0.00    +0.000 A 
ATOM     23  C   UNL     1       1.420   2.815  19.275  0.00  0.00    +0.000 A 
ATOM     24  C   UNL     1       2.054   4.043  19.037  0.00  0.00    +0.000 A 
ATOM     25  C   UNL     1       2.480   4.809  20.130  0.00  0.00    +0.000 A 
ATOM     26  C   UNL     1       2.285   4.353  21.434  0.00  0.00    +0.000 A 
ENDBRANCH  20  24
ENDBRANCH  19  20
ENDBRANCH  18  19
ENDBRANCH   1  18
TORSDOF 7
ENDMDL
MODEL 3
REMARK VINA RESULT:      -7.1      6.939      9.517
REMARK  Name = 
REMARK  7 active torsions:
REMARK  status: ('A' for Active; 'I' for Inactive)
REMARK    1  A    between atoms: C_4  and  C_5
REMARK    2  A    between atoms: C_5  and  C_6
REMARK    3  A    between atoms: C_6  and  C_7
REMARK    4  A    between atoms: C_7  and  N_8
REMARK    5  A    between atoms: C_10  and  C_11
REMARK    6  A    between atoms: C_13  and  C_14
REMARK    7  A    between atoms: C_14  and  N_15
REMARK                            x       y       z     vdW  Elec       q    Type
REMARK                         _______ _______ _______ _____ _____    ______ ____
ROOT
ATOM      1  N   UNL     1       1.932   9.001  18.419  0.00  0.00    +0.000 N 
ATOM      2  C   UNL     1       1.381   8.832  19.658  0.00  0.00    +0.000 A 
ATOM      3  C   UNL     1       0.811  10.056  19.931  0.00  0.00    +0.000 A 
ATOM      4  N   UNL     1       0.999  10.893  18.860  0.00  0.00    +0.000 NA
ATOM      5  N   UNL     1       1.674  10.229  17.934  0.00  0.00    +0.000 NA
ENDROOT
BRANCH   3   6
ATOM      6  C   UNL     1       0.117  10.470  21.181  0.00  0.00    +0.000 A 
ATOM      7  N   UNL     1      -0.971  11.218  21.260  0.00  0.00    +0.000 NA
ATOM      8  C   UNL     1      -1.218  11.247  22.617  0.00  0.00    +0.000 A 
ATOM      9  N   UNL     1      -0.324  10.575  23.356  0.00  0.00    +0.000 NA
ATOM     10  O   UNL     1       0.561  10.069  22.414  0.00  0.00    +0.000 OA
BRANCH   8  11
ATOM     11  C   UNL     1      -2.329  12.006  23.287  0.00  0.00    +0.000 C 
BRANCH  11  12
ATOM     12  N   UNL     1      -3.056  12.966  22.428  0.00  0.00    +0.000 NA
ATOM     13  C   UNL     1      -2.673  14.356  22.783  0.00  0.00    +0.000 C 
ATOM     14  C   UNL     1      -3.307  14.866  24.092  0.00  0.00    +0.000 C 
ATOM     15  O   UNL     1      -4.734  14.795  24.029  0.00  0.00    +0.000 OA
ATOM     16  C   UNL     1      -5.175  13.457  23.765  0.00  0.00    +0.000 C 
ATOM     17  C   UNL     1      -4.529  12.874  22.495  0.00  0.00    +0.000 C 
ENDBRANCH  11  12
ENDBRANCH   8  11
ENDBRANCH   3   6
BRANCH   1  18
ATOM     18  C   UNL     1       2.686   8.048  17.634  0.00  0.00    +0.000 C 
BRANCH  18  19
ATOM     19  C   UNL     1       3.283   6.889  18.439  0.00  0.00    +0.000 C 
BRANCH  19  20
ATOM     20  C   UNL     1       2.906   5.515  17.880  0.00  0.00    +0.000 C 
BRANCH  20  24
ATOM     21  C   UNL     1       1.168   2.979  20.909  0.00  0.00    +0.000 A 
ATOM     22  C   UNL     1       2.033   4.010  21.270  0.00  0.00    +0.000 A 
ATOM     23  C   UNL     1       2.596   4.828  20.288  0.00  0.00    +0.000 A 
ATOM     24  C   UNL     1       2.293   4.627  18.935  0.00  0.00    +0.000 A 
ATOM     25  C   UNL     1       1.427   3.583  18.582  0.00  0.00    +0.000 A 
ATOM     26  C   UNL     1       0.868   2.763  19.563  0.00  0.00    +0.000 A 
ENDBRANCH  20  24
ENDBRANCH  19  20
ENDBRANCH  18  19
ENDBRANCH   1  18
TORSDOF 7
ENDMDL
MODEL 4
REMARK VINA RESULT:      -7.1      3.310      9.180
REMARK  Name = 
REMARK  7 active torsions:
REMARK  status: ('A' for Active; 'I' for Inactive)
REMARK    1  A    between atoms: C_4  and  C_5
REMARK    2  A    between atoms: C_5  and  C_6
REMARK    3  A    between atoms: C_6  and  C_7
REMARK    4  A    between atoms: C_7  and  N_8
REMARK    5  A    between atoms: C_10  and  C_11
REMARK    6  A    between atoms: C_13  and  C_14
REMARK    7  A    between atoms: C_14  and  N_15
REMARK                            x       y       z     vdW  Elec       q    Type
REMARK                         _______ _______ _______ _____ _____    ______ ____
ROOT
ATOM      1  N   UNL     1       7.832   7.923  17.963  0.00  0.00    +0.000 N 
ATOM      2  C   UNL     1       6.639   7.524  17.431  0.00  0.00    +0.000 A 
ATOM      3  C   UNL     1       6.507   6.224  17.864  0.00  0.00    +0.000 A 
ATOM      4  N   UNL     1       7.580   5.897  18.654  0.00  0.00    +0.000 NA
ATOM      5  N   UNL     1       8.377   6.954  18.720  0.00  0.00    +0.000 NA
ENDROOT
BRANCH   3   6
ATOM      6  C   UNL     1       5.414   5.269  17.535  0.00  0.00    +0.000 A 
ATOM      7  N   UNL     1       4.185   5.289  18.024  0.00  0.00    +0.000 NA
ATOM      8  C   UNL     1       3.579   4.243  17.358  0.00  0.00    +0.000 A 
ATOM      9  N   UNL     1       4.385   3.585  16.512  0.00  0.00    +0.000 NA
ATOM     10  O   UNL     1       5.596   4.253  16.632  0.00  0.00    +0.000 OA
BRANCH   8  11
ATOM     11  C   UNL     1       2.166   3.776  17.565  0.00  0.00    +0.000 C 
BRANCH  11  12
ATOM     12  N   UNL     1       2.016   2.448  18.200  0.00  0.00    +0.000 NA
ATOM     13  C   UNL     1       0.722   2.374  18.925  0.00  0.00    +0.000 C 
ATOM     14  C   UNL     1       0.706   3.144  20.259  0.00  0.00    +0.000 C 
ATOM     15  O   UNL     1       1.738   2.675  21.132  0.00  0.00    +0.000 OA
ATOM     16  C   UNL     1       3.027   2.794  20.519  0.00  0.00    +0.000 C 
ATOM     17  C   UNL     1       3.087   2.087  19.152  0.00  0.00    +0.000 C 
ENDBRANCH  11  12
ENDBRANCH   8  11
ENDBRANCH   3   6
BRANCH   1  18
ATOM     18  C   UNL     1       8.498   9.199  17.819  0.00  0.00    +0.000 C 
BRANCH  18  19
ATOM     19  C   UNL     1       9.049   9.782  19.125  0.00  0.00    +0.000 C 
BRANCH  19  20
ATOM     20  C   UNL     1       9.890  11.043  18.909  0.00  0.00    +0.000 C 
BRANCH  20  24
ATOM     21  C   UNL     1       9.392  13.861  22.140  0.00  0.00    +0.000 A 
ATOM     22  C   UNL     1       8.956  12.546  22.284  0.00  0.00    +0.000 A 
ATOM     23  C   UNL     1       9.116  11.635  21.237  0.00  0.00    +0.000 A 
ATOM     24  C   UNL     1       9.721  12.032  20.036  0.00  0.00    +0.000 A 
ATOM     25  C   UNL     1      10.150  13.359  19.899  0.00  0.00    +0.000 A 
ATOM     26  C   UNL     1       9.986  14.269  20.944  0.00  0.00    +0.000 A 
ENDBRANCH  20  24
ENDBRANCH  19  20
ENDBRANCH  18  19
ENDBRANCH   1  18
TORSDOF 7
ENDMDL
MODEL 5
REMARK VINA RESULT:      -7.0      1.606      2.493
REMARK  Name = 
REMARK  7 active torsions:
REMARK  status: ('A' for Active; 'I' for Inactive)
REMARK    1  A    between atoms: C_4  and  C_5
REMARK    2  A    between atoms: C_5  and  C_6
REMARK    3  A    between atoms: C_6  and  C_7
REMARK    4  A    between atoms: C_7  and  N_8
REMARK    5  A    between atoms: C_10  and  C_11
REMARK    6  A    between atoms: C_13  and  C_14
REMARK    7  A    between atoms: C_14  and  N_15
REMARK                            x       y       z     vdW  Elec       q    Type
REMARK                         _______ _______ _______ _____ _____    ______ ____
ROOT
ATOM      1  N   UNL     1       6.839   6.124  17.481  0.00  0.00    +0.000 N 
ATOM      2  C   UNL     1       7.122   7.432  17.205  0.00  0.00    +0.000 A 
ATOM      3  C   UNL     1       7.985   7.799  18.214  0.00  0.00    +0.000 A 
ATOM      4  N   UNL     1       8.219   6.719  19.027  0.00  0.00    +0.000 NA
ATOM      5  N   UNL     1       7.522   5.694  18.557  0.00  0.00    +0.000 NA
ENDROOT
BRANCH   3   6
ATOM      6  C   UNL     1       8.576   9.145  18.452  0.00  0.00    +0.000 A 
ATOM      7  N   UNL     1       8.573  10.160  17.604  0.00  0.00    +0.000 NA
ATOM      8  C   UNL     1       9.186  11.160  18.332  0.00  0.00    +0.000 A 
ATOM      9  N   UNL     1       9.574  10.791  19.561  0.00  0.00    +0.000 NA
ATOM     10  O   UNL     1       9.181   9.462  19.640  0.00  0.00    +0.000 OA
BRANCH   8  11
ATOM     11  C   UNL     1       9.493  12.543  17.830  0.00  0.00    +0.000 C 
BRANCH  11  12
ATOM     12  N   UNL     1      10.453  13.321  18.644  0.00  0.00    +0.000 NA
ATOM     13  C   UNL     1      10.150  14.771  18.539  0.00  0.00    +0.000 C 
ATOM     14  C   UNL     1      10.584  15.407  17.204  0.00  0.00    +0.000 C 
ATOM     15  O   UNL     1      11.986  15.224  16.984  0.00  0.00    +0.000 OA
ATOM     16  C   UNL     1      12.333  13.834  16.995  0.00  0.00    +0.000 C 
ATOM     17  C   UNL     1      11.874  13.131  18.285  0.00  0.00    +0.000 C 
ENDBRANCH  11  12
ENDBRANCH   8  11
ENDBRANCH   3   6
BRANCH   1  18
ATOM     18  C   UNL     1       5.961   5.225  16.765  0.00  0.00    +0.000 C 
BRANCH  18  19
ATOM     19  C   UNL     1       4.515   5.715  16.633  0.00  0.00    +0.000 C 
BRANCH  19  20
ATOM     20  C   UNL     1       3.969   6.321  17.929  0.00  0.00    +0.000 C 
BRANCH  20  24
ATOM     21  C   UNL     1       1.070   3.731  19.804  0.00  0.00    +0.000 A 
ATOM     22  C   UNL     1       1.372   3.582  18.451  0.00  0.00    +0.000 A 
ATOM     23  C   UNL     1       2.309   4.422  17.846  0.00  0.00    +0.000 A 
ATOM     24  C   UNL     1       2.958   5.416  18.590  0.00  0.00    +0.000 A 
ATOM     25  C   UNL     1       2.642   5.563  19.948  0.00  0.00    +0.000 A 
ATOM     26  C   UNL     1       1.702   4.726  20.551  0.00  0.00    +0.000 A 
ENDBRANCH  20  24
ENDBRANCH  19  20
ENDBRANCH  18  19
ENDBRANCH   1  18
TORSDOF 7
ENDMDL
MODEL 6
REMARK VINA RESULT:      -7.0      1.860      2.379
REMARK  Name = 
REMARK  7 active torsions:
REMARK  status: ('A' for Active; 'I' for Inactive)
REMARK    1  A    between atoms: C_4  and  C_5
REMARK    2  A    between atoms: C_5  and  C_6
REMARK    3  A    between atoms: C_6  and  C_7
REMARK    4  A    between atoms: C_7  and  N_8
REMARK    5  A    between atoms: C_10  and  C_11
REMARK    6  A    between atoms: C_13  and  C_14
REMARK    7  A    between atoms: C_14  and  N_15
REMARK                            x       y       z     vdW  Elec       q    Type
REMARK                         _______ _______ _______ _____ _____    ______ ____
ROOT
ATOM      1  N   UNL     1       4.854   5.406  16.953  0.00  0.00    +0.000 N 
ATOM      2  C   UNL     1       5.391   6.268  17.866  0.00  0.00    +0.000 A 
ATOM      3  C   UNL     1       6.446   6.843  17.192  0.00  0.00    +0.000 A 
ATOM      4  N   UNL     1       6.490   6.349  15.912  0.00  0.00    +0.000 NA
ATOM      5  N   UNL     1       5.498   5.481  15.774  0.00  0.00    +0.000 NA
ENDROOT
BRANCH   3   6
ATOM      6  C   UNL     1       7.431   7.824  17.724  0.00  0.00    +0.000 A 
ATOM      7  N   UNL     1       7.554   9.088  17.353  0.00  0.00    +0.000 NA
ATOM      8  C   UNL     1       8.556   9.548  18.182  0.00  0.00    +0.000 A 
ATOM      9  N   UNL     1       9.054   8.623  19.014  0.00  0.00    +0.000 NA
ATOM     10  O   UNL     1       8.321   7.483  18.709  0.00  0.00    +0.000 OA
BRANCH   8  11
ATOM     11  C   UNL     1       9.141  10.932  18.160  0.00  0.00    +0.000 C 
BRANCH  11  12
ATOM     12  N   UNL     1       9.064  11.680  19.434  0.00  0.00    +0.000 NA
ATOM     13  C   UNL     1       9.032  13.140  19.166  0.00  0.00    +0.000 C 
ATOM     14  C   UNL     1      10.396  13.733  18.764  0.00  0.00    +0.000 C 
ATOM     15  O   UNL     1      11.378  13.483  19.774  0.00  0.00    +0.000 OA
ATOM     16  C   UNL     1      11.515  12.079  20.025  0.00  0.00    +0.000 C 
ATOM     17  C   UNL     1      10.170  11.420  20.380  0.00  0.00    +0.000 C 
ENDBRANCH  11  12
ENDBRANCH   8  11
ENDBRANCH   3   6
BRANCH   1  18
ATOM     18  C   UNL     1       3.730   4.511  17.116  0.00  0.00    +0.000 C 
BRANCH  18  19
ATOM     19  C   UNL     1       4.091   3.021  17.086  0.00  0.00    +0.000 C 
BRANCH  19  20
ATOM     20  C   UNL     1       2.948   2.119  17.559  0.00  0.00    +0.000 C 
BRANCH  20  24
ATOM     21  C   UNL     1       1.553   3.219  21.493  0.00  0.00    +0.000 A 
ATOM     22  C   UNL     1       2.844   2.725  21.320  0.00  0.00    +0.000 A 
ATOM     23  C   UNL     1       3.294   2.368  20.047  0.00  0.00    +0.000 A 
ATOM     24  C   UNL     1       2.456   2.508  18.932  0.00  0.00    +0.000 A 
ATOM     25  C   UNL     1       1.156   2.998  19.117  0.00  0.00    +0.000 A 
ATOM     26  C   UNL     1       0.707   3.351  20.390  0.00  0.00    +0.000 A 
ENDBRANCH  20  24
ENDBRANCH  19  20
ENDBRANCH  18  19
ENDBRANCH   1  18
TORSDOF 7
ENDMDL
MODEL 7
REMARK VINA RESULT:      -7.0      1.514      2.088
REMARK  Name = 
REMARK  7 active torsions:
REMARK  status: ('A' for Active; 'I' for Inactive)
REMARK    1  A    between atoms: C_4  and  C_5
REMARK    2  A    between atoms: C_5  and  C_6
REMARK    3  A    between atoms: C_6  and  C_7
REMARK    4  A    between atoms: C_7  and  N_8
REMARK    5  A    between atoms: C_10  and  C_11
REMARK    6  A    between atoms: C_13  and  C_14
REMARK    7  A    between atoms: C_14  and  N_15
REMARK                            x       y       z     vdW  Elec       q    Type
REMARK                         _______ _______ _______ _____ _____    ______ ____
ROOT
ATOM      1  N   UNL     1       6.495   5.262  17.155  0.00  0.00    +0.000 N 
ATOM      2  C   UNL     1       6.557   6.339  17.993  0.00  0.00    +0.000 A 
ATOM      3  C   UNL     1       7.419   7.201  17.353  0.00  0.00    +0.000 A 
ATOM      4  N   UNL     1       7.813   6.647  16.161  0.00  0.00    +0.000 NA
ATOM      5  N   UNL     1       7.226   5.465  16.045  0.00  0.00    +0.000 NA
ENDROOT
BRANCH   3   6
ATOM      6  C   UNL     1       7.905   8.521  17.841  0.00  0.00    +0.000 A 
ATOM      7  N   UNL     1       8.836   8.720  18.760  0.00  0.00    +0.000 NA
ATOM      8  C   UNL     1       8.939  10.096  18.790  0.00  0.00    +0.000 A 
ATOM      9  N   UNL     1       8.105  10.731  17.955  0.00  0.00    +0.000 NA
ATOM     10  O   UNL     1       7.417   9.697  17.334  0.00  0.00    +0.000 OA
BRANCH   8  11
ATOM     11  C   UNL     1       9.831  10.884  19.706  0.00  0.00    +0.000 C 
BRANCH  11  12
ATOM     12  N   UNL     1      11.151  11.255  19.151  0.00  0.00    +0.000 NA
ATOM     13  C   UNL     1      11.834  12.214  20.057  0.00  0.00    +0.000 C 
ATOM     14  C   UNL     1      11.271  13.647  19.990  0.00  0.00    +0.000 C 
ATOM     15  O   UNL     1      11.341  14.161  18.657  0.00  0.00    +0.000 OA
ATOM     16  C   UNL     1      10.632  13.319  17.741  0.00  0.00    +0.000 C 
ATOM     17  C   UNL     1      11.115  11.858  17.802  0.00  0.00    +0.000 C 
ENDBRANCH  11  12
ENDBRANCH   8  11
ENDBRANCH   3   6
BRANCH   1  18
ATOM     18  C   UNL     1       5.754   4.031  17.328  0.00  0.00    +0.000 C 
BRANCH  18  19
ATOM     19  C   UNL     1       4.338   4.051  16.740  0.00  0.00    +0.000 C 
BRANCH  19  20
ATOM     20  C   UNL     1       3.442   2.945  17.303  0.00  0.00    +0.000 C 
BRANCH  20  24
ATOM     21  C   UNL     1       0.988   4.344  20.566  0.00  0.00    +0.000 A 
ATOM     22  C   UNL     1       0.764   3.086  20.009  0.00  0.00    +0.000 A 
ATOM     23  C   UNL     1       1.558   2.635  18.952  0.00  0.00    +0.000 A 
ATOM     24  C   UNL     1       2.589   3.438  18.446  0.00  0.00    +0.000 A 
ATOM     25  C   UNL     1       2.801   4.704  19.007  0.00  0.00    +0.000 A 
ATOM     26  C   UNL     1       2.005   5.155  20.061  0.00  0.00    +0.000 A 
ENDBRANCH  20  24
ENDBRANCH  19  20
ENDBRANCH  18  19
ENDBRANCH   1  18
TORSDOF 7
ENDMDL
MODEL 8
REMARK VINA RESULT:      -7.0      4.564      6.899
REMARK  Name = 
REMARK  7 active torsions:
REMARK  status: ('A' for Active; 'I' for Inactive)
REMARK    1  A    between atoms: C_4  and  C_5
REMARK    2  A    between atoms: C_5  and  C_6
REMARK    3  A    between atoms: C_6  and  C_7
REMARK    4  A    between atoms: C_7  and  N_8
REMARK    5  A    between atoms: C_10  and  C_11
REMARK    6  A    between atoms: C_13  and  C_14
REMARK    7  A    between atoms: C_14  and  N_15
REMARK                            x       y       z     vdW  Elec       q    Type
REMARK                         _______ _______ _______ _____ _____    ______ ____
ROOT
ATOM      1  N   UNL     1       3.876   4.538  18.013  0.00  0.00    +0.000 N 
ATOM      2  C   UNL     1       3.212   5.710  17.785  0.00  0.00    +0.000 A 
ATOM      3  C   UNL     1       2.982   6.205  19.050  0.00  0.00    +0.000 A 
ATOM      4  N   UNL     1       3.530   5.356  19.977  0.00  0.00    +0.000 NA
ATOM      5  N   UNL     1       4.089   4.346  19.327  0.00  0.00    +0.000 NA
ENDROOT
BRANCH   3   6
ATOM      6  C   UNL     1       2.236   7.441  19.413  0.00  0.00    +0.000 A 
ATOM      7  N   UNL     1       1.999   8.473  18.620  0.00  0.00    +0.000 NA
ATOM      8  C   UNL     1       1.236   9.299  19.421  0.00  0.00    +0.000 A 
ATOM      9  N   UNL     1       1.022   8.826  20.657  0.00  0.00    +0.000 NA
ATOM     10  O   UNL     1       1.685   7.606  20.658  0.00  0.00    +0.000 OA
BRANCH   8  11
ATOM     11  C   UNL     1       0.720  10.656  19.035  0.00  0.00    +0.000 C 
BRANCH  11  12
ATOM     12  N   UNL     1       0.959  11.735  20.019  0.00  0.00    +0.000 NA
ATOM     13  C   UNL     1      -0.311  12.093  20.699  0.00  0.00    +0.000 C 
ATOM     14  C   UNL     1      -1.271  12.933  19.834  0.00  0.00    +0.000 C 
ATOM     15  O   UNL     1      -0.639  14.140  19.397  0.00  0.00    +0.000 OA
ATOM     16  C   UNL     1       0.558  13.860  18.661  0.00  0.00    +0.000 C 
ATOM     17  C   UNL     1       1.535  12.976  19.458  0.00  0.00    +0.000 C 
ENDBRANCH  11  12
ENDBRANCH   8  11
ENDBRANCH   3   6
BRANCH   1  18
ATOM     18  C   UNL     1       4.353   3.574  17.046  0.00  0.00    +0.000 C 
BRANCH  18  19
ATOM     19  C   UNL     1       5.041   4.186  15.820  0.00  0.00    +0.000 C 
BRANCH  19  20
ATOM     20  C   UNL     1       6.568   4.161  15.917  0.00  0.00    +0.000 C 
BRANCH  20  24
ATOM     21  C   UNL     1       8.054   7.077  18.730  0.00  0.00    +0.000 A 
ATOM     22  C   UNL     1       7.565   7.485  17.491  0.00  0.00    +0.000 A 
ATOM     23  C   UNL     1       7.085   6.540  16.581  0.00  0.00    +0.000 A 
ATOM     24  C   UNL     1       7.086   5.176  16.906  0.00  0.00    +0.000 A 
ATOM     25  C   UNL     1       7.588   4.776  18.152  0.00  0.00    +0.000 A 
ATOM     26  C   UNL     1       8.069   5.721  19.058  0.00  0.00    +0.000 A 
ENDBRANCH  20  24
ENDBRANCH  19  20
ENDBRANCH  18  19
ENDBRANCH   1  18
TORSDOF 7
ENDMDL
MODEL 9
REMARK VINA RESULT:      -6.9      1.905      3.235
REMARK  Name = 
REMARK  7 active torsions:
REMARK  status: ('A' for Active; 'I' for Inactive)
REMARK    1  A    between atoms: C_4  and  C_5
REMARK    2  A    between atoms: C_5  and  C_6
REMARK    3  A    between atoms: C_6  and  C_7
REMARK    4  A    between atoms: C_7  and  N_8
REMARK    5  A    between atoms: C_10  and  C_11
REMARK    6  A    between atoms: C_13  and  C_14
REMARK    7  A    between atoms: C_14  and  N_15
REMARK                            x       y       z     vdW  Elec       q    Type
REMARK                         _______ _______ _______ _____ _____    ______ ____
ROOT
ATOM      1  N   UNL     1       7.525   6.552  17.832  0.00  0.00    +0.000 N 
ATOM      2  C   UNL     1       8.254   7.277  18.731  0.00  0.00    +0.000 A 
ATOM      3  C   UNL     1       8.259   8.547  18.197  0.00  0.00    +0.000 A 
ATOM      4  N   UNL     1       7.522   8.557  17.040  0.00  0.00    +0.000 NA
ATOM      5  N   UNL     1       7.064   7.330  16.837  0.00  0.00    +0.000 NA
ENDROOT
BRANCH   3   6
ATOM      6  C   UNL     1       8.961   9.747  18.730  0.00  0.00    +0.000 A 
ATOM      7  N   UNL     1       9.490  10.726  18.013  0.00  0.00    +0.000 NA
ATOM      8  C   UNL     1       9.952  11.592  18.983  0.00  0.00    +0.000 A 
ATOM      9  N   UNL     1       9.747  11.175  20.240  0.00  0.00    +0.000 NA
ATOM     10  O   UNL     1       9.102   9.957  20.077  0.00  0.00    +0.000 OA
BRANCH   8  11
ATOM     11  C   UNL     1      10.695  12.873  18.727  0.00  0.00    +0.000 C 
BRANCH  11  12
ATOM     12  N   UNL     1      10.164  13.712  17.630  0.00  0.00    +0.000 NA
ATOM     13  C   UNL     1      11.274  14.445  16.968  0.00  0.00    +0.000 C 
ATOM     14  C   UNL     1      11.809  15.639  17.782  0.00  0.00    +0.000 C 
ATOM     15  O   UNL     1      10.763  16.571  18.068  0.00  0.00    +0.000 OA
ATOM     16  C   UNL     1       9.691  15.942  18.780  0.00  0.00    +0.000 C 
ATOM     17  C   UNL     1       9.149  14.706  18.038  0.00  0.00    +0.000 C 
ENDBRANCH  11  12
ENDBRANCH   8  11
ENDBRANCH   3   6
BRANCH   1  18
ATOM     18  C   UNL     1       7.207   5.141  17.863  0.00  0.00    +0.000 C 
BRANCH  18  19
ATOM     19  C   UNL     1       5.776   4.799  17.435  0.00  0.00    +0.000 C 
BRANCH  19  20
ATOM     20  C   UNL     1       4.721   5.286  18.432  0.00  0.00    +0.000 C 
BRANCH  20  24
ATOM     21  C   UNL     1       1.299   2.659  18.542  0.00  0.00    +0.000 A 
ATOM     22  C   UNL     1       2.399   2.344  17.745  0.00  0.00    +0.000 A 
ATOM     23  C   UNL     1       3.505   3.197  17.710  0.00  0.00    +0.000 A 
ATOM     24  C   UNL     1       3.523   4.370  18.476  0.00  0.00    +0.000 A 
ATOM     25  C   UNL     1       2.409   4.681  19.268  0.00  0.00    +0.000 A 
ATOM     26  C   UNL     1       1.303   3.830  19.300  0.00  0.00    +0.000 A 
ENDBRANCH  20  24
ENDBRANCH  19  20
ENDBRANCH  18  19
ENDBRANCH   1  18
TORSDOF 7
ENDMDL
