MODEL 1
REMARK VINA RESULT:      -8.2      0.000      0.000
REMARK  Name = 
REMARK  7 active torsions:
REMARK  status: ('A' for Active; 'I' for Inactive)
REMARK    1  A    between atoms: C_1  and  S_2
REMARK    2  A    between atoms: S_2  and  C_3
REMARK    3  A    between atoms: N_6  and  C_7
REMARK    4  A    between atoms: C_7  and  C_8
REMARK    5  A    between atoms: C_8  and  C_9
REMARK    6  A    between atoms: N_18  and  C_19
REMARK    7  A    between atoms: C_19  and  C_20
REMARK                            x       y       z     vdW  Elec       q    Type
REMARK                         _______ _______ _______ _____ _____    ______ ____
ROOT
ATOM      1  C   UNL     1       3.059   7.543  18.141  0.00  0.00    +0.000 A 
ATOM      2  N   UNL     1       2.638   6.881  19.238  0.00  0.00    +0.000 NA
ATOM      3  C   UNL     1       3.354   5.836  19.702  0.00  0.00    +0.000 A 
ATOM      4  N   UNL     1       2.899   5.061  20.779  0.00  0.00    +0.000 N 
ATOM      5  C   UNL     1       4.529   5.492  19.026  0.00  0.00    +0.000 A 
ATOM      6  C   UNL     1       5.524   4.488  19.178  0.00  0.00    +0.000 A 
ATOM      7  C   UNL     1       6.412   4.626  18.135  0.00  0.00    +0.000 A 
ATOM      8  N   UNL     1       5.986   5.673  17.350  0.00  0.00    +0.000 N 
ATOM      9  C   UNL     1       4.852   6.230  17.897  0.00  0.00    +0.000 A 
ATOM     10  N   UNL     1       4.158   7.275  17.409  0.00  0.00    +0.000 NA
ATOM     11  H   UNL     1       3.399   5.361  21.613  0.00  0.00    +0.000 HD
ENDROOT
BRANCH   1  13
ATOM     12  C   UNL     1       1.249   9.348  19.214  0.00  0.00    +0.000 C 
ATOM     13  S   UNL     1       1.981   8.873  17.633  0.00  0.00    +0.000 S 
ENDBRANCH   1  13
BRANCH   4  14
ATOM     14  C   UNL     1       1.445   5.088  20.978  0.00  0.00    +0.000 C 
BRANCH  14  15
ATOM     15  C   UNL     1       0.790   3.856  20.334  0.00  0.00    +0.000 C 
BRANCH  15  16
ATOM     16  C   UNL     1       1.644   3.208  19.277  0.00  0.00    +0.000 A 
ATOM     17  C   UNL     1       1.612   3.681  17.959  0.00  0.00    +0.000 A 
ATOM     18  C   UNL     1       2.436   3.115  16.987  0.00  0.00    +0.000 A 
ATOM     19  C   UNL     1       3.291   2.067  17.324  0.00  0.00    +0.000 A 
ATOM     20  C   UNL     1       3.317   1.580  18.630  0.00  0.00    +0.000 A 
ATOM     21  C   UNL     1       2.494   2.146  19.605  0.00  0.00    +0.000 A 
ENDBRANCH  15  16
ENDBRANCH  14  15
ENDBRANCH   4  14
BRANCH   8  22
ATOM     22  C   UNL     1       6.692   6.158  16.173  0.00  0.00    +0.000 C 
BRANCH  22  23
ATOM     23  C   UNL     1       6.476   5.294  14.951  0.00  0.00    +0.000 A 
ATOM     24  C   UNL     1       7.441   5.243  13.928  0.00  0.00    +0.000 A 
ATOM     25  C   UNL     1       7.276   4.386  12.838  0.00  0.00    +0.000 A 
ATOM     26  C   UNL     1       6.149   3.579  12.761  0.00  0.00    +0.000 A 
ATOM     27  F   UNL     1       6.004   2.741  11.728  0.00  0.00    +0.000 F 
ATOM     28  C   UNL     1       5.175   3.620  13.750  0.00  0.00    +0.000 A 
ATOM     29  C   UNL     1       5.335   4.479  14.843  0.00  0.00    +0.000 A 
ENDBRANCH  22  23
ENDBRANCH   8  22
TORSDOF 6
ENDMDL
MODEL 2
REMARK VINA RESULT:      -8.0      0.089      1.295
REMARK  Name = 
REMARK  7 active torsions:
REMARK  status: ('A' for Active; 'I' for Inactive)
REMARK    1  A    between atoms: C_1  and  S_2
REMARK    2  A    between atoms: S_2  and  C_3
REMARK    3  A    between atoms: N_6  and  C_7
REMARK    4  A    between atoms: C_7  and  C_8
REMARK    5  A    between atoms: C_8  and  C_9
REMARK    6  A    between atoms: N_18  and  C_19
REMARK    7  A    between atoms: C_19  and  C_20
REMARK                            x       y       z     vdW  Elec       q    Type
REMARK                         _______ _______ _______ _____ _____    ______ ____
ROOT
ATOM      1  C   UNL     1       3.105   7.571  18.115  0.00  0.00    +0.000 A 
ATOM      2  N   UNL     1       2.688   6.934  19.228  0.00  0.00    +0.000 NA
ATOM      3  C   UNL     1       3.397   5.888  19.702  0.00  0.00    +0.000 A 
ATOM      4  N   UNL     1       2.945   5.139  20.799  0.00  0.00    +0.000 N 
ATOM      5  C   UNL     1       4.560   5.518  19.020  0.00  0.00    +0.000 A 
ATOM      6  C   UNL     1       5.545   4.505  19.178  0.00  0.00    +0.000 A 
ATOM      7  C   UNL     1       6.422   4.613  18.123  0.00  0.00    +0.000 A 
ATOM      8  N   UNL     1       6.000   5.651  17.324  0.00  0.00    +0.000 N 
ATOM      9  C   UNL     1       4.878   6.232  17.874  0.00  0.00    +0.000 A 
ATOM     10  N   UNL     1       4.192   7.277  17.375  0.00  0.00    +0.000 NA
ATOM     11  H   UNL     1       3.458   5.448  21.621  0.00  0.00    +0.000 HD
ENDROOT
BRANCH   1  13
ATOM     12  C   UNL     1       1.242   9.340  19.157  0.00  0.00    +0.000 C 
ATOM     13  S   UNL     1       2.037   8.905  17.595  0.00  0.00    +0.000 S 
ENDBRANCH   1  13
BRANCH   4  14
ATOM     14  C   UNL     1       1.494   5.187  21.014  0.00  0.00    +0.000 C 
BRANCH  14  15
ATOM     15  C   UNL     1       0.809   3.989  20.339  0.00  0.00    +0.000 C 
BRANCH  15  16
ATOM     16  C   UNL     1       1.666   3.315  19.301  0.00  0.00    +0.000 A 
ATOM     17  C   UNL     1       2.494   2.243  19.661  0.00  0.00    +0.000 A 
ATOM     18  C   UNL     1       3.253   1.584  18.695  0.00  0.00    +0.000 A 
ATOM     19  C   UNL     1       3.197   1.998  17.365  0.00  0.00    +0.000 A 
ATOM     20  C   UNL     1       2.388   3.074  17.002  0.00  0.00    +0.000 A 
ATOM     21  C   UNL     1       1.627   3.733  17.966  0.00  0.00    +0.000 A 
ENDBRANCH  15  16
ENDBRANCH  14  15
ENDBRANCH   4  14
BRANCH   8  22
ATOM     22  C   UNL     1       6.698   6.106  16.131  0.00  0.00    +0.000 C 
BRANCH  22  23
ATOM     23  C   UNL     1       6.517   5.183  14.947  0.00  0.00    +0.000 A 
ATOM     24  C   UNL     1       5.363   4.386  14.827  0.00  0.00    +0.000 A 
ATOM     25  C   UNL     1       5.161   3.593  13.696  0.00  0.00    +0.000 A 
ATOM     26  C   UNL     1       6.108   3.589  12.681  0.00  0.00    +0.000 A 
ATOM     27  F   UNL     1       5.902   2.847  11.586  0.00  0.00    +0.000 F 
ATOM     28  C   UNL     1       7.261   4.356  12.779  0.00  0.00    +0.000 A 
ATOM     29  C   UNL     1       7.470   5.150  13.912  0.00  0.00    +0.000 A 
ENDBRANCH  22  23
ENDBRANCH   8  22
TORSDOF 6
ENDMDL
MODEL 3
REMARK VINA RESULT:      -7.9      4.524      8.707
REMARK  Name = 
REMARK  7 active torsions:
REMARK  status: ('A' for Active; 'I' for Inactive)
REMARK    1  A    between atoms: C_1  and  S_2
REMARK    2  A    between atoms: S_2  and  C_3
REMARK    3  A    between atoms: N_6  and  C_7
REMARK    4  A    between atoms: C_7  and  C_8
REMARK    5  A    between atoms: C_8  and  C_9
REMARK    6  A    between atoms: N_18  and  C_19
REMARK    7  A    between atoms: C_19  and  C_20
REMARK                            x       y       z     vdW  Elec       q    Type
REMARK                         _______ _______ _______ _____ _____    ______ ____
ROOT
ATOM      1  C   UNL     1       0.294   9.500  21.361  0.00  0.00    +0.000 A 
ATOM      2  N   UNL     1      -0.079  10.520  20.561  0.00  0.00    +0.000 NA
ATOM      3  C   UNL     1       0.369  10.568  19.290  0.00  0.00    +0.000 A 
ATOM      4  N   UNL     1       0.084  11.660  18.457  0.00  0.00    +0.000 N 
ATOM      5  C   UNL     1       1.196   9.532  18.844  0.00  0.00    +0.000 A 
ATOM      6  C   UNL     1       1.866   9.226  17.628  0.00  0.00    +0.000 A 
ATOM      7  C   UNL     1       2.601   8.082  17.838  0.00  0.00    +0.000 A 
ATOM      8  N   UNL     1       2.410   7.686  19.142  0.00  0.00    +0.000 N 
ATOM      9  C   UNL     1       1.531   8.547  19.762  0.00  0.00    +0.000 A 
ATOM     10  N   UNL     1       1.103   8.473  21.036  0.00  0.00    +0.000 NA
ATOM     11  H   UNL     1      -0.678  11.392  17.840  0.00  0.00    +0.000 HD
ENDROOT
BRANCH   1  13
ATOM     12  C   UNL     1      -1.149  11.223  22.984  0.00  0.00    +0.000 C 
ATOM     13  S   UNL     1      -0.350   9.605  23.023  0.00  0.00    +0.000 S 
ENDBRANCH   1  13
BRANCH   4  14
ATOM     14  C   UNL     1      -0.206  12.910  19.169  0.00  0.00    +0.000 C 
BRANCH  14  15
ATOM     15  C   UNL     1       1.075  13.739  19.348  0.00  0.00    +0.000 C 
BRANCH  15  16
ATOM     16  C   UNL     1       0.952  15.150  18.841  0.00  0.00    +0.000 A 
ATOM     17  C   UNL     1       2.100  15.880  18.505  0.00  0.00    +0.000 A 
ATOM     18  C   UNL     1       1.988  17.170  17.989  0.00  0.00    +0.000 A 
ATOM     19  C   UNL     1       0.730  17.743  17.813  0.00  0.00    +0.000 A 
ATOM     20  C   UNL     1      -0.416  17.029  18.159  0.00  0.00    +0.000 A 
ATOM     21  C   UNL     1      -0.308  15.738  18.674  0.00  0.00    +0.000 A 
ENDBRANCH  15  16
ENDBRANCH  14  15
ENDBRANCH   4  14
BRANCH   8  22
ATOM     22  C   UNL     1       2.987   6.487  19.731  0.00  0.00    +0.000 C 
BRANCH  22  23
ATOM     23  C   UNL     1       2.208   5.231  19.406  0.00  0.00    +0.000 A 
ATOM     24  C   UNL     1       2.272   4.657  18.123  0.00  0.00    +0.000 A 
ATOM     25  C   UNL     1       1.616   3.457  17.847  0.00  0.00    +0.000 A 
ATOM     26  C   UNL     1       0.891   2.824  18.848  0.00  0.00    +0.000 A 
ATOM     27  F   UNL     1       0.281   1.661  18.589  0.00  0.00    +0.000 F 
ATOM     28  C   UNL     1       0.800   3.375  20.119  0.00  0.00    +0.000 A 
ATOM     29  C   UNL     1       1.454   4.580  20.399  0.00  0.00    +0.000 A 
ENDBRANCH  22  23
ENDBRANCH   8  22
TORSDOF 6
ENDMDL
MODEL 4
REMARK VINA RESULT:      -7.8      4.260      8.334
REMARK  Name = 
REMARK  7 active torsions:
REMARK  status: ('A' for Active; 'I' for Inactive)
REMARK    1  A    between atoms: C_1  and  S_2
REMARK    2  A    between atoms: S_2  and  C_3
REMARK    3  A    between atoms: N_6  and  C_7
REMARK    4  A    between atoms: C_7  and  C_8
REMARK    5  A    between atoms: C_8  and  C_9
REMARK    6  A    between atoms: N_18  and  C_19
REMARK    7  A    between atoms: C_19  and  C_20
REMARK                            x       y       z     vdW  Elec       q    Type
REMARK                         _______ _______ _______ _____ _____    ______ ____
ROOT
ATOM      1  C   UNL     1       0.202   9.557  21.294  0.00  0.00    +0.000 A 
ATOM      2  N   UNL     1      -0.144  10.569  20.473  0.00  0.00    +0.000 NA
ATOM      3  C   UNL     1       0.347  10.605  19.216  0.00  0.00    +0.000 A 
ATOM      4  N   UNL     1       0.089  11.689  18.364  0.00  0.00    +0.000 N 
ATOM      5  C   UNL     1       1.190   9.566  18.810  0.00  0.00    +0.000 A 
ATOM      6  C   UNL     1       1.902   9.249  17.620  0.00  0.00    +0.000 A 
ATOM      7  C   UNL     1       2.631   8.108  17.866  0.00  0.00    +0.000 A 
ATOM      8  N   UNL     1       2.395   7.726  19.167  0.00  0.00    +0.000 N 
ATOM      9  C   UNL     1       1.495   8.591  19.749  0.00  0.00    +0.000 A 
ATOM     10  N   UNL     1       1.024   8.528  21.008  0.00  0.00    +0.000 NA
ATOM     11  H   UNL     1      -0.651  11.413  17.723  0.00  0.00    +0.000 HD
ENDROOT
BRANCH   1  13
ATOM     12  C   UNL     1      -1.086  11.384  22.934  0.00  0.00    +0.000 C 
ATOM     13  S   UNL     1      -0.498   9.677  22.933  0.00  0.00    +0.000 S 
ENDBRANCH   1  13
BRANCH   4  14
ATOM     14  C   UNL     1      -0.227  12.945  19.053  0.00  0.00    +0.000 C 
BRANCH  14  15
ATOM     15  C   UNL     1       1.026  13.515  19.736  0.00  0.00    +0.000 C 
BRANCH  15  16
ATOM     16  C   UNL     1       1.734  14.558  18.914  0.00  0.00    +0.000 A 
ATOM     17  C   UNL     1       1.276  15.883  18.913  0.00  0.00    +0.000 A 
ATOM     18  C   UNL     1       1.957  16.862  18.191  0.00  0.00    +0.000 A 
ATOM     19  C   UNL     1       3.094  16.524  17.460  0.00  0.00    +0.000 A 
ATOM     20  C   UNL     1       3.547  15.205  17.444  0.00  0.00    +0.000 A 
ATOM     21  C   UNL     1       2.868  14.223  18.166  0.00  0.00    +0.000 A 
ENDBRANCH  15  16
ENDBRANCH  14  15
ENDBRANCH   4  14
BRANCH   8  22
ATOM     22  C   UNL     1       2.954   6.533  19.787  0.00  0.00    +0.000 C 
BRANCH  22  23
ATOM     23  C   UNL     1       2.196   5.271  19.439  0.00  0.00    +0.000 A 
ATOM     24  C   UNL     1       2.282   4.714  18.149  0.00  0.00    +0.000 A 
ATOM     25  C   UNL     1       1.645   3.508  17.851  0.00  0.00    +0.000 A 
ATOM     26  C   UNL     1       0.918   2.853  18.836  0.00  0.00    +0.000 A 
ATOM     27  F   UNL     1       0.327   1.685  18.556  0.00  0.00    +0.000 F 
ATOM     28  C   UNL     1       0.805   3.387  20.113  0.00  0.00    +0.000 A 
ATOM     29  C   UNL     1       1.439   4.597  20.415  0.00  0.00    +0.000 A 
ENDBRANCH  22  23
ENDBRANCH   8  22
TORSDOF 6
ENDMDL
MODEL 5
REMARK VINA RESULT:      -7.7      4.200      7.543
REMARK  Name = 
REMARK  7 active torsions:
REMARK  status: ('A' for Active; 'I' for Inactive)
REMARK    1  A    between atoms: C_1  and  S_2
REMARK    2  A    between atoms: S_2  and  C_3
REMARK    3  A    between atoms: N_6  and  C_7
REMARK    4  A    between atoms: C_7  and  C_8
REMARK    5  A    between atoms: C_8  and  C_9
REMARK    6  A    between atoms: N_18  and  C_19
REMARK    7  A    between atoms: C_19  and  C_20
REMARK                            x       y       z     vdW  Elec       q    Type
REMARK                         _______ _______ _______ _____ _____    ______ ____
ROOT
ATOM      1  C   UNL     1       3.662   7.260  17.543  0.00  0.00    +0.000 A 
ATOM      2  N   UNL     1       4.861   7.851  17.362  0.00  0.00    +0.000 NA
ATOM      3  C   UNL     1       5.933   7.097  17.042  0.00  0.00    +0.000 A 
ATOM      4  N   UNL     1       7.215   7.659  16.942  0.00  0.00    +0.000 N 
ATOM      5  C   UNL     1       5.748   5.719  16.891  0.00  0.00    +0.000 A 
ATOM      6  C   UNL     1       6.589   4.614  16.585  0.00  0.00    +0.000 A 
ATOM      7  C   UNL     1       5.818   3.476  16.656  0.00  0.00    +0.000 A 
ATOM      8  N   UNL     1       4.540   3.850  17.004  0.00  0.00    +0.000 N 
ATOM      9  C   UNL     1       4.475   5.220  17.124  0.00  0.00    +0.000 A 
ATOM     10  N   UNL     1       3.387   5.944  17.446  0.00  0.00    +0.000 NA
ATOM     11  H   UNL     1       7.419   7.796  15.955  0.00  0.00    +0.000 HD
ENDROOT
BRANCH   1  13
ATOM     12  C   UNL     1       1.956   7.799  19.660  0.00  0.00    +0.000 C 
ATOM     13  S   UNL     1       2.356   8.388  18.001  0.00  0.00    +0.000 S 
ENDBRANCH   1  13
BRANCH   4  14
ATOM     14  C   UNL     1       7.401   8.893  17.713  0.00  0.00    +0.000 C 
BRANCH  14  15
ATOM     15  C   UNL     1       8.643   8.786  18.611  0.00  0.00    +0.000 C 
BRANCH  15  16
ATOM     16  C   UNL     1       9.254  10.118  18.951  0.00  0.00    +0.000 A 
ATOM     17  C   UNL     1       9.458  10.477  20.291  0.00  0.00    +0.000 A 
ATOM     18  C   UNL     1      10.068  11.690  20.610  0.00  0.00    +0.000 A 
ATOM     19  C   UNL     1      10.470  12.555  19.594  0.00  0.00    +0.000 A 
ATOM     20  C   UNL     1      10.256  12.212  18.260  0.00  0.00    +0.000 A 
ATOM     21  C   UNL     1       9.648  10.999  17.937  0.00  0.00    +0.000 A 
ENDBRANCH  15  16
ENDBRANCH  14  15
ENDBRANCH   4  14
BRANCH   8  22
ATOM     22  C   UNL     1       3.421   2.928  17.132  0.00  0.00    +0.000 C 
BRANCH  22  23
ATOM     23  C   UNL     1       2.812   2.921  18.517  0.00  0.00    +0.000 A 
ATOM     24  C   UNL     1       1.427   3.098  18.694  0.00  0.00    +0.000 A 
ATOM     25  C   UNL     1       0.856   3.013  19.965  0.00  0.00    +0.000 A 
ATOM     26  C   UNL     1       1.663   2.755  21.065  0.00  0.00    +0.000 A 
ATOM     27  F   UNL     1       1.111   2.650  22.280  0.00  0.00    +0.000 F 
ATOM     28  C   UNL     1       3.034   2.590  20.921  0.00  0.00    +0.000 A 
ATOM     29  C   UNL     1       3.611   2.676  19.649  0.00  0.00    +0.000 A 
ENDBRANCH  22  23
ENDBRANCH   8  22
TORSDOF 6
ENDMDL
MODEL 6
REMARK VINA RESULT:      -7.6      4.025      8.070
REMARK  Name = 
REMARK  7 active torsions:
REMARK  status: ('A' for Active; 'I' for Inactive)
REMARK    1  A    between atoms: C_1  and  S_2
REMARK    2  A    between atoms: S_2  and  C_3
REMARK    3  A    between atoms: N_6  and  C_7
REMARK    4  A    between atoms: C_7  and  C_8
REMARK    5  A    between atoms: C_8  and  C_9
REMARK    6  A    between atoms: N_18  and  C_19
REMARK    7  A    between atoms: C_19  and  C_20
REMARK                            x       y       z     vdW  Elec       q    Type
REMARK                         _______ _______ _______ _____ _____    ______ ____
ROOT
ATOM      1  C   UNL     1       0.166   9.497  21.394  0.00  0.00    +0.000 A 
ATOM      2  N   UNL     1      -0.351  10.460  20.604  0.00  0.00    +0.000 NA
ATOM      3  C   UNL     1       0.007  10.519  19.304  0.00  0.00    +0.000 A 
ATOM      4  N   UNL     1      -0.431  11.561  18.473  0.00  0.00    +0.000 N 
ATOM      5  C   UNL     1       0.897   9.553  18.823  0.00  0.00    +0.000 A 
ATOM      6  C   UNL     1       1.511   9.281  17.570  0.00  0.00    +0.000 A 
ATOM      7  C   UNL     1       2.362   8.214  17.750  0.00  0.00    +0.000 A 
ATOM      8  N   UNL     1       2.293   7.834  19.071  0.00  0.00    +0.000 N 
ATOM      9  C   UNL     1       1.381   8.625  19.733  0.00  0.00    +0.000 A 
ATOM     10  N   UNL     1       1.045   8.541  21.034  0.00  0.00    +0.000 NA
ATOM     11  H   UNL     1      -1.204  11.209  17.913  0.00  0.00    +0.000 HD
ENDROOT
BRANCH   1  13
ATOM     12  C   UNL     1      -1.341  11.108  23.074  0.00  0.00    +0.000 C 
ATOM     13  S   UNL     1      -0.376   9.582  23.094  0.00  0.00    +0.000 S 
ENDBRANCH   1  13
BRANCH   4  14
ATOM     14  C   UNL     1      -0.790  12.795  19.182  0.00  0.00    +0.000 C 
BRANCH  14  15
ATOM     15  C   UNL     1      -0.002  13.988  18.619  0.00  0.00    +0.000 C 
BRANCH  15  16
ATOM     16  C   UNL     1       1.354  14.160  19.247  0.00  0.00    +0.000 A 
ATOM     17  C   UNL     1       2.499  14.232  18.440  0.00  0.00    +0.000 A 
ATOM     18  C   UNL     1       3.752  14.440  19.014  0.00  0.00    +0.000 A 
ATOM     19  C   UNL     1       3.873  14.569  20.397  0.00  0.00    +0.000 A 
ATOM     20  C   UNL     1       2.741  14.483  21.206  0.00  0.00    +0.000 A 
ATOM     21  C   UNL     1       1.485  14.277  20.635  0.00  0.00    +0.000 A 
ENDBRANCH  15  16
ENDBRANCH  14  15
ENDBRANCH   4  14
BRANCH   8  22
ATOM     22  C   UNL     1       3.016   6.706  19.641  0.00  0.00    +0.000 C 
BRANCH  22  23
ATOM     23  C   UNL     1       2.340   5.377  19.388  0.00  0.00    +0.000 A 
ATOM     24  C   UNL     1       1.592   4.747  20.400  0.00  0.00    +0.000 A 
ATOM     25  C   UNL     1       0.905   3.560  20.142  0.00  0.00    +0.000 A 
ATOM     26  C   UNL     1       0.963   2.993  18.876  0.00  0.00    +0.000 A 
ATOM     27  F   UNL     1       0.285   1.867  18.623  0.00  0.00    +0.000 F 
ATOM     28  C   UNL     1       1.704   3.586  17.863  0.00  0.00    +0.000 A 
ATOM     29  C   UNL     1       2.397   4.775  18.118  0.00  0.00    +0.000 A 
ENDBRANCH  22  23
ENDBRANCH   8  22
TORSDOF 6
ENDMDL
MODEL 7
REMARK VINA RESULT:      -7.4      4.613      8.842
REMARK  Name = 
REMARK  7 active torsions:
REMARK  status: ('A' for Active; 'I' for Inactive)
REMARK    1  A    between atoms: C_1  and  S_2
REMARK    2  A    between atoms: S_2  and  C_3
REMARK    3  A    between atoms: N_6  and  C_7
REMARK    4  A    between atoms: C_7  and  C_8
REMARK    5  A    between atoms: C_8  and  C_9
REMARK    6  A    between atoms: N_18  and  C_19
REMARK    7  A    between atoms: C_19  and  C_20
REMARK                            x       y       z     vdW  Elec       q    Type
REMARK                         _______ _______ _______ _____ _____    ______ ____
ROOT
ATOM      1  C   UNL     1       0.249   9.616  21.351  0.00  0.00    +0.000 A 
ATOM      2  N   UNL     1      -0.107  10.617  20.520  0.00  0.00    +0.000 NA
ATOM      3  C   UNL     1       0.351  10.623  19.250  0.00  0.00    +0.000 A 
ATOM      4  N   UNL     1       0.084  11.694  18.385  0.00  0.00    +0.000 N 
ATOM      5  C   UNL     1       1.168   9.565  18.841  0.00  0.00    +0.000 A 
ATOM      6  C   UNL     1       1.842   9.216  17.639  0.00  0.00    +0.000 A 
ATOM      7  C   UNL     1       2.563   8.070  17.887  0.00  0.00    +0.000 A 
ATOM      8  N   UNL     1       2.358   7.715  19.200  0.00  0.00    +0.000 N 
ATOM      9  C   UNL     1       1.486   8.603  19.789  0.00  0.00    +0.000 A 
ATOM     10  N   UNL     1       1.049   8.571  21.062  0.00  0.00    +0.000 NA
ATOM     11  H   UNL     1      -0.678  11.417  17.770  0.00  0.00    +0.000 HD
ENDROOT
BRANCH   1  13
ATOM     12  C   UNL     1      -1.192  11.399  22.911  0.00  0.00    +0.000 C 
ATOM     13  S   UNL     1      -0.404   9.777  23.005  0.00  0.00    +0.000 S 
ENDBRANCH   1  13
BRANCH   4  14
ATOM     14  C   UNL     1      -0.196  12.967  19.058  0.00  0.00    +0.000 C 
BRANCH  14  15
ATOM     15  C   UNL     1       1.043  13.875  19.033  0.00  0.00    +0.000 C 
BRANCH  15  16
ATOM     16  C   UNL     1       0.724  15.330  19.247  0.00  0.00    +0.000 A 
ATOM     17  C   UNL     1      -0.372  15.914  18.596  0.00  0.00    +0.000 A 
ATOM     18  C   UNL     1      -0.700  17.248  18.829  0.00  0.00    +0.000 A 
ATOM     19  C   UNL     1       0.069  18.012  19.706  0.00  0.00    +0.000 A 
ATOM     20  C   UNL     1       1.170  17.443  20.345  0.00  0.00    +0.000 A 
ATOM     21  C   UNL     1       1.499  16.107  20.115  0.00  0.00    +0.000 A 
ENDBRANCH  15  16
ENDBRANCH  14  15
ENDBRANCH   4  14
BRANCH   8  22
ATOM     22  C   UNL     1       2.917   6.526  19.828  0.00  0.00    +0.000 C 
BRANCH  22  23
ATOM     23  C   UNL     1       2.164   5.261  19.482  0.00  0.00    +0.000 A 
ATOM     24  C   UNL     1       2.236   4.712  18.189  0.00  0.00    +0.000 A 
ATOM     25  C   UNL     1       1.603   3.503  17.893  0.00  0.00    +0.000 A 
ATOM     26  C   UNL     1       0.894   2.838  18.883  0.00  0.00    +0.000 A 
ATOM     27  F   UNL     1       0.308   1.667  18.605  0.00  0.00    +0.000 F 
ATOM     28  C   UNL     1       0.795   3.363  20.165  0.00  0.00    +0.000 A 
ATOM     29  C   UNL     1       1.425   4.576  20.465  0.00  0.00    +0.000 A 
ENDBRANCH  22  23
ENDBRANCH   8  22
TORSDOF 6
ENDMDL
MODEL 8
REMARK VINA RESULT:      -7.4      4.255      8.231
REMARK  Name = 
REMARK  7 active torsions:
REMARK  status: ('A' for Active; 'I' for Inactive)
REMARK    1  A    between atoms: C_1  and  S_2
REMARK    2  A    between atoms: S_2  and  C_3
REMARK    3  A    between atoms: N_6  and  C_7
REMARK    4  A    between atoms: C_7  and  C_8
REMARK    5  A    between atoms: C_8  and  C_9
REMARK    6  A    between atoms: N_18  and  C_19
REMARK    7  A    between atoms: C_19  and  C_20
REMARK                            x       y       z     vdW  Elec       q    Type
REMARK                         _______ _______ _______ _____ _____    ______ ____
ROOT
ATOM      1  C   UNL     1       0.552   9.339  21.425  0.00  0.00    +0.000 A 
ATOM      2  N   UNL     1       0.155  10.377  20.661  0.00  0.00    +0.000 NA
ATOM      3  C   UNL     1       0.549  10.446  19.373  0.00  0.00    +0.000 A 
ATOM      4  N   UNL     1       0.239  11.556  18.574  0.00  0.00    +0.000 N 
ATOM      5  C   UNL     1       1.347   9.412  18.873  0.00  0.00    +0.000 A 
ATOM      6  C   UNL     1       1.961   9.124  17.623  0.00  0.00    +0.000 A 
ATOM      7  C   UNL     1       2.695   7.970  17.780  0.00  0.00    +0.000 A 
ATOM      8  N   UNL     1       2.555   7.551  19.083  0.00  0.00    +0.000 N 
ATOM      9  C   UNL     1       1.712   8.407  19.757  0.00  0.00    +0.000 A 
ATOM     10  N   UNL     1       1.338   8.311  21.046  0.00  0.00    +0.000 NA
ATOM     11  H   UNL     1      -0.552  11.307  17.985  0.00  0.00    +0.000 HD
ENDROOT
BRANCH   1  13
ATOM     12  C   UNL     1      -1.119  10.847  23.043  0.00  0.00    +0.000 C 
ATOM     13  S   UNL     1      -0.019   9.416  23.115  0.00  0.00    +0.000 S 
ENDBRANCH   1  13
BRANCH   4  14
ATOM     14  C   UNL     1      -0.009  12.794  19.322  0.00  0.00    +0.000 C 
BRANCH  14  15
ATOM     15  C   UNL     1      -1.486  13.203  19.212  0.00  0.00    +0.000 C 
BRANCH  15  16
ATOM     16  C   UNL     1      -2.153  13.405  20.546  0.00  0.00    +0.000 A 
ATOM     17  C   UNL     1      -1.541  14.198  21.526  0.00  0.00    +0.000 A 
ATOM     18  C   UNL     1      -2.177  14.427  22.745  0.00  0.00    +0.000 A 
ATOM     19  C   UNL     1      -3.425  13.859  22.997  0.00  0.00    +0.000 A 
ATOM     20  C   UNL     1      -4.033  13.057  22.033  0.00  0.00    +0.000 A 
ATOM     21  C   UNL     1      -3.400  12.827  20.812  0.00  0.00    +0.000 A 
ENDBRANCH  15  16
ENDBRANCH  14  15
ENDBRANCH   4  14
BRANCH   8  22
ATOM     22  C   UNL     1       3.146   6.335  19.624  0.00  0.00    +0.000 C 
BRANCH  22  23
ATOM     23  C   UNL     1       2.327   5.097  19.336  0.00  0.00    +0.000 A 
ATOM     24  C   UNL     1       2.438   4.434  18.100  0.00  0.00    +0.000 A 
ATOM     25  C   UNL     1       1.741   3.248  17.863  0.00  0.00    +0.000 A 
ATOM     26  C   UNL     1       0.929   2.719  18.857  0.00  0.00    +0.000 A 
ATOM     27  F   UNL     1       0.279   1.569  18.638  0.00  0.00    +0.000 F 
ATOM     28  C   UNL     1       0.790   3.359  20.081  0.00  0.00    +0.000 A 
ATOM     29  C   UNL     1       1.485   4.550  20.321  0.00  0.00    +0.000 A 
ENDBRANCH  22  23
ENDBRANCH   8  22
TORSDOF 6
ENDMDL
MODEL 9
REMARK VINA RESULT:      -7.4      4.185      8.179
REMARK  Name = 
REMARK  7 active torsions:
REMARK  status: ('A' for Active; 'I' for Inactive)
REMARK    1  A    between atoms: C_1  and  S_2
REMARK    2  A    between atoms: S_2  and  C_3
REMARK    3  A    between atoms: N_6  and  C_7
REMARK    4  A    between atoms: C_7  and  C_8
REMARK    5  A    between atoms: C_8  and  C_9
REMARK    6  A    between atoms: N_18  and  C_19
REMARK    7  A    between atoms: C_19  and  C_20
REMARK                            x       y       z     vdW  Elec       q    Type
REMARK                         _______ _______ _______ _____ _____    ______ ____
ROOT
ATOM      1  C   UNL     1       0.589   9.235  21.400  0.00  0.00    +0.000 A 
ATOM      2  N   UNL     1       0.158  10.228  20.596  0.00  0.00    +0.000 NA
ATOM      3  C   UNL     1       0.538  10.249  19.301  0.00  0.00    +0.000 A 
ATOM      4  N   UNL     1       0.191  11.314  18.457  0.00  0.00    +0.000 N 
ATOM      5  C   UNL     1       1.359   9.215  18.840  0.00  0.00    +0.000 A 
ATOM      6  C   UNL     1       1.969   8.888  17.598  0.00  0.00    +0.000 A 
ATOM      7  C   UNL     1       2.735   7.761  17.798  0.00  0.00    +0.000 A 
ATOM      8  N   UNL     1       2.618   7.398  19.120  0.00  0.00    +0.000 N 
ATOM      9  C   UNL     1       1.759   8.261  19.764  0.00  0.00    +0.000 A 
ATOM     10  N   UNL     1       1.399   8.213  21.060  0.00  0.00    +0.000 NA
ATOM     11  H   UNL     1      -0.598  11.018  17.888  0.00  0.00    +0.000 HD
ENDROOT
BRANCH   1  13
ATOM     12  C   UNL     1      -1.020  10.838  22.990  0.00  0.00    +0.000 C 
ATOM     13  S   UNL     1       0.032   9.374  23.091  0.00  0.00    +0.000 S 
ENDBRANCH   1  13
BRANCH   4  14
ATOM     14  C   UNL     1      -0.083  12.578  19.152  0.00  0.00    +0.000 C 
BRANCH  14  15
ATOM     15  C   UNL     1      -1.583  12.909  19.095  0.00  0.00    +0.000 C 
BRANCH  15  16
ATOM     16  C   UNL     1      -2.164  13.287  20.431  0.00  0.00    +0.000 A 
ATOM     17  C   UNL     1      -3.410  12.782  20.824  0.00  0.00    +0.000 A 
ATOM     18  C   UNL     1      -3.931  13.091  22.080  0.00  0.00    +0.000 A 
ATOM     19  C   UNL     1      -3.214  13.913  22.948  0.00  0.00    +0.000 A 
ATOM     20  C   UNL     1      -1.980  14.432  22.558  0.00  0.00    +0.000 A 
ATOM     21  C   UNL     1      -1.457  14.123  21.302  0.00  0.00    +0.000 A 
ENDBRANCH  15  16
ENDBRANCH  14  15
ENDBRANCH   4  14
BRANCH   8  22
ATOM     22  C   UNL     1       3.246   6.224  19.708  0.00  0.00    +0.000 C 
BRANCH  22  23
ATOM     23  C   UNL     1       2.489   4.944  19.433  0.00  0.00    +0.000 A 
ATOM     24  C   UNL     1       1.518   4.474  20.337  0.00  0.00    +0.000 A 
ATOM     25  C   UNL     1       0.766   3.335  20.045  0.00  0.00    +0.000 A 
ATOM     26  C   UNL     1       0.980   2.658  18.852  0.00  0.00    +0.000 A 
ATOM     27  F   UNL     1       0.242   1.579  18.562  0.00  0.00    +0.000 F 
ATOM     28  C   UNL     1       1.940   3.091  17.948  0.00  0.00    +0.000 A 
ATOM     29  C   UNL     1       2.699   4.230  18.238  0.00  0.00    +0.000 A 
ENDBRANCH  22  23
ENDBRANCH   8  22
TORSDOF 6
ENDMDL
