MODEL 1
REMARK VINA RESULT:      -9.0      0.000      0.000
REMARK  Name = 
REMARK  7 active torsions:
REMARK  status: ('A' for Active; 'I' for Inactive)
REMARK    1  A    between atoms: C_1  and  C_2
REMARK    2  A    between atoms: C_2  and  N_3
REMARK    3  A    between atoms: C_2  and  C_15
REMARK    4  A    between atoms: C_4  and  C_6
REMARK    5  A    between atoms: C_16  and  C_17
REMARK    6  A    between atoms: C_26  and  C_27
REMARK    7  A    between atoms: C_27  and  O_29
REMARK                            x       y       z     vdW  Elec       q    Type
REMARK                         _______ _______ _______ _____ _____    ______ ____
ROOT
ATOM      1  C   UNL     1       3.395   4.209  18.975  0.00  0.00    +0.000 A 
ATOM      2  C   UNL     1       4.833   4.266  19.103  0.00  0.00    +0.000 A 
ATOM      3  N   UNL     1       5.285   3.192  19.776  0.00  0.00    +0.000 NA
ATOM      4  O   UNL     1       4.186   2.467  20.141  0.00  0.00    +0.000 OA
ATOM      5  C   UNL     1       3.050   3.078  19.707  0.00  0.00    +0.000 A 
ENDROOT
BRANCH   2   6
ATOM      6  C   UNL     1       5.774   5.267  18.591  0.00  0.00    +0.000 A 
ATOM      7  C   UNL     1       7.011   5.490  19.219  0.00  0.00    +0.000 A 
ATOM      8  C   UNL     1       7.874   6.498  18.794  0.00  0.00    +0.000 A 
ATOM      9  C   UNL     1       7.526   7.266  17.697  0.00  0.00    +0.000 A 
ATOM     10  F   UNL     1       8.352   8.237  17.288  0.00  0.00    +0.000 F 
ATOM     11  C   UNL     1       6.339   7.033  17.012  0.00  0.00    +0.000 A 
ATOM     12  C   UNL     1       5.462   6.037  17.457  0.00  0.00    +0.000 A 
ENDBRANCH   2   6
BRANCH   1  14
ATOM     13  C   UNL     1       1.441   4.406  17.351  0.00  0.00    +0.000 C 
ATOM     14  C   UNL     1       2.517   5.127  18.164  0.00  0.00    +0.000 C 
BRANCH  14  15
ATOM     15  N   UNL     1       1.950   6.132  19.048  0.00  0.00    +0.000 N 
ATOM     16  C   UNL     1       2.092   7.481  18.767  0.00  0.00    +0.000 C 
ATOM     17  O   UNL     1       2.652   7.914  17.772  0.00  0.00    +0.000 OA
ATOM     18  H   UNL     1       1.757   5.870  20.007  0.00  0.00    +0.000 HD
BRANCH  16  19
ATOM     19  C   UNL     1       1.586   8.428  19.803  0.00  0.00    +0.000 A 
ATOM     20  C   UNL     1       1.507   8.069  21.167  0.00  0.00    +0.000 A 
ATOM     21  C   UNL     1       1.006   8.972  22.113  0.00  0.00    +0.000 A 
ATOM     22  C   UNL     1       0.586  10.206  21.664  0.00  0.00    +0.000 A 
ATOM     23  C   UNL     1       0.653  10.556  20.335  0.00  0.00    +0.000 A 
ATOM     24  C   UNL     1       1.144   9.691  19.381  0.00  0.00    +0.000 A 
ATOM     25  O   UNL     1       0.181  11.810  20.105  0.00  0.00    +0.000 OA
ATOM     26  C   UNL     1      -0.225  12.197  21.435  0.00  0.00    +0.000 C 
ATOM     27  O   UNL     1       0.063  11.196  22.435  0.00  0.00    +0.000 OA
ENDBRANCH  16  19
ENDBRANCH  14  15
ENDBRANCH   1  14
BRANCH   5  28
ATOM     28  C   UNL     1       1.806   2.461  20.089  0.00  0.00    +0.000 C 
ATOM     29  O   UNL     1       1.137   2.739  21.074  0.00  0.00    +0.000 OA
BRANCH  28  30
ATOM     30  O   UNL     1       1.424   1.498  19.211  0.00  0.00    +0.000 OA
ATOM     31  H   UNL     1       1.381   1.819  18.289  0.00  0.00    +0.000 HD
ENDBRANCH  28  30
ENDBRANCH   5  28
TORSDOF 6
ENDMDL
MODEL 2
REMARK VINA RESULT:      -8.9      1.539      1.926
REMARK  Name = 
REMARK  7 active torsions:
REMARK  status: ('A' for Active; 'I' for Inactive)
REMARK    1  A    between atoms: C_1  and  C_2
REMARK    2  A    between atoms: C_2  and  N_3
REMARK    3  A    between atoms: C_2  and  C_15
REMARK    4  A    between atoms: C_4  and  C_6
REMARK    5  A    between atoms: C_16  and  C_17
REMARK    6  A    between atoms: C_26  and  C_27
REMARK    7  A    between atoms: C_27  and  O_29
REMARK                            x       y       z     vdW  Elec       q    Type
REMARK                         _______ _______ _______ _____ _____    ______ ____
ROOT
ATOM      1  C   UNL     1       3.378   4.130  18.850  0.00  0.00    +0.000 A 
ATOM      2  C   UNL     1       4.732   3.806  18.464  0.00  0.00    +0.000 A 
ATOM      3  N   UNL     1       5.294   2.989  19.374  0.00  0.00    +0.000 NA
ATOM      4  O   UNL     1       4.373   2.816  20.368  0.00  0.00    +0.000 OA
ATOM      5  C   UNL     1       3.241   3.519  20.093  0.00  0.00    +0.000 A 
ENDROOT
BRANCH   2   6
ATOM      6  C   UNL     1       5.482   4.212  17.271  0.00  0.00    +0.000 A 
ATOM      7  C   UNL     1       4.939   4.053  15.984  0.00  0.00    +0.000 A 
ATOM      8  C   UNL     1       5.676   4.354  14.841  0.00  0.00    +0.000 A 
ATOM      9  C   UNL     1       6.954   4.865  14.976  0.00  0.00    +0.000 A 
ATOM     10  F   UNL     1       7.666   5.152  13.878  0.00  0.00    +0.000 F 
ATOM     11  C   UNL     1       7.500   5.094  16.234  0.00  0.00    +0.000 A 
ATOM     12  C   UNL     1       6.767   4.767  17.381  0.00  0.00    +0.000 A 
ENDBRANCH   2   6
BRANCH   1  14
ATOM     13  C   UNL     1       1.257   4.002  17.443  0.00  0.00    +0.000 C 
ATOM     14  C   UNL     1       2.356   4.883  18.038  0.00  0.00    +0.000 C 
BRANCH  14  15
ATOM     15  N   UNL     1       1.812   5.957  18.852  0.00  0.00    +0.000 N 
ATOM     16  C   UNL     1       2.300   7.249  18.734  0.00  0.00    +0.000 C 
ATOM     17  O   UNL     1       3.168   7.579  17.940  0.00  0.00    +0.000 OA
ATOM     18  H   UNL     1       1.337   5.712  19.711  0.00  0.00    +0.000 HD
BRANCH  16  19
ATOM     19  C   UNL     1       1.766   8.248  19.705  0.00  0.00    +0.000 A 
ATOM     20  C   UNL     1       1.612   7.947  21.077  0.00  0.00    +0.000 A 
ATOM     21  C   UNL     1       1.084   8.898  21.959  0.00  0.00    +0.000 A 
ATOM     22  C   UNL     1       0.715  10.121  21.440  0.00  0.00    +0.000 A 
ATOM     23  C   UNL     1       0.854  10.415  20.103  0.00  0.00    +0.000 A 
ATOM     24  C   UNL     1       1.373   9.501  19.210  0.00  0.00    +0.000 A 
ATOM     25  O   UNL     1       0.422  11.667  19.800  0.00  0.00    +0.000 OA
ATOM     26  C   UNL     1      -0.041  12.116  21.091  0.00  0.00    +0.000 C 
ATOM     27  O   UNL     1       0.176  11.152  22.143  0.00  0.00    +0.000 OA
ENDBRANCH  16  19
ENDBRANCH  14  15
ENDBRANCH   1  14
BRANCH   5  28
ATOM     28  C   UNL     1       2.208   3.490  21.096  0.00  0.00    +0.000 C 
ATOM     29  O   UNL     1       1.138   4.080  21.045  0.00  0.00    +0.000 OA
BRANCH  28  30
ATOM     30  O   UNL     1       2.548   2.710  22.154  0.00  0.00    +0.000 OA
ATOM     31  H   UNL     1       2.639   1.766  21.917  0.00  0.00    +0.000 HD
ENDBRANCH  28  30
ENDBRANCH   5  28
TORSDOF 6
ENDMDL
MODEL 3
REMARK VINA RESULT:      -8.7      2.035      2.884
REMARK  Name = 
REMARK  7 active torsions:
REMARK  status: ('A' for Active; 'I' for Inactive)
REMARK    1  A    between atoms: C_1  and  C_2
REMARK    2  A    between atoms: C_2  and  N_3
REMARK    3  A    between atoms: C_2  and  C_15
REMARK    4  A    between atoms: C_4  and  C_6
REMARK    5  A    between atoms: C_16  and  C_17
REMARK    6  A    between atoms: C_26  and  C_27
REMARK    7  A    between atoms: C_27  and  O_29
REMARK                            x       y       z     vdW  Elec       q    Type
REMARK                         _______ _______ _______ _____ _____    ______ ____
ROOT
ATOM      1  C   UNL     1       3.249   3.969  18.812  0.00  0.00    +0.000 A 
ATOM      2  C   UNL     1       3.478   3.669  17.418  0.00  0.00    +0.000 A 
ATOM      3  N   UNL     1       2.519   2.848  16.953  0.00  0.00    +0.000 NA
ATOM      4  O   UNL     1       1.705   2.557  18.011  0.00  0.00    +0.000 OA
ATOM      5  C   UNL     1       2.147   3.183  19.135  0.00  0.00    +0.000 A 
ENDROOT
BRANCH   2   6
ATOM      6  C   UNL     1       4.536   4.152  16.524  0.00  0.00    +0.000 A 
ATOM      7  C   UNL     1       4.645   5.515  16.197  0.00  0.00    +0.000 A 
ATOM      8  C   UNL     1       5.590   5.971  15.282  0.00  0.00    +0.000 A 
ATOM      9  C   UNL     1       6.475   5.069  14.718  0.00  0.00    +0.000 A 
ATOM     10  F   UNL     1       7.383   5.505  13.836  0.00  0.00    +0.000 F 
ATOM     11  C   UNL     1       6.438   3.723  15.065  0.00  0.00    +0.000 A 
ATOM     12  C   UNL     1       5.470   3.263  15.966  0.00  0.00    +0.000 A 
ENDBRANCH   2   6
BRANCH   1  14
ATOM     13  C   UNL     1       5.515   4.903  19.511  0.00  0.00    +0.000 C 
ATOM     14  C   UNL     1       3.995   4.964  19.664  0.00  0.00    +0.000 C 
BRANCH  14  15
ATOM     15  N   UNL     1       3.473   6.293  19.393  0.00  0.00    +0.000 N 
ATOM     16  C   UNL     1       2.327   6.745  20.027  0.00  0.00    +0.000 C 
ATOM     17  O   UNL     1       1.710   6.098  20.860  0.00  0.00    +0.000 OA
ATOM     18  H   UNL     1       3.736   6.743  18.525  0.00  0.00    +0.000 HD
BRANCH  16  19
ATOM     19  C   UNL     1       1.805   8.070  19.583  0.00  0.00    +0.000 A 
ATOM     20  C   UNL     1       2.067   8.581  18.292  0.00  0.00    +0.000 A 
ATOM     21  C   UNL     1       1.583   9.839  17.913  0.00  0.00    +0.000 A 
ATOM     22  C   UNL     1       0.859  10.556  18.842  0.00  0.00    +0.000 A 
ATOM     23  C   UNL     1       0.609  10.066  20.103  0.00  0.00    +0.000 A 
ATOM     24  C   UNL     1       1.069   8.830  20.505  0.00  0.00    +0.000 A 
ATOM     25  O   UNL     1      -0.112  10.933  20.862  0.00  0.00    +0.000 OA
ATOM     26  C   UNL     1      -0.257  12.041  19.948  0.00  0.00    +0.000 C 
ATOM     27  O   UNL     1       0.327  11.792  18.651  0.00  0.00    +0.000 OA
ENDBRANCH  16  19
ENDBRANCH  14  15
ENDBRANCH   1  14
BRANCH   5  28
ATOM     28  C   UNL     1       1.426   2.904  20.350  0.00  0.00    +0.000 C 
ATOM     29  O   UNL     1       1.827   2.225  21.284  0.00  0.00    +0.000 OA
BRANCH  28  30
ATOM     30  O   UNL     1       0.203   3.493  20.363  0.00  0.00    +0.000 OA
ATOM     31  H   UNL     1       0.193   4.339  20.852  0.00  0.00    +0.000 HD
ENDBRANCH  28  30
ENDBRANCH   5  28
TORSDOF 6
ENDMDL
MODEL 4
REMARK VINA RESULT:      -8.6      1.714      2.232
REMARK  Name = 
REMARK  7 active torsions:
REMARK  status: ('A' for Active; 'I' for Inactive)
REMARK    1  A    between atoms: C_1  and  C_2
REMARK    2  A    between atoms: C_2  and  N_3
REMARK    3  A    between atoms: C_2  and  C_15
REMARK    4  A    between atoms: C_4  and  C_6
REMARK    5  A    between atoms: C_16  and  C_17
REMARK    6  A    between atoms: C_26  and  C_27
REMARK    7  A    between atoms: C_27  and  O_29
REMARK                            x       y       z     vdW  Elec       q    Type
REMARK                         _______ _______ _______ _____ _____    ______ ____
ROOT
ATOM      1  C   UNL     1       3.404   4.186  18.699  0.00  0.00    +0.000 A 
ATOM      2  C   UNL     1       4.807   3.957  18.444  0.00  0.00    +0.000 A 
ATOM      3  N   UNL     1       5.384   3.366  19.506  0.00  0.00    +0.000 NA
ATOM      4  O   UNL     1       4.418   3.253  20.466  0.00  0.00    +0.000 OA
ATOM      5  C   UNL     1       3.243   3.773  20.018  0.00  0.00    +0.000 A 
ENDROOT
BRANCH   2   6
ATOM      6  C   UNL     1       5.593   4.245  17.241  0.00  0.00    +0.000 A 
ATOM      7  C   UNL     1       6.712   5.095  17.290  0.00  0.00    +0.000 A 
ATOM      8  C   UNL     1       7.413   5.445  16.139  0.00  0.00    +0.000 A 
ATOM      9  C   UNL     1       7.029   4.906  14.924  0.00  0.00    +0.000 A 
ATOM     10  F   UNL     1       7.700   5.243  13.815  0.00  0.00    +0.000 F 
ATOM     11  C   UNL     1       5.966   4.013  14.846  0.00  0.00    +0.000 A 
ATOM     12  C   UNL     1       5.248   3.683  16.001  0.00  0.00    +0.000 A 
ENDBRANCH   2   6
BRANCH   1  14
ATOM     13  C   UNL     1       1.282   3.658  17.391  0.00  0.00    +0.000 C 
ATOM     14  C   UNL     1       2.370   4.680  17.719  0.00  0.00    +0.000 C 
BRANCH  14  15
ATOM     15  N   UNL     1       1.814   5.927  18.217  0.00  0.00    +0.000 N 
ATOM     16  C   UNL     1       2.524   7.111  18.102  0.00  0.00    +0.000 C 
ATOM     17  O   UNL     1       3.615   7.202  17.561  0.00  0.00    +0.000 OA
ATOM     18  H   UNL     1       1.091   5.880  18.924  0.00  0.00    +0.000 HD
BRANCH  16  19
ATOM     19  C   UNL     1       1.922   8.308  18.759  0.00  0.00    +0.000 A 
ATOM     20  C   UNL     1       1.827   9.554  18.098  0.00  0.00    +0.000 A 
ATOM     21  C   UNL     1       1.279  10.666  18.749  0.00  0.00    +0.000 A 
ATOM     22  C   UNL     1       0.850  10.502  20.049  0.00  0.00    +0.000 A 
ATOM     23  C   UNL     1       0.948   9.293  20.699  0.00  0.00    +0.000 A 
ATOM     24  C   UNL     1       1.480   8.180  20.084  0.00  0.00    +0.000 A 
ATOM     25  O   UNL     1       0.478   9.350  21.974  0.00  0.00    +0.000 OA
ATOM     26  C   UNL     1       0.107  10.742  22.065  0.00  0.00    +0.000 C 
ATOM     27  O   UNL     1       0.307  11.470  20.834  0.00  0.00    +0.000 OA
ENDBRANCH  16  19
ENDBRANCH  14  15
ENDBRANCH   1  14
BRANCH   5  28
ATOM     28  C   UNL     1       2.151   3.792  20.957  0.00  0.00    +0.000 C 
ATOM     29  O   UNL     1       1.097   4.396  20.823  0.00  0.00    +0.000 OA
BRANCH  28  30
ATOM     30  O   UNL     1       2.412   3.039  22.056  0.00  0.00    +0.000 OA
ATOM     31  H   UNL     1       2.332   2.080  21.889  0.00  0.00    +0.000 HD
ENDBRANCH  28  30
ENDBRANCH   5  28
TORSDOF 6
ENDMDL
MODEL 5
REMARK VINA RESULT:      -8.5      3.068      4.732
REMARK  Name = 
REMARK  7 active torsions:
REMARK  status: ('A' for Active; 'I' for Inactive)
REMARK    1  A    between atoms: C_1  and  C_2
REMARK    2  A    between atoms: C_2  and  N_3
REMARK    3  A    between atoms: C_2  and  C_15
REMARK    4  A    between atoms: C_4  and  C_6
REMARK    5  A    between atoms: C_16  and  C_17
REMARK    6  A    between atoms: C_26  and  C_27
REMARK    7  A    between atoms: C_27  and  O_29
REMARK                            x       y       z     vdW  Elec       q    Type
REMARK                         _______ _______ _______ _____ _____    ______ ____
ROOT
ATOM      1  C   UNL     1       5.079   4.767  17.916  0.00  0.00    +0.000 A 
ATOM      2  C   UNL     1       5.090   4.360  19.302  0.00  0.00    +0.000 A 
ATOM      3  N   UNL     1       6.321   4.519  19.824  0.00  0.00    +0.000 NA
ATOM      4  O   UNL     1       7.123   4.960  18.810  0.00  0.00    +0.000 OA
ATOM      5  C   UNL     1       6.410   5.076  17.657  0.00  0.00    +0.000 A 
ENDROOT
BRANCH   2   6
ATOM      6  C   UNL     1       3.990   3.868  20.136  0.00  0.00    +0.000 A 
ATOM      7  C   UNL     1       3.958   2.536  20.584  0.00  0.00    +0.000 A 
ATOM      8  C   UNL     1       2.875   2.035  21.303  0.00  0.00    +0.000 A 
ATOM      9  C   UNL     1       1.830   2.881  21.626  0.00  0.00    +0.000 A 
ATOM     10  F   UNL     1       0.787   2.401  22.315  0.00  0.00    +0.000 F 
ATOM     11  C   UNL     1       1.856   4.220  21.255  0.00  0.00    +0.000 A 
ATOM     12  C   UNL     1       2.933   4.715  20.510  0.00  0.00    +0.000 A 
ENDBRANCH   2   6
BRANCH   1  14
ATOM     13  C   UNL     1       3.195   3.565  16.689  0.00  0.00    +0.000 C 
ATOM     14  C   UNL     1       3.876   4.895  17.015  0.00  0.00    +0.000 C 
BRANCH  14  15
ATOM     15  N   UNL     1       2.953   5.851  17.602  0.00  0.00    +0.000 N 
ATOM     16  C   UNL     1       3.257   7.203  17.625  0.00  0.00    +0.000 C 
ATOM     17  O   UNL     1       4.270   7.681  17.140  0.00  0.00    +0.000 OA
ATOM     18  H   UNL     1       2.275   5.511  18.272  0.00  0.00    +0.000 HD
BRANCH  16  19
ATOM     19  C   UNL     1       2.304   8.081  18.364  0.00  0.00    +0.000 A 
ATOM     20  C   UNL     1       1.670   9.182  17.745  0.00  0.00    +0.000 A 
ATOM     21  C   UNL     1       0.799  10.003  18.472  0.00  0.00    +0.000 A 
ATOM     22  C   UNL     1       0.594   9.704  19.802  0.00  0.00    +0.000 A 
ATOM     23  C   UNL     1       1.215   8.638  20.411  0.00  0.00    +0.000 A 
ATOM     24  C   UNL     1       2.076   7.811  19.722  0.00  0.00    +0.000 A 
ATOM     25  O   UNL     1       0.885   8.527  21.725  0.00  0.00    +0.000 OA
ATOM     26  C   UNL     1       0.013   9.667  21.884  0.00  0.00    +0.000 C 
ATOM     27  O   UNL     1      -0.204  10.396  20.657  0.00  0.00    +0.000 OA
ENDBRANCH  16  19
ENDBRANCH  14  15
ENDBRANCH   1  14
BRANCH   5  28
ATOM     28  C   UNL     1       7.150   5.460  16.482  0.00  0.00    +0.000 C 
ATOM     29  O   UNL     1       7.420   4.737  15.534  0.00  0.00    +0.000 OA
BRANCH  28  30
ATOM     30  O   UNL     1       7.535   6.761  16.526  0.00  0.00    +0.000 OA
ATOM     31  H   UNL     1       7.205   7.230  17.317  0.00  0.00    +0.000 HD
ENDBRANCH  28  30
ENDBRANCH   5  28
TORSDOF 6
ENDMDL
MODEL 6
REMARK VINA RESULT:      -8.3      0.644      1.320
REMARK  Name = 
REMARK  7 active torsions:
REMARK  status: ('A' for Active; 'I' for Inactive)
REMARK    1  A    between atoms: C_1  and  C_2
REMARK    2  A    between atoms: C_2  and  N_3
REMARK    3  A    between atoms: C_2  and  C_15
REMARK    4  A    between atoms: C_4  and  C_6
REMARK    5  A    between atoms: C_16  and  C_17
REMARK    6  A    between atoms: C_26  and  C_27
REMARK    7  A    between atoms: C_27  and  O_29
REMARK                            x       y       z     vdW  Elec       q    Type
REMARK                         _______ _______ _______ _____ _____    ______ ____
ROOT
ATOM      1  C   UNL     1       3.426   4.186  18.883  0.00  0.00    +0.000 A 
ATOM      2  C   UNL     1       4.851   4.286  19.102  0.00  0.00    +0.000 A 
ATOM      3  N   UNL     1       5.273   3.276  19.885  0.00  0.00    +0.000 NA
ATOM      4  O   UNL     1       4.165   2.556  20.230  0.00  0.00    +0.000 OA
ATOM      5  C   UNL     1       3.051   3.106  19.675  0.00  0.00    +0.000 A 
ENDROOT
BRANCH   2   6
ATOM      6  C   UNL     1       5.806   5.267  18.580  0.00  0.00    +0.000 A 
ATOM      7  C   UNL     1       7.014   5.532  19.248  0.00  0.00    +0.000 A 
ATOM      8  C   UNL     1       7.888   6.523  18.808  0.00  0.00    +0.000 A 
ATOM      9  C   UNL     1       7.584   7.231  17.659  0.00  0.00    +0.000 A 
ATOM     10  F   UNL     1       8.421   8.187  17.236  0.00  0.00    +0.000 F 
ATOM     11  C   UNL     1       6.429   6.953  16.937  0.00  0.00    +0.000 A 
ATOM     12  C   UNL     1       5.540   5.974  17.396  0.00  0.00    +0.000 A 
ENDBRANCH   2   6
BRANCH   1  14
ATOM     13  C   UNL     1       1.583   4.217  17.123  0.00  0.00    +0.000 C 
ATOM     14  C   UNL     1       2.589   5.020  17.946  0.00  0.00    +0.000 C 
BRANCH  14  15
ATOM     15  N   UNL     1       1.949   6.078  18.710  0.00  0.00    +0.000 N 
ATOM     16  C   UNL     1       2.241   7.408  18.455  0.00  0.00    +0.000 C 
ATOM     17  O   UNL     1       3.003   7.783  17.577  0.00  0.00    +0.000 OA
ATOM     18  H   UNL     1       1.566   5.847  19.618  0.00  0.00    +0.000 HD
BRANCH  16  19
ATOM     19  C   UNL     1       1.628   8.407  19.379  0.00  0.00    +0.000 A 
ATOM     20  C   UNL     1       1.448   9.758  19.004  0.00  0.00    +0.000 A 
ATOM     21  C   UNL     1       0.893  10.678  19.903  0.00  0.00    +0.000 A 
ATOM     22  C   UNL     1       0.543  10.221  21.156  0.00  0.00    +0.000 A 
ATOM     23  C   UNL     1       0.725   8.909  21.527  0.00  0.00    +0.000 A 
ATOM     24  C   UNL     1       1.267   7.979  20.665  0.00  0.00    +0.000 A 
ATOM     25  O   UNL     1       0.324   8.671  22.805  0.00  0.00    +0.000 OA
ATOM     26  C   UNL     1      -0.097   9.992  23.208  0.00  0.00    +0.000 C 
ATOM     27  O   UNL     1       0.006  10.972  22.153  0.00  0.00    +0.000 OA
ENDBRANCH  16  19
ENDBRANCH  14  15
ENDBRANCH   1  14
BRANCH   5  28
ATOM     28  C   UNL     1       1.795   2.492  20.017  0.00  0.00    +0.000 C 
ATOM     29  O   UNL     1       1.076   2.799  20.958  0.00  0.00    +0.000 OA
BRANCH  28  30
ATOM     30  O   UNL     1       1.464   1.494  19.158  0.00  0.00    +0.000 OA
ATOM     31  H   UNL     1       1.053   0.728  19.604  0.00  0.00    +0.000 HD
ENDBRANCH  28  30
ENDBRANCH   5  28
TORSDOF 6
ENDMDL
MODEL 7
REMARK VINA RESULT:      -8.3      3.133      4.584
REMARK  Name = 
REMARK  7 active torsions:
REMARK  status: ('A' for Active; 'I' for Inactive)
REMARK    1  A    between atoms: C_1  and  C_2
REMARK    2  A    between atoms: C_2  and  N_3
REMARK    3  A    between atoms: C_2  and  C_15
REMARK    4  A    between atoms: C_4  and  C_6
REMARK    5  A    between atoms: C_16  and  C_17
REMARK    6  A    between atoms: C_26  and  C_27
REMARK    7  A    between atoms: C_27  and  O_29
REMARK                            x       y       z     vdW  Elec       q    Type
REMARK                         _______ _______ _______ _____ _____    ______ ____
ROOT
ATOM      1  C   UNL     1       5.049   4.798  17.910  0.00  0.00    +0.000 A 
ATOM      2  C   UNL     1       5.078   4.344  19.282  0.00  0.00    +0.000 A 
ATOM      3  N   UNL     1       6.322   4.454  19.783  0.00  0.00    +0.000 NA
ATOM      4  O   UNL     1       7.115   4.910  18.768  0.00  0.00    +0.000 OA
ATOM      5  C   UNL     1       6.382   5.083  17.635  0.00  0.00    +0.000 A 
ENDROOT
BRANCH   2   6
ATOM      6  C   UNL     1       3.982   3.851  20.122  0.00  0.00    +0.000 A 
ATOM      7  C   UNL     1       3.955   2.519  20.572  0.00  0.00    +0.000 A 
ATOM      8  C   UNL     1       2.877   2.017  21.297  0.00  0.00    +0.000 A 
ATOM      9  C   UNL     1       1.831   2.861  21.623  0.00  0.00    +0.000 A 
ATOM     10  F   UNL     1       0.792   2.380  22.318  0.00  0.00    +0.000 F 
ATOM     11  C   UNL     1       1.852   4.200  21.249  0.00  0.00    +0.000 A 
ATOM     12  C   UNL     1       2.925   4.695  20.498  0.00  0.00    +0.000 A 
ENDBRANCH   2   6
BRANCH   1  14
ATOM     13  C   UNL     1       3.149   3.681  16.630  0.00  0.00    +0.000 C 
ATOM     14  C   UNL     1       3.832   4.985  17.040  0.00  0.00    +0.000 C 
BRANCH  14  15
ATOM     15  N   UNL     1       2.915   5.894  17.708  0.00  0.00    +0.000 N 
ATOM     16  C   UNL     1       3.183   7.252  17.763  0.00  0.00    +0.000 C 
ATOM     17  O   UNL     1       4.155   7.777  17.242  0.00  0.00    +0.000 OA
ATOM     18  H   UNL     1       2.284   5.512  18.400  0.00  0.00    +0.000 HD
BRANCH  16  19
ATOM     19  C   UNL     1       2.247   8.077  18.582  0.00  0.00    +0.000 A 
ATOM     20  C   UNL     1       2.014   7.805  19.949  0.00  0.00    +0.000 A 
ATOM     21  C   UNL     1       1.111   8.583  20.685  0.00  0.00    +0.000 A 
ATOM     22  C   UNL     1       0.458   9.604  20.028  0.00  0.00    +0.000 A 
ATOM     23  C   UNL     1       0.675   9.866  18.695  0.00  0.00    +0.000 A 
ATOM     24  C   UNL     1       1.559   9.121  17.944  0.00  0.00    +0.000 A 
ATOM     25  O   UNL     1      -0.075  10.905  18.242  0.00  0.00    +0.000 OA
ATOM     26  C   UNL     1      -0.817  11.245  19.433  0.00  0.00    +0.000 C 
ATOM     27  O   UNL     1      -0.456  10.445  20.579  0.00  0.00    +0.000 OA
ENDBRANCH  16  19
ENDBRANCH  14  15
ENDBRANCH   1  14
BRANCH   5  28
ATOM     28  C   UNL     1       7.107   5.488  16.458  0.00  0.00    +0.000 C 
ATOM     29  O   UNL     1       7.362   4.784  15.492  0.00  0.00    +0.000 OA
BRANCH  28  30
ATOM     30  O   UNL     1       7.499   6.786  16.524  0.00  0.00    +0.000 OA
ATOM     31  H   UNL     1       8.429   6.917  16.257  0.00  0.00    +0.000 HD
ENDBRANCH  28  30
ENDBRANCH   5  28
TORSDOF 6
ENDMDL
MODEL 8
REMARK VINA RESULT:      -8.2      3.118      4.616
REMARK  Name = 
REMARK  7 active torsions:
REMARK  status: ('A' for Active; 'I' for Inactive)
REMARK    1  A    between atoms: C_1  and  C_2
REMARK    2  A    between atoms: C_2  and  N_3
REMARK    3  A    between atoms: C_2  and  C_15
REMARK    4  A    between atoms: C_4  and  C_6
REMARK    5  A    between atoms: C_16  and  C_17
REMARK    6  A    between atoms: C_26  and  C_27
REMARK    7  A    between atoms: C_27  and  O_29
REMARK                            x       y       z     vdW  Elec       q    Type
REMARK                         _______ _______ _______ _____ _____    ______ ____
ROOT
ATOM      1  C   UNL     1       5.060   5.091  18.053  0.00  0.00    +0.000 A 
ATOM      2  C   UNL     1       5.041   4.542  19.390  0.00  0.00    +0.000 A 
ATOM      3  N   UNL     1       6.250   4.680  19.966  0.00  0.00    +0.000 NA
ATOM      4  O   UNL     1       7.069   5.247  19.032  0.00  0.00    +0.000 OA
ATOM      5  C   UNL     1       6.388   5.462  17.873  0.00  0.00    +0.000 A 
ENDROOT
BRANCH   2   6
ATOM      6  C   UNL     1       3.932   3.935  20.131  0.00  0.00    +0.000 A 
ATOM      7  C   UNL     1       2.815   4.696  20.519  0.00  0.00    +0.000 A 
ATOM      8  C   UNL     1       1.798   4.151  21.298  0.00  0.00    +0.000 A 
ATOM      9  C   UNL     1       1.864   2.817  21.659  0.00  0.00    +0.000 A 
ATOM     10  F   UNL     1       0.888   2.291  22.411  0.00  0.00    +0.000 F 
ATOM     11  C   UNL     1       2.922   2.018  21.241  0.00  0.00    +0.000 A 
ATOM     12  C   UNL     1       3.956   2.575  20.480  0.00  0.00    +0.000 A 
ENDBRANCH   2   6
BRANCH   1  14
ATOM     13  C   UNL     1       3.252   3.971  16.649  0.00  0.00    +0.000 C 
ATOM     14  C   UNL     1       3.882   5.278  17.130  0.00  0.00    +0.000 C 
BRANCH  14  15
ATOM     15  N   UNL     1       2.912   6.143  17.781  0.00  0.00    +0.000 N 
ATOM     16  C   UNL     1       3.103   7.515  17.817  0.00  0.00    +0.000 C 
ATOM     17  O   UNL     1       4.048   8.085  17.294  0.00  0.00    +0.000 OA
ATOM     18  H   UNL     1       2.298   5.736  18.475  0.00  0.00    +0.000 HD
BRANCH  16  19
ATOM     19  C   UNL     1       2.118   8.298  18.619  0.00  0.00    +0.000 A 
ATOM     20  C   UNL     1       1.885   8.026  19.986  0.00  0.00    +0.000 A 
ATOM     21  C   UNL     1       0.936   8.762  20.706  0.00  0.00    +0.000 A 
ATOM     22  C   UNL     1       0.238   9.744  20.034  0.00  0.00    +0.000 A 
ATOM     23  C   UNL     1       0.456  10.005  18.701  0.00  0.00    +0.000 A 
ATOM     24  C   UNL     1       1.385   9.300  17.966  0.00  0.00    +0.000 A 
ATOM     25  O   UNL     1      -0.340  11.002  18.231  0.00  0.00    +0.000 OA
ATOM     26  C   UNL     1      -1.112  11.313  19.411  0.00  0.00    +0.000 C 
ATOM     27  O   UNL     1      -0.723  10.542  20.568  0.00  0.00    +0.000 OA
ENDBRANCH  16  19
ENDBRANCH  14  15
ENDBRANCH   1  14
BRANCH   5  28
ATOM     28  C   UNL     1       7.150   5.988  16.770  0.00  0.00    +0.000 C 
ATOM     29  O   UNL     1       7.504   7.149  16.629  0.00  0.00    +0.000 OA
BRANCH  28  30
ATOM     30  O   UNL     1       7.455   5.029  15.859  0.00  0.00    +0.000 OA
ATOM     31  H   UNL     1       7.083   5.211  14.975  0.00  0.00    +0.000 HD
ENDBRANCH  28  30
ENDBRANCH   5  28
TORSDOF 6
ENDMDL
MODEL 9
REMARK VINA RESULT:      -8.1      2.991      4.983
REMARK  Name = 
REMARK  7 active torsions:
REMARK  status: ('A' for Active; 'I' for Inactive)
REMARK    1  A    between atoms: C_1  and  C_2
REMARK    2  A    between atoms: C_2  and  N_3
REMARK    3  A    between atoms: C_2  and  C_15
REMARK    4  A    between atoms: C_4  and  C_6
REMARK    5  A    between atoms: C_16  and  C_17
REMARK    6  A    between atoms: C_26  and  C_27
REMARK    7  A    between atoms: C_27  and  O_29
REMARK                            x       y       z     vdW  Elec       q    Type
REMARK                         _______ _______ _______ _____ _____    ______ ____
ROOT
ATOM      1  C   UNL     1       5.047   4.455  17.776  0.00  0.00    +0.000 A 
ATOM      2  C   UNL     1       4.087   3.391  17.962  0.00  0.00    +0.000 A 
ATOM      3  N   UNL     1       4.100   2.562  16.902  0.00  0.00    +0.000 NA
ATOM      4  O   UNL     1       4.993   3.081  16.008  0.00  0.00    +0.000 OA
ATOM      5  C   UNL     1       5.537   4.230  16.494  0.00  0.00    +0.000 A 
ENDROOT
BRANCH   2   6
ATOM      6  C   UNL     1       3.203   3.124  19.100  0.00  0.00    +0.000 A 
ATOM      7  C   UNL     1       1.827   3.405  19.032  0.00  0.00    +0.000 A 
ATOM      8  C   UNL     1       0.994   3.237  20.135  0.00  0.00    +0.000 A 
ATOM      9  C   UNL     1       1.523   2.736  21.311  0.00  0.00    +0.000 A 
ATOM     10  F   UNL     1       0.724   2.577  22.375  0.00  0.00    +0.000 F 
ATOM     11  C   UNL     1       2.866   2.388  21.397  0.00  0.00    +0.000 A 
ATOM     12  C   UNL     1       3.707   2.583  20.294  0.00  0.00    +0.000 A 
ENDBRANCH   2   6
BRANCH   1  14
ATOM     13  C   UNL     1       6.640   6.360  18.349  0.00  0.00    +0.000 C 
ATOM     14  C   UNL     1       5.456   5.498  18.786  0.00  0.00    +0.000 C 
BRANCH  14  15
ATOM     15  N   UNL     1       4.293   6.300  19.125  0.00  0.00    +0.000 N 
ATOM     16  C   UNL     1       3.633   7.033  18.152  0.00  0.00    +0.000 C 
ATOM     17  O   UNL     1       3.944   7.034  16.971  0.00  0.00    +0.000 OA
ATOM     18  H   UNL     1       4.173   6.585  20.089  0.00  0.00    +0.000 HD
BRANCH  16  19
ATOM     19  C   UNL     1       2.532   7.922  18.628  0.00  0.00    +0.000 A 
ATOM     20  C   UNL     1       1.960   8.911  17.797  0.00  0.00    +0.000 A 
ATOM     21  C   UNL     1       0.945   9.746  18.279  0.00  0.00    +0.000 A 
ATOM     22  C   UNL     1       0.538   9.574  19.586  0.00  0.00    +0.000 A 
ATOM     23  C   UNL     1       1.099   8.618  20.401  0.00  0.00    +0.000 A 
ATOM     24  C   UNL     1       2.098   7.779  19.954  0.00  0.00    +0.000 A 
ATOM     25  O   UNL     1       0.562   8.622  21.650  0.00  0.00    +0.000 OA
ATOM     26  C   UNL     1      -0.375   9.715  21.540  0.00  0.00    +0.000 C 
ATOM     27  O   UNL     1      -0.420  10.300  20.221  0.00  0.00    +0.000 OA
ENDBRANCH  16  19
ENDBRANCH  14  15
ENDBRANCH   1  14
BRANCH   5  28
ATOM     28  C   UNL     1       6.442   4.930  15.620  0.00  0.00    +0.000 C 
ATOM     29  O   UNL     1       7.633   4.690  15.476  0.00  0.00    +0.000 OA
BRANCH  28  30
ATOM     30  O   UNL     1       5.823   5.927  14.937  0.00  0.00    +0.000 OA
ATOM     31  H   UNL     1       5.645   6.713  15.489  0.00  0.00    +0.000 HD
ENDBRANCH  28  30
ENDBRANCH   5  28
TORSDOF 6
ENDMDL
