MODEL 1
REMARK VINA RESULT:      -5.8      0.000      0.000
REMARK  Name = 
REMARK  14 active torsions:
REMARK  status: ('A' for Active; 'I' for Inactive)
REMARK    1  A    between atoms: C_1  and  C_2
REMARK    2  A    between atoms: C_2  and  C_3
REMARK    3  A    between atoms: C_3  and  S_4
REMARK    4  A    between atoms: S_4  and  C_5
REMARK    5  A    between atoms: C_5  and  C_6
REMARK    6  A    between atoms: C_6  and  C_7
REMARK    7  A    between atoms: C_7  and  N_8
REMARK    8  A    between atoms: N_8  and  C_9
REMARK    9  A    between atoms: C_9  and  N_11
REMARK   10  A    between atoms: N_11  and  C_12
REMARK   11  A    between atoms: C_14  and  O_15
REMARK   12  A    between atoms: O_15  and  C_16
REMARK   13  A    between atoms: C_20  and  O_21
REMARK   14  A    between atoms: O_21  and  C_22
REMARK                            x       y       z     vdW  Elec       q    Type
REMARK                         _______ _______ _______ _____ _____    ______ ____
ROOT
ATOM      1  N   UNL     1       2.263   5.760  18.624  0.00  0.00    +0.000 N 
ATOM      2  H   UNL     1       1.535   6.355  18.249  0.00  0.00    +0.000 HD
ENDROOT
BRANCH   1   3
ATOM      3  C   UNL     1       3.346   5.497  17.756  0.00  0.00    +0.000 A 
ATOM      4  C   UNL     1       4.319   6.487  17.569  0.00  0.00    +0.000 A 
ATOM      5  C   UNL     1       5.483   6.275  16.810  0.00  0.00    +0.000 A 
ATOM      6  C   UNL     1       5.651   5.030  16.202  0.00  0.00    +0.000 A 
ATOM      7 CL   UNL     1       6.984   4.584  15.199  0.00  0.00    +0.000 Cl
ATOM      8  C   UNL     1       4.694   4.017  16.410  0.00  0.00    +0.000 A 
ATOM      9  C   UNL     1       3.556   4.235  17.195  0.00  0.00    +0.000 A 
BRANCH   5  10
ATOM     10  O   UNL     1       6.281   7.382  16.837  0.00  0.00    +0.000 OA
ATOM     11  C   UNL     1       7.481   7.406  17.585  0.00  0.00    +0.000 C 
ENDBRANCH   5  10
BRANCH   9  12
ATOM     12  O   UNL     1       2.789   3.119  17.411  0.00  0.00    +0.000 OA
ATOM     13  C   UNL     1       3.468   1.962  17.893  0.00  0.00    +0.000 C 
ENDBRANCH   9  12
ENDBRANCH   1   3
BRANCH   1  14
ATOM     14  C   UNL     1       2.235   5.627  20.007  0.00  0.00    +0.000 C 
ATOM     15  S   UNL     1       2.191   4.184  20.862  0.00  0.00    +0.000 S 
BRANCH  14  16
ATOM     16  N   UNL     1       2.337   6.876  20.596  0.00  0.00    +0.000 N 
ATOM     17  H   UNL     1       3.010   6.958  21.346  0.00  0.00    +0.000 HD
BRANCH  16  18
ATOM     18  C   UNL     1       1.619   8.093  20.224  0.00  0.00    +0.000 C 
BRANCH  18  19
ATOM     19  C   UNL     1       0.981   8.710  21.464  0.00  0.00    +0.000 C 
BRANCH  19  20
ATOM     20  C   UNL     1      -0.116   9.703  21.103  0.00  0.00    +0.000 C 
BRANCH  20  21
ATOM     21  S   UNL     1       0.661  11.280  20.624  0.00  0.00    +0.000 S 
BRANCH  21  22
ATOM     22  C   UNL     1       0.292  11.259  18.844  0.00  0.00    +0.000 C 
BRANCH  22  24
ATOM     23  C   UNL     1      -1.937  10.876  17.732  0.00  0.00    +0.000 C 
ATOM     24  C   UNL     1      -0.830  10.258  18.574  0.00  0.00    +0.000 C 
ENDBRANCH  22  24
ENDBRANCH  21  22
ENDBRANCH  20  21
ENDBRANCH  19  20
ENDBRANCH  18  19
ENDBRANCH  16  18
ENDBRANCH  14  16
ENDBRANCH   1  14
TORSDOF 11
ENDMDL
MODEL 2
REMARK VINA RESULT:      -5.7      1.644      2.144
REMARK  Name = 
REMARK  14 active torsions:
REMARK  status: ('A' for Active; 'I' for Inactive)
REMARK    1  A    between atoms: C_1  and  C_2
REMARK    2  A    between atoms: C_2  and  C_3
REMARK    3  A    between atoms: C_3  and  S_4
REMARK    4  A    between atoms: S_4  and  C_5
REMARK    5  A    between atoms: C_5  and  C_6
REMARK    6  A    between atoms: C_6  and  C_7
REMARK    7  A    between atoms: C_7  and  N_8
REMARK    8  A    between atoms: N_8  and  C_9
REMARK    9  A    between atoms: C_9  and  N_11
REMARK   10  A    between atoms: N_11  and  C_12
REMARK   11  A    between atoms: C_14  and  O_15
REMARK   12  A    between atoms: O_15  and  C_16
REMARK   13  A    between atoms: C_20  and  O_21
REMARK   14  A    between atoms: O_21  and  C_22
REMARK                            x       y       z     vdW  Elec       q    Type
REMARK                         _______ _______ _______ _____ _____    ______ ____
ROOT
ATOM      1  N   UNL     1       4.326   5.262  19.522  0.00  0.00    +0.000 N 
ATOM      2  H   UNL     1       4.784   4.756  20.268  0.00  0.00    +0.000 HD
ENDROOT
BRANCH   1   3
ATOM      3  C   UNL     1       4.926   5.150  18.247  0.00  0.00    +0.000 A 
ATOM      4  C   UNL     1       5.909   6.079  17.878  0.00  0.00    +0.000 A 
ATOM      5  C   UNL     1       6.633   5.982  16.678  0.00  0.00    +0.000 A 
ATOM      6  C   UNL     1       6.333   4.928  15.815  0.00  0.00    +0.000 A 
ATOM      7 CL   UNL     1       7.075   4.656  14.279  0.00  0.00    +0.000 Cl
ATOM      8  C   UNL     1       5.369   3.970  16.190  0.00  0.00    +0.000 A 
ATOM      9  C   UNL     1       4.679   4.064  17.405  0.00  0.00    +0.000 A 
BRANCH   5  10
ATOM     10  O   UNL     1       7.560   6.981  16.596  0.00  0.00    +0.000 OA
ATOM     11  C   UNL     1       7.778   7.873  17.672  0.00  0.00    +0.000 C 
ENDBRANCH   5  10
BRANCH   9  12
ATOM     12  O   UNL     1       3.872   2.992  17.687  0.00  0.00    +0.000 OA
ATOM     13  C   UNL     1       2.510   3.094  17.279  0.00  0.00    +0.000 C 
ENDBRANCH   9  12
ENDBRANCH   1   3
BRANCH   1  14
ATOM     14  C   UNL     1       3.024   5.653  19.811  0.00  0.00    +0.000 C 
ATOM     15  S   UNL     1       1.870   4.738  20.614  0.00  0.00    +0.000 S 
BRANCH  14  16
ATOM     16  N   UNL     1       2.834   6.965  19.411  0.00  0.00    +0.000 N 
ATOM     17  H   UNL     1       3.085   7.675  20.086  0.00  0.00    +0.000 HD
BRANCH  16  18
ATOM     18  C   UNL     1       2.360   7.436  18.111  0.00  0.00    +0.000 C 
BRANCH  18  19
ATOM     19  C   UNL     1       1.797   8.846  18.252  0.00  0.00    +0.000 C 
BRANCH  19  20
ATOM     20  C   UNL     1       1.192   9.079  19.631  0.00  0.00    +0.000 C 
BRANCH  20  21
ATOM     21  S   UNL     1       0.262  10.646  19.600  0.00  0.00    +0.000 S 
BRANCH  21  22
ATOM     22  C   UNL     1       0.483  11.151  21.333  0.00  0.00    +0.000 C 
BRANCH  22  24
ATOM     23  C   UNL     1      -0.026   9.468  23.139  0.00  0.00    +0.000 C 
ATOM     24  C   UNL     1      -0.605  10.505  22.189  0.00  0.00    +0.000 C 
ENDBRANCH  22  24
ENDBRANCH  21  22
ENDBRANCH  20  21
ENDBRANCH  19  20
ENDBRANCH  18  19
ENDBRANCH  16  18
ENDBRANCH  14  16
ENDBRANCH   1  14
TORSDOF 11
ENDMDL
MODEL 3
REMARK VINA RESULT:      -5.7      3.743      6.706
REMARK  Name = 
REMARK  14 active torsions:
REMARK  status: ('A' for Active; 'I' for Inactive)
REMARK    1  A    between atoms: C_1  and  C_2
REMARK    2  A    between atoms: C_2  and  C_3
REMARK    3  A    between atoms: C_3  and  S_4
REMARK    4  A    between atoms: S_4  and  C_5
REMARK    5  A    between atoms: C_5  and  C_6
REMARK    6  A    between atoms: C_6  and  C_7
REMARK    7  A    between atoms: C_7  and  N_8
REMARK    8  A    between atoms: N_8  and  C_9
REMARK    9  A    between atoms: C_9  and  N_11
REMARK   10  A    between atoms: N_11  and  C_12
REMARK   11  A    between atoms: C_14  and  O_15
REMARK   12  A    between atoms: O_15  and  C_16
REMARK   13  A    between atoms: C_20  and  O_21
REMARK   14  A    between atoms: O_21  and  C_22
REMARK                            x       y       z     vdW  Elec       q    Type
REMARK                         _______ _______ _______ _____ _____    ______ ____
ROOT
ATOM      1  N   UNL     1       2.956   4.100  17.876  0.00  0.00    +0.000 N 
ATOM      2  H   UNL     1       2.290   3.897  17.142  0.00  0.00    +0.000 HD
ENDROOT
BRANCH   1   3
ATOM      3  C   UNL     1       2.600   5.152  18.750  0.00  0.00    +0.000 A 
ATOM      4  C   UNL     1       2.757   6.475  18.316  0.00  0.00    +0.000 A 
ATOM      5  C   UNL     1       2.331   7.579  19.075  0.00  0.00    +0.000 A 
ATOM      6  C   UNL     1       1.755   7.334  20.323  0.00  0.00    +0.000 A 
ATOM      7 CL   UNL     1       1.208   8.548  21.422  0.00  0.00    +0.000 Cl
ATOM      8  C   UNL     1       1.565   6.006  20.755  0.00  0.00    +0.000 A 
ATOM      9  C   UNL     1       1.966   4.917  19.972  0.00  0.00    +0.000 A 
BRANCH   5  10
ATOM     10  O   UNL     1       2.554   8.741  18.396  0.00  0.00    +0.000 OA
ATOM     11  C   UNL     1       1.501   9.428  17.748  0.00  0.00    +0.000 C 
ENDBRANCH   5  10
BRANCH   9  12
ATOM     12  O   UNL     1       1.596   3.692  20.466  0.00  0.00    +0.000 OA
ATOM     13  C   UNL     1       2.105   3.343  21.751  0.00  0.00    +0.000 C 
ENDBRANCH   9  12
ENDBRANCH   1   3
BRANCH   1  14
ATOM     14  C   UNL     1       3.885   3.092  18.100  0.00  0.00    +0.000 C 
ATOM     15  S   UNL     1       3.541   1.491  18.465  0.00  0.00    +0.000 S 
BRANCH  14  16
ATOM     16  N   UNL     1       5.162   3.583  17.892  0.00  0.00    +0.000 N 
ATOM     17  H   UNL     1       5.593   3.339  17.010  0.00  0.00    +0.000 HD
BRANCH  16  18
ATOM     18  C   UNL     1       5.934   4.452  18.778  0.00  0.00    +0.000 C 
BRANCH  18  19
ATOM     19  C   UNL     1       7.110   5.049  18.013  0.00  0.00    +0.000 C 
BRANCH  19  20
ATOM     20  C   UNL     1       7.183   4.523  16.585  0.00  0.00    +0.000 C 
BRANCH  20  21
ATOM     21  S   UNL     1       6.150   5.582  15.522  0.00  0.00    +0.000 S 
BRANCH  21  22
ATOM     22  C   UNL     1       5.511   4.317  14.383  0.00  0.00    +0.000 C 
BRANCH  22  24
ATOM     23  C   UNL     1       5.963   3.164  12.188  0.00  0.00    +0.000 C 
ATOM     24  C   UNL     1       6.509   4.112  13.245  0.00  0.00    +0.000 C 
ENDBRANCH  22  24
ENDBRANCH  21  22
ENDBRANCH  20  21
ENDBRANCH  19  20
ENDBRANCH  18  19
ENDBRANCH  16  18
ENDBRANCH  14  16
ENDBRANCH   1  14
TORSDOF 11
ENDMDL
MODEL 4
REMARK VINA RESULT:      -5.7      4.226      7.179
REMARK  Name = 
REMARK  14 active torsions:
REMARK  status: ('A' for Active; 'I' for Inactive)
REMARK    1  A    between atoms: C_1  and  C_2
REMARK    2  A    between atoms: C_2  and  C_3
REMARK    3  A    between atoms: C_3  and  S_4
REMARK    4  A    between atoms: S_4  and  C_5
REMARK    5  A    between atoms: C_5  and  C_6
REMARK    6  A    between atoms: C_6  and  C_7
REMARK    7  A    between atoms: C_7  and  N_8
REMARK    8  A    between atoms: N_8  and  C_9
REMARK    9  A    between atoms: C_9  and  N_11
REMARK   10  A    between atoms: N_11  and  C_12
REMARK   11  A    between atoms: C_14  and  O_15
REMARK   12  A    between atoms: O_15  and  C_16
REMARK   13  A    between atoms: C_20  and  O_21
REMARK   14  A    between atoms: O_21  and  C_22
REMARK                            x       y       z     vdW  Elec       q    Type
REMARK                         _______ _______ _______ _____ _____    ______ ____
ROOT
ATOM      1  N   UNL     1       4.880   6.145  16.429  0.00  0.00    +0.000 N 
ATOM      2  H   UNL     1       4.490   6.167  15.495  0.00  0.00    +0.000 HD
ENDROOT
BRANCH   1   3
ATOM      3  C   UNL     1       3.995   5.733  17.451  0.00  0.00    +0.000 A 
ATOM      4  C   UNL     1       4.029   4.400  17.879  0.00  0.00    +0.000 A 
ATOM      5  C   UNL     1       3.262   3.929  18.959  0.00  0.00    +0.000 A 
ATOM      6  C   UNL     1       2.418   4.832  19.606  0.00  0.00    +0.000 A 
ATOM      7 CL   UNL     1       1.368   4.446  20.922  0.00  0.00    +0.000 Cl
ATOM      8  C   UNL     1       2.400   6.183  19.204  0.00  0.00    +0.000 A 
ATOM      9  C   UNL     1       3.194   6.642  18.146  0.00  0.00    +0.000 A 
BRANCH   5  10
ATOM     10  O   UNL     1       3.526   2.611  19.195  0.00  0.00    +0.000 OA
ATOM     11  C   UNL     1       3.165   1.609  18.264  0.00  0.00    +0.000 C 
ENDBRANCH   5  10
BRANCH   9  12
ATOM     12  O   UNL     1       3.166   8.000  17.960  0.00  0.00    +0.000 OA
ATOM     13  C   UNL     1       1.879   8.599  17.822  0.00  0.00    +0.000 C 
ENDBRANCH   9  12
ENDBRANCH   1   3
BRANCH   1  14
ATOM     14  C   UNL     1       6.269   6.163  16.469  0.00  0.00    +0.000 C 
ATOM     15  S   UNL     1       7.290   4.922  15.991  0.00  0.00    +0.000 S 
BRANCH  14  16
ATOM     16  N   UNL     1       6.704   7.408  16.890  0.00  0.00    +0.000 N 
ATOM     17  H   UNL     1       6.186   8.202  16.535  0.00  0.00    +0.000 HD
BRANCH  16  18
ATOM     18  C   UNL     1       7.790   7.701  17.823  0.00  0.00    +0.000 C 
BRANCH  18  19
ATOM     19  C   UNL     1       8.193   9.166  17.696  0.00  0.00    +0.000 C 
BRANCH  19  20
ATOM     20  C   UNL     1       9.011   9.634  18.893  0.00  0.00    +0.000 C 
BRANCH  20  21
ATOM     21  S   UNL     1       9.287  11.429  18.741  0.00  0.00    +0.000 S 
BRANCH  21  22
ATOM     22  C   UNL     1      11.105  11.446  18.757  0.00  0.00    +0.000 C 
BRANCH  22  24
ATOM     23  C   UNL     1      10.430  12.337  21.016  0.00  0.00    +0.000 C 
ATOM     24  C   UNL     1      11.593  11.975  20.104  0.00  0.00    +0.000 C 
ENDBRANCH  22  24
ENDBRANCH  21  22
ENDBRANCH  20  21
ENDBRANCH  19  20
ENDBRANCH  18  19
ENDBRANCH  16  18
ENDBRANCH  14  16
ENDBRANCH   1  14
TORSDOF 11
ENDMDL
MODEL 5
REMARK VINA RESULT:      -5.7      1.088      1.142
REMARK  Name = 
REMARK  14 active torsions:
REMARK  status: ('A' for Active; 'I' for Inactive)
REMARK    1  A    between atoms: C_1  and  C_2
REMARK    2  A    between atoms: C_2  and  C_3
REMARK    3  A    between atoms: C_3  and  S_4
REMARK    4  A    between atoms: S_4  and  C_5
REMARK    5  A    between atoms: C_5  and  C_6
REMARK    6  A    between atoms: C_6  and  C_7
REMARK    7  A    between atoms: C_7  and  N_8
REMARK    8  A    between atoms: N_8  and  C_9
REMARK    9  A    between atoms: C_9  and  N_11
REMARK   10  A    between atoms: N_11  and  C_12
REMARK   11  A    between atoms: C_14  and  O_15
REMARK   12  A    between atoms: O_15  and  C_16
REMARK   13  A    between atoms: C_20  and  O_21
REMARK   14  A    between atoms: O_21  and  C_22
REMARK                            x       y       z     vdW  Elec       q    Type
REMARK                         _______ _______ _______ _____ _____    ______ ____
ROOT
ATOM      1  N   UNL     1       3.919   5.527  19.792  0.00  0.00    +0.000 N 
ATOM      2  H   UNL     1       4.450   5.222  20.597  0.00  0.00    +0.000 HD
ENDROOT
BRANCH   1   3
ATOM      3  C   UNL     1       4.491   5.230  18.534  0.00  0.00    +0.000 A 
ATOM      4  C   UNL     1       5.398   6.138  17.972  0.00  0.00    +0.000 A 
ATOM      5  C   UNL     1       6.095   5.877  16.779  0.00  0.00    +0.000 A 
ATOM      6  C   UNL     1       5.843   4.670  16.125  0.00  0.00    +0.000 A 
ATOM      7 CL   UNL     1       6.561   4.178  14.633  0.00  0.00    +0.000 Cl
ATOM      8  C   UNL     1       4.956   3.736  16.698  0.00  0.00    +0.000 A 
ATOM      9  C   UNL     1       4.295   4.000  17.904  0.00  0.00    +0.000 A 
BRANCH   5  10
ATOM     10  O   UNL     1       6.949   6.901  16.489  0.00  0.00    +0.000 OA
ATOM     11  C   UNL     1       7.592   7.635  17.513  0.00  0.00    +0.000 C 
ENDBRANCH   5  10
BRANCH   9  12
ATOM     12  O   UNL     1       3.571   2.946  18.399  0.00  0.00    +0.000 OA
ATOM     13  C   UNL     1       2.491   2.480  17.593  0.00  0.00    +0.000 C 
ENDBRANCH   9  12
ENDBRANCH   1   3
BRANCH   1  14
ATOM     14  C   UNL     1       2.593   5.838  20.065  0.00  0.00    +0.000 C 
ATOM     15  S   UNL     1       1.394   4.753  20.515  0.00  0.00    +0.000 S 
BRANCH  14  16
ATOM     16  N   UNL     1       2.413   7.208  19.994  0.00  0.00    +0.000 N 
ATOM     17  H   UNL     1       2.970   7.693  19.303  0.00  0.00    +0.000 HD
BRANCH  16  18
ATOM     18  C   UNL     1       1.478   8.022  20.770  0.00  0.00    +0.000 C 
BRANCH  18  19
ATOM     19  C   UNL     1       1.002   9.199  19.925  0.00  0.00    +0.000 C 
BRANCH  19  20
ATOM     20  C   UNL     1       0.547  10.369  20.788  0.00  0.00    +0.000 C 
BRANCH  20  21
ATOM     21  S   UNL     1       0.236  11.802  19.706  0.00  0.00    +0.000 S 
BRANCH  21  22
ATOM     22  C   UNL     1      -1.553  11.595  19.456  0.00  0.00    +0.000 C 
BRANCH  22  24
ATOM     23  C   UNL     1      -1.755  10.101  17.436  0.00  0.00    +0.000 C 
ATOM     24  C   UNL     1      -1.849  11.527  17.959  0.00  0.00    +0.000 C 
ENDBRANCH  22  24
ENDBRANCH  21  22
ENDBRANCH  20  21
ENDBRANCH  19  20
ENDBRANCH  18  19
ENDBRANCH  16  18
ENDBRANCH  14  16
ENDBRANCH   1  14
TORSDOF 11
ENDMDL
MODEL 6
REMARK VINA RESULT:      -5.6      4.084      6.753
REMARK  Name = 
REMARK  14 active torsions:
REMARK  status: ('A' for Active; 'I' for Inactive)
REMARK    1  A    between atoms: C_1  and  C_2
REMARK    2  A    between atoms: C_2  and  C_3
REMARK    3  A    between atoms: C_3  and  S_4
REMARK    4  A    between atoms: S_4  and  C_5
REMARK    5  A    between atoms: C_5  and  C_6
REMARK    6  A    between atoms: C_6  and  C_7
REMARK    7  A    between atoms: C_7  and  N_8
REMARK    8  A    between atoms: N_8  and  C_9
REMARK    9  A    between atoms: C_9  and  N_11
REMARK   10  A    between atoms: N_11  and  C_12
REMARK   11  A    between atoms: C_14  and  O_15
REMARK   12  A    between atoms: O_15  and  C_16
REMARK   13  A    between atoms: C_20  and  O_21
REMARK   14  A    between atoms: O_21  and  C_22
REMARK                            x       y       z     vdW  Elec       q    Type
REMARK                         _______ _______ _______ _____ _____    ______ ____
ROOT
ATOM      1  N   UNL     1       4.933   6.086  16.310  0.00  0.00    +0.000 N 
ATOM      2  H   UNL     1       4.509   6.536  15.509  0.00  0.00    +0.000 HD
ENDROOT
BRANCH   1   3
ATOM      3  C   UNL     1       4.044   5.703  17.339  0.00  0.00    +0.000 A 
ATOM      4  C   UNL     1       4.054   4.374  17.783  0.00  0.00    +0.000 A 
ATOM      5  C   UNL     1       3.282   3.929  18.870  0.00  0.00    +0.000 A 
ATOM      6  C   UNL     1       2.455   4.855  19.508  0.00  0.00    +0.000 A 
ATOM      7 CL   UNL     1       1.402   4.503  20.830  0.00  0.00    +0.000 Cl
ATOM      8  C   UNL     1       2.460   6.201  19.090  0.00  0.00    +0.000 A 
ATOM      9  C   UNL     1       3.260   6.633  18.025  0.00  0.00    +0.000 A 
BRANCH   5  10
ATOM     10  O   UNL     1       3.524   2.610  19.121  0.00  0.00    +0.000 OA
ATOM     11  C   UNL     1       3.455   1.640  18.094  0.00  0.00    +0.000 C 
ENDBRANCH   5  10
BRANCH   9  12
ATOM     12  O   UNL     1       3.256   7.990  17.823  0.00  0.00    +0.000 OA
ATOM     13  C   UNL     1       1.993   8.645  17.924  0.00  0.00    +0.000 C 
ENDBRANCH   9  12
ENDBRANCH   1   3
BRANCH   1  14
ATOM     14  C   UNL     1       6.220   5.613  16.085  0.00  0.00    +0.000 C 
ATOM     15  S   UNL     1       6.649   4.364  15.051  0.00  0.00    +0.000 S 
BRANCH  14  16
ATOM     16  N   UNL     1       7.128   6.388  16.785  0.00  0.00    +0.000 N 
ATOM     17  H   UNL     1       8.065   6.014  16.859  0.00  0.00    +0.000 HD
BRANCH  16  18
ATOM     18  C   UNL     1       6.899   7.703  17.383  0.00  0.00    +0.000 C 
BRANCH  18  19
ATOM     19  C   UNL     1       8.182   8.195  18.043  0.00  0.00    +0.000 C 
BRANCH  19  20
ATOM     20  C   UNL     1       8.322   9.709  17.951  0.00  0.00    +0.000 C 
BRANCH  20  21
ATOM     21  S   UNL     1       9.301  10.290  19.374  0.00  0.00    +0.000 S 
BRANCH  21  22
ATOM     22  C   UNL     1      10.176  11.672  18.581  0.00  0.00    +0.000 C 
BRANCH  22  24
ATOM     23  C   UNL     1       8.716  13.713  18.346  0.00  0.00    +0.000 C 
ATOM     24  C   UNL     1       9.205  12.435  17.682  0.00  0.00    +0.000 C 
ENDBRANCH  22  24
ENDBRANCH  21  22
ENDBRANCH  20  21
ENDBRANCH  19  20
ENDBRANCH  18  19
ENDBRANCH  16  18
ENDBRANCH  14  16
ENDBRANCH   1  14
TORSDOF 11
ENDMDL
MODEL 7
REMARK VINA RESULT:      -5.6      4.261      7.209
REMARK  Name = 
REMARK  14 active torsions:
REMARK  status: ('A' for Active; 'I' for Inactive)
REMARK    1  A    between atoms: C_1  and  C_2
REMARK    2  A    between atoms: C_2  and  C_3
REMARK    3  A    between atoms: C_3  and  S_4
REMARK    4  A    between atoms: S_4  and  C_5
REMARK    5  A    between atoms: C_5  and  C_6
REMARK    6  A    between atoms: C_6  and  C_7
REMARK    7  A    between atoms: C_7  and  N_8
REMARK    8  A    between atoms: N_8  and  C_9
REMARK    9  A    between atoms: C_9  and  N_11
REMARK   10  A    between atoms: N_11  and  C_12
REMARK   11  A    between atoms: C_14  and  O_15
REMARK   12  A    between atoms: O_15  and  C_16
REMARK   13  A    between atoms: C_20  and  O_21
REMARK   14  A    between atoms: O_21  and  C_22
REMARK                            x       y       z     vdW  Elec       q    Type
REMARK                         _______ _______ _______ _____ _____    ______ ____
ROOT
ATOM      1  N   UNL     1       6.173   4.095  18.198  0.00  0.00    +0.000 N 
ATOM      2  H   UNL     1       6.443   3.126  18.091  0.00  0.00    +0.000 HD
ENDROOT
BRANCH   1   3
ATOM      3  C   UNL     1       4.943   4.319  18.857  0.00  0.00    +0.000 A 
ATOM      4  C   UNL     1       4.400   5.610  18.857  0.00  0.00    +0.000 A 
ATOM      5  C   UNL     1       3.134   5.903  19.393  0.00  0.00    +0.000 A 
ATOM      6  C   UNL     1       2.411   4.859  19.972  0.00  0.00    +0.000 A 
ATOM      7 CL   UNL     1       0.862   5.016  20.720  0.00  0.00    +0.000 Cl
ATOM      8  C   UNL     1       2.934   3.550  19.950  0.00  0.00    +0.000 A 
ATOM      9  C   UNL     1       4.183   3.271  19.382  0.00  0.00    +0.000 A 
BRANCH   5  10
ATOM     10  O   UNL     1       2.830   7.221  19.212  0.00  0.00    +0.000 OA
ATOM     11  C   UNL     1       2.337   7.699  17.975  0.00  0.00    +0.000 C 
ENDBRANCH   5  10
BRANCH   9  12
ATOM     12  O   UNL     1       4.496   1.938  19.319  0.00  0.00    +0.000 OA
ATOM     13  C   UNL     1       3.765   1.155  18.378  0.00  0.00    +0.000 C 
ENDBRANCH   9  12
ENDBRANCH   1   3
BRANCH   1  14
ATOM     14  C   UNL     1       7.210   5.001  18.014  0.00  0.00    +0.000 C 
ATOM     15  S   UNL     1       7.980   5.884  19.215  0.00  0.00    +0.000 S 
BRANCH  14  16
ATOM     16  N   UNL     1       7.586   5.011  16.682  0.00  0.00    +0.000 N 
ATOM     17  H   UNL     1       8.380   5.593  16.450  0.00  0.00    +0.000 HD
BRANCH  16  18
ATOM     18  C   UNL     1       6.998   4.241  15.587  0.00  0.00    +0.000 C 
BRANCH  18  19
ATOM     19  C   UNL     1       5.889   5.054  14.928  0.00  0.00    +0.000 C 
BRANCH  19  20
ATOM     20  C   UNL     1       5.209   4.279  13.807  0.00  0.00    +0.000 C 
BRANCH  20  21
ATOM     21  S   UNL     1       6.488   3.422  12.832  0.00  0.00    +0.000 S 
BRANCH  21  22
ATOM     22  C   UNL     1       5.484   2.934  11.397  0.00  0.00    +0.000 C 
BRANCH  22  24
ATOM     23  C   UNL     1       3.262   3.375  10.292  0.00  0.00    +0.000 C 
ATOM     24  C   UNL     1       4.053   3.432  11.590  0.00  0.00    +0.000 C 
ENDBRANCH  22  24
ENDBRANCH  21  22
ENDBRANCH  20  21
ENDBRANCH  19  20
ENDBRANCH  18  19
ENDBRANCH  16  18
ENDBRANCH  14  16
ENDBRANCH   1  14
TORSDOF 11
ENDMDL
MODEL 8
REMARK VINA RESULT:      -5.6      2.612      4.494
REMARK  Name = 
REMARK  14 active torsions:
REMARK  status: ('A' for Active; 'I' for Inactive)
REMARK    1  A    between atoms: C_1  and  C_2
REMARK    2  A    between atoms: C_2  and  C_3
REMARK    3  A    between atoms: C_3  and  S_4
REMARK    4  A    between atoms: S_4  and  C_5
REMARK    5  A    between atoms: C_5  and  C_6
REMARK    6  A    between atoms: C_6  and  C_7
REMARK    7  A    between atoms: C_7  and  N_8
REMARK    8  A    between atoms: N_8  and  C_9
REMARK    9  A    between atoms: C_9  and  N_11
REMARK   10  A    between atoms: N_11  and  C_12
REMARK   11  A    between atoms: C_14  and  O_15
REMARK   12  A    between atoms: O_15  and  C_16
REMARK   13  A    between atoms: C_20  and  O_21
REMARK   14  A    between atoms: O_21  and  C_22
REMARK                            x       y       z     vdW  Elec       q    Type
REMARK                         _______ _______ _______ _____ _____    ______ ____
ROOT
ATOM      1  N   UNL     1       2.220   7.736  20.617  0.00  0.00    +0.000 N 
ATOM      2  H   UNL     1       2.941   7.878  21.312  0.00  0.00    +0.000 HD
ENDROOT
BRANCH   1   3
ATOM      3  C   UNL     1       2.252   6.491  19.949  0.00  0.00    +0.000 A 
ATOM      4  C   UNL     1       1.673   5.376  20.569  0.00  0.00    +0.000 A 
ATOM      5  C   UNL     1       1.564   4.125  19.935  0.00  0.00    +0.000 A 
ATOM      6  C   UNL     1       2.083   3.997  18.646  0.00  0.00    +0.000 A 
ATOM      7 CL   UNL     1       2.087   2.542  17.715  0.00  0.00    +0.000 Cl
ATOM      8  C   UNL     1       2.640   5.120  18.002  0.00  0.00    +0.000 A 
ATOM      9  C   UNL     1       2.711   6.367  18.636  0.00  0.00    +0.000 A 
BRANCH   5  10
ATOM     10  O   UNL     1       0.913   3.236  20.740  0.00  0.00    +0.000 OA
ATOM     11  C   UNL     1       1.592   2.536  21.765  0.00  0.00    +0.000 C 
ENDBRANCH   5  10
BRANCH   9  12
ATOM     12  O   UNL     1       3.156   7.388  17.837  0.00  0.00    +0.000 OA
ATOM     13  C   UNL     1       4.372   7.161  17.129  0.00  0.00    +0.000 C 
ENDBRANCH   9  12
ENDBRANCH   1   3
BRANCH   1  14
ATOM     14  C   UNL     1       1.149   8.616  20.715  0.00  0.00    +0.000 C 
ATOM     15  S   UNL     1       0.426   9.142  22.134  0.00  0.00    +0.000 S 
BRANCH  14  16
ATOM     16  N   UNL     1       0.808   9.073  19.454  0.00  0.00    +0.000 N 
ATOM     17  H   UNL     1       0.132   8.516  18.948  0.00  0.00    +0.000 HD
BRANCH  16  18
ATOM     18  C   UNL     1       1.276  10.291  18.795  0.00  0.00    +0.000 C 
BRANCH  18  19
ATOM     19  C   UNL     1       0.193  11.362  18.870  0.00  0.00    +0.000 C 
BRANCH  19  20
ATOM     20  C   UNL     1      -1.182  10.761  19.133  0.00  0.00    +0.000 C 
BRANCH  20  21
ATOM     21  S   UNL     1      -2.372  11.501  17.969  0.00  0.00    +0.000 S 
BRANCH  21  22
ATOM     22  C   UNL     1      -3.130   9.981  17.321  0.00  0.00    +0.000 C 
BRANCH  22  24
ATOM     23  C   UNL     1      -3.367  10.414  14.849  0.00  0.00    +0.000 C 
ATOM     24  C   UNL     1      -2.573   9.693  15.928  0.00  0.00    +0.000 C 
ENDBRANCH  22  24
ENDBRANCH  21  22
ENDBRANCH  20  21
ENDBRANCH  19  20
ENDBRANCH  18  19
ENDBRANCH  16  18
ENDBRANCH  14  16
ENDBRANCH   1  14
TORSDOF 11
ENDMDL
MODEL 9
REMARK VINA RESULT:      -5.5      1.186      1.808
REMARK  Name = 
REMARK  14 active torsions:
REMARK  status: ('A' for Active; 'I' for Inactive)
REMARK    1  A    between atoms: C_1  and  C_2
REMARK    2  A    between atoms: C_2  and  C_3
REMARK    3  A    between atoms: C_3  and  S_4
REMARK    4  A    between atoms: S_4  and  C_5
REMARK    5  A    between atoms: C_5  and  C_6
REMARK    6  A    between atoms: C_6  and  C_7
REMARK    7  A    between atoms: C_7  and  N_8
REMARK    8  A    between atoms: N_8  and  C_9
REMARK    9  A    between atoms: C_9  and  N_11
REMARK   10  A    between atoms: N_11  and  C_12
REMARK   11  A    between atoms: C_14  and  O_15
REMARK   12  A    between atoms: O_15  and  C_16
REMARK   13  A    between atoms: C_20  and  O_21
REMARK   14  A    between atoms: O_21  and  C_22
REMARK                            x       y       z     vdW  Elec       q    Type
REMARK                         _______ _______ _______ _____ _____    ______ ____
ROOT
ATOM      1  N   UNL     1       2.192   5.617  18.729  0.00  0.00    +0.000 N 
ATOM      2  H   UNL     1       1.473   6.219  18.351  0.00  0.00    +0.000 HD
ENDROOT
BRANCH   1   3
ATOM      3  C   UNL     1       3.288   5.361  17.874  0.00  0.00    +0.000 A 
ATOM      4  C   UNL     1       4.236   6.372  17.668  0.00  0.00    +0.000 A 
ATOM      5  C   UNL     1       5.410   6.173  16.921  0.00  0.00    +0.000 A 
ATOM      6  C   UNL     1       5.614   4.918  16.344  0.00  0.00    +0.000 A 
ATOM      7 CL   UNL     1       6.965   4.483  15.359  0.00  0.00    +0.000 Cl
ATOM      8  C   UNL     1       4.682   3.885  16.570  0.00  0.00    +0.000 A 
ATOM      9  C   UNL     1       3.534   4.093  17.344  0.00  0.00    +0.000 A 
BRANCH   5  10
ATOM     10  O   UNL     1       6.179   7.300  16.927  0.00  0.00    +0.000 OA
ATOM     11  C   UNL     1       7.433   7.332  17.580  0.00  0.00    +0.000 C 
ENDBRANCH   5  10
BRANCH   9  12
ATOM     12  O   UNL     1       2.794   2.963  17.581  0.00  0.00    +0.000 OA
ATOM     13  C   UNL     1       3.505   1.825  18.066  0.00  0.00    +0.000 C 
ENDBRANCH   9  12
ENDBRANCH   1   3
BRANCH   1  14
ATOM     14  C   UNL     1       2.144   5.464  20.109  0.00  0.00    +0.000 C 
ATOM     15  S   UNL     1       2.533   4.076  20.966  0.00  0.00    +0.000 S 
BRANCH  14  16
ATOM     16  N   UNL     1       1.803   6.670  20.697  0.00  0.00    +0.000 N 
ATOM     17  H   UNL     1       1.442   6.616  21.641  0.00  0.00    +0.000 HD
BRANCH  16  18
ATOM     18  C   UNL     1       1.952   8.009  20.129  0.00  0.00    +0.000 C 
BRANCH  18  19
ATOM     19  C   UNL     1       0.880   8.929  20.701  0.00  0.00    +0.000 C 
BRANCH  19  20
ATOM     20  C   UNL     1       0.458   9.999  19.702  0.00  0.00    +0.000 C 
BRANCH  20  21
ATOM     21  S   UNL     1      -0.639  11.183  20.546  0.00  0.00    +0.000 S 
BRANCH  21  22
ATOM     22  C   UNL     1      -0.535  10.523  22.237  0.00  0.00    +0.000 C 
BRANCH  22  24
ATOM     23  C   UNL     1      -1.280  12.843  22.884  0.00  0.00    +0.000 C 
ATOM     24  C   UNL     1      -1.427  11.354  23.158  0.00  0.00    +0.000 C 
ENDBRANCH  22  24
ENDBRANCH  21  22
ENDBRANCH  20  21
ENDBRANCH  19  20
ENDBRANCH  18  19
ENDBRANCH  16  18
ENDBRANCH  14  16
ENDBRANCH   1  14
TORSDOF 11
ENDMDL
