MODEL 1
REMARK VINA RESULT:      -6.7      0.000      0.000
REMARK  Name = 
REMARK  15 active torsions:
REMARK  status: ('A' for Active; 'I' for Inactive)
REMARK    1  A    between atoms: C_1  and  C_2
REMARK    2  A    between atoms: C_2  and  C_3
REMARK    3  A    between atoms: C_3  and  C_4
REMARK    4  A    between atoms: C_3  and  N_5
REMARK    5  A    between atoms: N_5  and  C_19
REMARK    6  A    between atoms: C_6  and  C_8
REMARK    7  A    between atoms: C_8  and  C_9
REMARK    8  A    between atoms: C_9  and  C_10
REMARK    9  A    between atoms: C_15  and  C_16
REMARK   10  A    between atoms: C_19  and  C_20
REMARK   11  A    between atoms: C_19  and  C_27
REMARK   12  A    between atoms: N_22  and  C_23
REMARK   13  A    between atoms: C_23  and  C_24
REMARK   14  A    between atoms: C_23  and  C_25
REMARK   15  A    between atoms: C_23  and  C_26
REMARK                            x       y       z     vdW  Elec       q    Type
REMARK                         _______ _______ _______ _____ _____    ______ ____
ROOT
ATOM      1  N   UNL     1      -0.454  11.724  21.505  0.00  0.00    +0.000 N 
ATOM      2  C   UNL     1      -0.238  10.623  22.346  0.00  0.00    +0.000 C 
ATOM      3  O   UNL     1      -0.882  10.424  23.374  0.00  0.00    +0.000 OA
ENDROOT
BRANCH   1   4
ATOM      4  C   UNL     1      -1.409  12.801  21.955  0.00  0.00    +0.000 C 
ATOM      5  C   UNL     1      -0.808  13.696  23.050  0.00  0.00    +0.000 C 
BRANCH   4   7
ATOM      6  C   UNL     1      -3.982  12.952  21.763  0.00  0.00    +0.000 C 
ATOM      7  C   UNL     1      -2.783  12.245  22.393  0.00  0.00    +0.000 C 
ENDBRANCH   4   7
ENDBRANCH   1   4
BRANCH   2   8
ATOM      8  C   UNL     1       0.906   9.667  21.998  0.00  0.00    +0.000 C 
BRANCH   8   9
ATOM      9  C   UNL     1       0.436   8.254  21.693  0.00  0.00    +0.000 C 
BRANCH   9  10
ATOM     10  C   UNL     1       1.441   7.555  20.801  0.00  0.00    +0.000 C 
ATOM     11  O   UNL     1       1.980   8.172  19.886  0.00  0.00    +0.000 OA
ATOM     12  N   UNL     1       1.567   6.211  21.079  0.00  0.00    +0.000 N 
ATOM     13  C   UNL     1       2.455   5.377  20.428  0.00  0.00    +0.000 A 
ATOM     14  C   UNL     1       2.442   3.963  20.526  0.00  0.00    +0.000 A 
ATOM     15  C   UNL     1       3.467   3.550  19.710  0.00  0.00    +0.000 A 
ATOM     16  C   UNL     1       4.016   2.246  19.302  0.00  0.00    +0.000 C 
ATOM     17  O   UNL     1       4.078   4.640  19.182  0.00  0.00    +0.000 OA
ATOM     18  N   UNL     1       3.444   5.779  19.624  0.00  0.00    +0.000 NA
ATOM     19  H   UNL     1       0.887   5.774  21.695  0.00  0.00    +0.000 HD
ENDBRANCH   9  10
ENDBRANCH   8   9
ENDBRANCH   2   8
BRANCH   1  20
ATOM     20  C   UNL     1      -0.148  11.609  20.034  0.00  0.00    +0.000 C 
BRANCH  20  21
ATOM     21  C   UNL     1       1.010  12.488  19.529  0.00  0.00    +0.000 A 
ATOM     22  C   UNL     1       1.179  13.809  19.982  0.00  0.00    +0.000 A 
ATOM     23  C   UNL     1       2.198  14.621  19.473  0.00  0.00    +0.000 A 
ATOM     24  C   UNL     1       3.066  14.137  18.493  0.00  0.00    +0.000 A 
ATOM     25  C   UNL     1       2.903  12.845  18.009  0.00  0.00    +0.000 A 
ATOM     26  C   UNL     1       1.881  12.030  18.512  0.00  0.00    +0.000 A 
ATOM     27 CL   UNL     1       1.723  10.454  17.812  0.00  0.00    +0.000 Cl
ENDBRANCH  20  21
BRANCH  20  28
ATOM     28  C   UNL     1      -1.348  11.825  19.065  0.00  0.00    +0.000 C 
ATOM     29  O   UNL     1      -1.806  12.944  18.839  0.00  0.00    +0.000 OA
ATOM     30  N   UNL     1      -1.916  10.663  18.562  0.00  0.00    +0.000 N 
ATOM     31  H   UNL     1      -1.451   9.782  18.731  0.00  0.00    +0.000 HD
BRANCH  30  32
ATOM     32  C   UNL     1      -3.074  10.668  17.651  0.00  0.00    +0.000 C 
ATOM     33  C   UNL     1      -4.154  11.645  18.138  0.00  0.00    +0.000 C 
ATOM     34  C   UNL     1      -2.598  11.111  16.254  0.00  0.00    +0.000 C 
ATOM     35  C   UNL     1      -3.678   9.262  17.510  0.00  0.00    +0.000 C 
ENDBRANCH  30  32
ENDBRANCH  20  28
ENDBRANCH   1  20
TORSDOF 9
ENDMDL
MODEL 2
REMARK VINA RESULT:      -6.7      2.146      4.800
REMARK  Name = 
REMARK  15 active torsions:
REMARK  status: ('A' for Active; 'I' for Inactive)
REMARK    1  A    between atoms: C_1  and  C_2
REMARK    2  A    between atoms: C_2  and  C_3
REMARK    3  A    between atoms: C_3  and  C_4
REMARK    4  A    between atoms: C_3  and  N_5
REMARK    5  A    between atoms: N_5  and  C_19
REMARK    6  A    between atoms: C_6  and  C_8
REMARK    7  A    between atoms: C_8  and  C_9
REMARK    8  A    between atoms: C_9  and  C_10
REMARK    9  A    between atoms: C_15  and  C_16
REMARK   10  A    between atoms: C_19  and  C_20
REMARK   11  A    between atoms: C_19  and  C_27
REMARK   12  A    between atoms: N_22  and  C_23
REMARK   13  A    between atoms: C_23  and  C_24
REMARK   14  A    between atoms: C_23  and  C_25
REMARK   15  A    between atoms: C_23  and  C_26
REMARK                            x       y       z     vdW  Elec       q    Type
REMARK                         _______ _______ _______ _____ _____    ______ ____
ROOT
ATOM      1  N   UNL     1      -1.056  10.729  18.911  0.00  0.00    +0.000 N 
ATOM      2  C   UNL     1      -0.092   9.932  18.275  0.00  0.00    +0.000 C 
ATOM      3  O   UNL     1      -0.247   9.454  17.154  0.00  0.00    +0.000 OA
ENDROOT
BRANCH   1   4
ATOM      4  C   UNL     1      -2.408  10.882  18.263  0.00  0.00    +0.000 C 
ATOM      5  C   UNL     1      -3.151   9.543  18.138  0.00  0.00    +0.000 C 
BRANCH   4   7
ATOM      6  C   UNL     1      -3.054  10.870  15.760  0.00  0.00    +0.000 C 
ATOM      7  C   UNL     1      -2.347  11.605  16.898  0.00  0.00    +0.000 C 
ENDBRANCH   4   7
ENDBRANCH   1   4
BRANCH   2   8
ATOM      8  C   UNL     1       1.180   9.587  19.053  0.00  0.00    +0.000 C 
BRANCH   8   9
ATOM      9  C   UNL     1       2.140   8.704  18.272  0.00  0.00    +0.000 C 
BRANCH   9  10
ATOM     10  C   UNL     1       2.260   7.351  18.942  0.00  0.00    +0.000 C 
ATOM     11  O   UNL     1       2.155   7.261  20.163  0.00  0.00    +0.000 OA
ATOM     12  N   UNL     1       2.587   6.340  18.064  0.00  0.00    +0.000 N 
ATOM     13  C   UNL     1       2.707   5.015  18.435  0.00  0.00    +0.000 A 
ATOM     14  C   UNL     1       3.264   4.003  17.615  0.00  0.00    +0.000 A 
ATOM     15  C   UNL     1       3.204   2.864  18.381  0.00  0.00    +0.000 A 
ATOM     16  C   UNL     1       3.619   1.463  18.203  0.00  0.00    +0.000 C 
ATOM     17  O   UNL     1       2.621   3.162  19.570  0.00  0.00    +0.000 OA
ATOM     18  N   UNL     1       2.317   4.503  19.606  0.00  0.00    +0.000 NA
ATOM     19  H   UNL     1       2.887   6.588  17.125  0.00  0.00    +0.000 HD
ENDBRANCH   9  10
ENDBRANCH   8   9
ENDBRANCH   2   8
BRANCH   1  20
ATOM     20  C   UNL     1      -0.620  11.769  19.910  0.00  0.00    +0.000 C 
BRANCH  20  21
ATOM     21  C   UNL     1      -1.715  12.259  20.874  0.00  0.00    +0.000 A 
ATOM     22  C   UNL     1      -2.597  13.294  20.516  0.00  0.00    +0.000 A 
ATOM     23  C   UNL     1      -3.550  13.775  21.421  0.00  0.00    +0.000 A 
ATOM     24  C   UNL     1      -3.638  13.241  22.707  0.00  0.00    +0.000 A 
ATOM     25  C   UNL     1      -2.759  12.236  23.094  0.00  0.00    +0.000 A 
ATOM     26  C   UNL     1      -1.801  11.756  22.194  0.00  0.00    +0.000 A 
ATOM     27 CL   UNL     1      -0.716  10.540  22.783  0.00  0.00    +0.000 Cl
ENDBRANCH  20  21
BRANCH  20  28
ATOM     28  C   UNL     1       0.079  13.032  19.325  0.00  0.00    +0.000 C 
ATOM     29  O   UNL     1      -0.269  13.529  18.254  0.00  0.00    +0.000 OA
ATOM     30  N   UNL     1       1.175  13.488  20.045  0.00  0.00    +0.000 N 
ATOM     31  H   UNL     1       1.366  13.079  20.949  0.00  0.00    +0.000 HD
BRANCH  30  32
ATOM     32  C   UNL     1       1.975  14.653  19.632  0.00  0.00    +0.000 C 
ATOM     33  C   UNL     1       1.117  15.926  19.595  0.00  0.00    +0.000 C 
ATOM     34  C   UNL     1       3.113  14.853  20.652  0.00  0.00    +0.000 C 
ATOM     35  C   UNL     1       2.621  14.426  18.256  0.00  0.00    +0.000 C 
ENDBRANCH  30  32
ENDBRANCH  20  28
ENDBRANCH   1  20
TORSDOF 9
ENDMDL
MODEL 3
REMARK VINA RESULT:      -6.6      2.080      4.739
REMARK  Name = 
REMARK  15 active torsions:
REMARK  status: ('A' for Active; 'I' for Inactive)
REMARK    1  A    between atoms: C_1  and  C_2
REMARK    2  A    between atoms: C_2  and  C_3
REMARK    3  A    between atoms: C_3  and  C_4
REMARK    4  A    between atoms: C_3  and  N_5
REMARK    5  A    between atoms: N_5  and  C_19
REMARK    6  A    between atoms: C_6  and  C_8
REMARK    7  A    between atoms: C_8  and  C_9
REMARK    8  A    between atoms: C_9  and  C_10
REMARK    9  A    between atoms: C_15  and  C_16
REMARK   10  A    between atoms: C_19  and  C_20
REMARK   11  A    between atoms: C_19  and  C_27
REMARK   12  A    between atoms: N_22  and  C_23
REMARK   13  A    between atoms: C_23  and  C_24
REMARK   14  A    between atoms: C_23  and  C_25
REMARK   15  A    between atoms: C_23  and  C_26
REMARK                            x       y       z     vdW  Elec       q    Type
REMARK                         _______ _______ _______ _____ _____    ______ ____
ROOT
ATOM      1  N   UNL     1      -1.232  11.010  19.106  0.00  0.00    +0.000 N 
ATOM      2  C   UNL     1      -0.126  10.254  18.692  0.00  0.00    +0.000 C 
ATOM      3  O   UNL     1      -0.069   9.681  17.607  0.00  0.00    +0.000 OA
ENDROOT
BRANCH   1   4
ATOM      4  C   UNL     1      -2.475  10.998  18.253  0.00  0.00    +0.000 C 
ATOM      5  C   UNL     1      -3.125   9.607  18.187  0.00  0.00    +0.000 C 
BRANCH   4   7
ATOM      6  C   UNL     1      -3.005  10.834  15.728  0.00  0.00    +0.000 C 
ATOM      7  C   UNL     1      -2.239  11.561  16.833  0.00  0.00    +0.000 C 
ENDBRANCH   4   7
ENDBRANCH   1   4
BRANCH   2   8
ATOM      8  C   UNL     1       1.032  10.077  19.679  0.00  0.00    +0.000 C 
BRANCH   8   9
ATOM      9  C   UNL     1       0.997   8.746  20.413  0.00  0.00    +0.000 C 
BRANCH   9  10
ATOM     10  C   UNL     1       1.946   7.767  19.754  0.00  0.00    +0.000 C 
ATOM     11  O   UNL     1       2.507   8.071  18.704  0.00  0.00    +0.000 OA
ATOM     12  N   UNL     1       1.995   6.548  20.395  0.00  0.00    +0.000 N 
ATOM     13  C   UNL     1       2.822   5.513  20.005  0.00  0.00    +0.000 A 
ATOM     14  C   UNL     1       2.726   4.186  20.493  0.00  0.00    +0.000 A 
ATOM     15  C   UNL     1       3.714   3.500  19.827  0.00  0.00    +0.000 A 
ATOM     16  C   UNL     1       4.177   2.103  19.800  0.00  0.00    +0.000 C 
ATOM     17  O   UNL     1       4.381   4.361  19.018  0.00  0.00    +0.000 OA
ATOM     18  N   UNL     1       3.822   5.614  19.124  0.00  0.00    +0.000 NA
ATOM     19  H   UNL     1       1.299   6.342  21.107  0.00  0.00    +0.000 HD
ENDBRANCH   9  10
ENDBRANCH   8   9
ENDBRANCH   2   8
BRANCH   1  20
ATOM     20  C   UNL     1      -1.034  12.155  20.065  0.00  0.00    +0.000 C 
BRANCH  20  21
ATOM     21  C   UNL     1      -2.242  12.482  20.961  0.00  0.00    +0.000 A 
ATOM     22  C   UNL     1      -3.299  13.287  20.501  0.00  0.00    +0.000 A 
ATOM     23  C   UNL     1      -4.364  13.630  21.342  0.00  0.00    +0.000 A 
ATOM     24  C   UNL     1      -4.392  13.186  22.665  0.00  0.00    +0.000 A 
ATOM     25  C   UNL     1      -3.345  12.412  23.152  0.00  0.00    +0.000 A 
ATOM     26  C   UNL     1      -2.275  12.071  22.315  0.00  0.00    +0.000 A 
ATOM     27 CL   UNL     1      -0.992  11.149  23.024  0.00  0.00    +0.000 Cl
ENDBRANCH  20  21
BRANCH  20  28
ATOM     28  C   UNL     1      -0.546  13.496  19.440  0.00  0.00    +0.000 C 
ATOM     29  O   UNL     1      -0.406  13.633  18.226  0.00  0.00    +0.000 OA
ATOM     30  N   UNL     1      -0.191  14.478  20.355  0.00  0.00    +0.000 N 
ATOM     31  H   UNL     1      -0.394  14.328  21.333  0.00  0.00    +0.000 HD
BRANCH  30  32
ATOM     32  C   UNL     1       0.316  15.801  19.952  0.00  0.00    +0.000 C 
ATOM     33  C   UNL     1       1.629  15.672  19.165  0.00  0.00    +0.000 C 
ATOM     34  C   UNL     1      -0.736  16.476  19.051  0.00  0.00    +0.000 C 
ATOM     35  C   UNL     1       0.533  16.710  21.172  0.00  0.00    +0.000 C 
ENDBRANCH  30  32
ENDBRANCH  20  28
ENDBRANCH   1  20
TORSDOF 9
ENDMDL
MODEL 4
REMARK VINA RESULT:      -6.5      1.723      4.001
REMARK  Name = 
REMARK  15 active torsions:
REMARK  status: ('A' for Active; 'I' for Inactive)
REMARK    1  A    between atoms: C_1  and  C_2
REMARK    2  A    between atoms: C_2  and  C_3
REMARK    3  A    between atoms: C_3  and  C_4
REMARK    4  A    between atoms: C_3  and  N_5
REMARK    5  A    between atoms: N_5  and  C_19
REMARK    6  A    between atoms: C_6  and  C_8
REMARK    7  A    between atoms: C_8  and  C_9
REMARK    8  A    between atoms: C_9  and  C_10
REMARK    9  A    between atoms: C_15  and  C_16
REMARK   10  A    between atoms: C_19  and  C_20
REMARK   11  A    between atoms: C_19  and  C_27
REMARK   12  A    between atoms: N_22  and  C_23
REMARK   13  A    between atoms: C_23  and  C_24
REMARK   14  A    between atoms: C_23  and  C_25
REMARK   15  A    between atoms: C_23  and  C_26
REMARK                            x       y       z     vdW  Elec       q    Type
REMARK                         _______ _______ _______ _____ _____    ______ ____
ROOT
ATOM      1  N   UNL     1      -1.457  12.527  21.379  0.00  0.00    +0.000 N 
ATOM      2  C   UNL     1      -0.962  11.266  21.745  0.00  0.00    +0.000 C 
ATOM      3  O   UNL     1      -1.278  10.696  22.786  0.00  0.00    +0.000 OA
ENDROOT
BRANCH   1   4
ATOM      4  C   UNL     1      -2.291  13.292  22.375  0.00  0.00    +0.000 C 
ATOM      5  C   UNL     1      -1.464  13.790  23.570  0.00  0.00    +0.000 C 
BRANCH   4   7
ATOM      6  C   UNL     1      -3.869  12.695  24.333  0.00  0.00    +0.000 C 
ATOM      7  C   UNL     1      -3.532  12.506  22.854  0.00  0.00    +0.000 C 
ENDBRANCH   4   7
ENDBRANCH   1   4
BRANCH   2   8
ATOM      8  C   UNL     1       0.077  10.610  20.832  0.00  0.00    +0.000 C 
BRANCH   8   9
ATOM      9  C   UNL     1       0.828   9.470  21.500  0.00  0.00    +0.000 C 
BRANCH   9  10
ATOM     10  C   UNL     1       1.381   8.529  20.450  0.00  0.00    +0.000 C 
ATOM     11  O   UNL     1       1.470   8.900  19.282  0.00  0.00    +0.000 OA
ATOM     12  N   UNL     1       1.641   7.267  20.939  0.00  0.00    +0.000 N 
ATOM     13  C   UNL     1       2.192   6.253  20.179  0.00  0.00    +0.000 A 
ATOM     14  C   UNL     1       2.253   4.896  20.583  0.00  0.00    +0.000 A 
ATOM     15  C   UNL     1       2.849   4.248  19.529  0.00  0.00    +0.000 A 
ATOM     16  C   UNL     1       3.204   2.851  19.228  0.00  0.00    +0.000 C 
ATOM     17  O   UNL     1       3.156   5.156  18.569  0.00  0.00    +0.000 OA
ATOM     18  N   UNL     1       2.742   6.404  18.971  0.00  0.00    +0.000 NA
ATOM     19  H   UNL     1       1.294   7.019  21.862  0.00  0.00    +0.000 HD
ENDBRANCH   9  10
ENDBRANCH   8   9
ENDBRANCH   2   8
BRANCH   1  20
ATOM     20  C   UNL     1      -1.576  12.885  19.920  0.00  0.00    +0.000 C 
BRANCH  20  21
ATOM     21  C   UNL     1      -2.099  11.764  19.006  0.00  0.00    +0.000 A 
ATOM     22  C   UNL     1      -1.220  10.935  18.286  0.00  0.00    +0.000 A 
ATOM     23  C   UNL     1      -1.705   9.957  17.409  0.00  0.00    +0.000 A 
ATOM     24  C   UNL     1      -3.079   9.791  17.224  0.00  0.00    +0.000 A 
ATOM     25  C   UNL     1      -3.967  10.617  17.903  0.00  0.00    +0.000 A 
ATOM     26  C   UNL     1      -3.486  11.599  18.776  0.00  0.00    +0.000 A 
ATOM     27 CL   UNL     1      -4.666  12.614  19.537  0.00  0.00    +0.000 Cl
ENDBRANCH  20  21
BRANCH  20  28
ATOM     28  C   UNL     1      -0.295  13.466  19.251  0.00  0.00    +0.000 C 
ATOM     29  O   UNL     1      -0.256  13.739  18.052  0.00  0.00    +0.000 OA
ATOM     30  N   UNL     1       0.814  13.559  20.081  0.00  0.00    +0.000 N 
ATOM     31  H   UNL     1       0.697  13.385  21.069  0.00  0.00    +0.000 HD
BRANCH  30  32
ATOM     32  C   UNL     1       2.120  14.061  19.619  0.00  0.00    +0.000 C 
ATOM     33  C   UNL     1       2.018  15.525  19.166  0.00  0.00    +0.000 C 
ATOM     34  C   UNL     1       3.121  13.972  20.786  0.00  0.00    +0.000 C 
ATOM     35  C   UNL     1       2.671  13.203  18.469  0.00  0.00    +0.000 C 
ENDBRANCH  30  32
ENDBRANCH  20  28
ENDBRANCH   1  20
TORSDOF 9
ENDMDL
MODEL 5
REMARK VINA RESULT:      -6.4      1.772      4.112
REMARK  Name = 
REMARK  15 active torsions:
REMARK  status: ('A' for Active; 'I' for Inactive)
REMARK    1  A    between atoms: C_1  and  C_2
REMARK    2  A    between atoms: C_2  and  C_3
REMARK    3  A    between atoms: C_3  and  C_4
REMARK    4  A    between atoms: C_3  and  N_5
REMARK    5  A    between atoms: N_5  and  C_19
REMARK    6  A    between atoms: C_6  and  C_8
REMARK    7  A    between atoms: C_8  and  C_9
REMARK    8  A    between atoms: C_9  and  C_10
REMARK    9  A    between atoms: C_15  and  C_16
REMARK   10  A    between atoms: C_19  and  C_20
REMARK   11  A    between atoms: C_19  and  C_27
REMARK   12  A    between atoms: N_22  and  C_23
REMARK   13  A    between atoms: C_23  and  C_24
REMARK   14  A    between atoms: C_23  and  C_25
REMARK   15  A    between atoms: C_23  and  C_26
REMARK                            x       y       z     vdW  Elec       q    Type
REMARK                         _______ _______ _______ _____ _____    ______ ____
ROOT
ATOM      1  N   UNL     1      -1.227  12.300  21.517  0.00  0.00    +0.000 N 
ATOM      2  C   UNL     1      -0.754  10.999  21.743  0.00  0.00    +0.000 C 
ATOM      3  O   UNL     1      -0.999  10.362  22.765  0.00  0.00    +0.000 OA
ENDROOT
BRANCH   1   4
ATOM      4  C   UNL     1      -1.938  13.015  22.637  0.00  0.00    +0.000 C 
ATOM      5  C   UNL     1      -3.374  12.509  22.836  0.00  0.00    +0.000 C 
BRANCH   4   7
ATOM      6  C   UNL     1      -0.635  15.220  22.989  0.00  0.00    +0.000 C 
ATOM      7  C   UNL     1      -1.914  14.553  22.483  0.00  0.00    +0.000 C 
ENDBRANCH   4   7
ENDBRANCH   1   4
BRANCH   2   8
ATOM      8  C   UNL     1       0.173  10.380  20.694  0.00  0.00    +0.000 C 
BRANCH   8   9
ATOM      9  C   UNL     1       0.980   9.206  21.224  0.00  0.00    +0.000 C 
BRANCH   9  10
ATOM     10  C   UNL     1       1.581   8.429  20.071  0.00  0.00    +0.000 C 
ATOM     11  O   UNL     1       1.565   8.904  18.938  0.00  0.00    +0.000 OA
ATOM     12  N   UNL     1       2.012   7.171  20.434  0.00  0.00    +0.000 N 
ATOM     13  C   UNL     1       2.635   6.297  19.564  0.00  0.00    +0.000 A 
ATOM     14  C   UNL     1       2.874   4.928  19.842  0.00  0.00    +0.000 A 
ATOM     15  C   UNL     1       3.484   4.446  18.710  0.00  0.00    +0.000 A 
ATOM     16  C   UNL     1       3.982   3.132  18.271  0.00  0.00    +0.000 C 
ATOM     17  O   UNL     1       3.633   5.462  17.822  0.00  0.00    +0.000 OA
ATOM     18  N   UNL     1       3.099   6.613  18.352  0.00  0.00    +0.000 NA
ATOM     19  H   UNL     1       1.745   6.807  21.345  0.00  0.00    +0.000 HD
ENDBRANCH   9  10
ENDBRANCH   8   9
ENDBRANCH   2   8
BRANCH   1  20
ATOM     20  C   UNL     1      -1.460  12.772  20.105  0.00  0.00    +0.000 C 
BRANCH  20  21
ATOM     21  C   UNL     1      -2.055  11.725  19.148  0.00  0.00    +0.000 A 
ATOM     22  C   UNL     1      -1.232  10.866  18.397  0.00  0.00    +0.000 A 
ATOM     23  C   UNL     1      -1.779   9.958  17.484  0.00  0.00    +0.000 A 
ATOM     24  C   UNL     1      -3.160   9.893  17.292  0.00  0.00    +0.000 A 
ATOM     25  C   UNL     1      -3.993  10.749  18.002  0.00  0.00    +0.000 A 
ATOM     26  C   UNL     1      -3.449  11.663  18.913  0.00  0.00    +0.000 A 
ATOM     27 CL   UNL     1      -4.560  12.725  19.711  0.00  0.00    +0.000 Cl
ENDBRANCH  20  21
BRANCH  20  28
ATOM     28  C   UNL     1      -0.235  13.411  19.386  0.00  0.00    +0.000 C 
ATOM     29  O   UNL     1      -0.267  13.715  18.194  0.00  0.00    +0.000 OA
ATOM     30  N   UNL     1       0.914  13.518  20.158  0.00  0.00    +0.000 N 
ATOM     31  H   UNL     1       0.855  13.315  21.146  0.00  0.00    +0.000 HD
BRANCH  30  32
ATOM     32  C   UNL     1       2.177  14.073  19.642  0.00  0.00    +0.000 C 
ATOM     33  C   UNL     1       1.999  15.535  19.206  0.00  0.00    +0.000 C 
ATOM     34  C   UNL     1       3.232  14.016  20.763  0.00  0.00    +0.000 C 
ATOM     35  C   UNL     1       2.709  13.245  18.462  0.00  0.00    +0.000 C 
ENDBRANCH  30  32
ENDBRANCH  20  28
ENDBRANCH   1  20
TORSDOF 9
ENDMDL
MODEL 6
REMARK VINA RESULT:      -6.3      1.951      2.625
REMARK  Name = 
REMARK  15 active torsions:
REMARK  status: ('A' for Active; 'I' for Inactive)
REMARK    1  A    between atoms: C_1  and  C_2
REMARK    2  A    between atoms: C_2  and  C_3
REMARK    3  A    between atoms: C_3  and  C_4
REMARK    4  A    between atoms: C_3  and  N_5
REMARK    5  A    between atoms: N_5  and  C_19
REMARK    6  A    between atoms: C_6  and  C_8
REMARK    7  A    between atoms: C_8  and  C_9
REMARK    8  A    between atoms: C_9  and  C_10
REMARK    9  A    between atoms: C_15  and  C_16
REMARK   10  A    between atoms: C_19  and  C_20
REMARK   11  A    between atoms: C_19  and  C_27
REMARK   12  A    between atoms: N_22  and  C_23
REMARK   13  A    between atoms: C_23  and  C_24
REMARK   14  A    between atoms: C_23  and  C_25
REMARK   15  A    between atoms: C_23  and  C_26
REMARK                            x       y       z     vdW  Elec       q    Type
REMARK                         _______ _______ _______ _____ _____    ______ ____
ROOT
ATOM      1  N   UNL     1       0.689  10.654  19.792  0.00  0.00    +0.000 N 
ATOM      2  C   UNL     1       0.947   9.316  19.459  0.00  0.00    +0.000 C 
ATOM      3  O   UNL     1       0.954   8.406  20.284  0.00  0.00    +0.000 OA
ENDROOT
BRANCH   1   4
ATOM      4  C   UNL     1       0.566  11.024  21.248  0.00  0.00    +0.000 C 
ATOM      5  C   UNL     1       1.567  10.264  22.132  0.00  0.00    +0.000 C 
BRANCH   4   7
ATOM      6  C   UNL     1      -1.278  11.928  22.818  0.00  0.00    +0.000 C 
ATOM      7  C   UNL     1      -0.873  10.871  21.791  0.00  0.00    +0.000 C 
ENDBRANCH   4   7
ENDBRANCH   1   4
BRANCH   2   8
ATOM      8  C   UNL     1       1.312   8.996  18.006  0.00  0.00    +0.000 C 
BRANCH   8   9
ATOM      9  C   UNL     1       2.811   8.928  17.765  0.00  0.00    +0.000 C 
BRANCH   9  10
ATOM     10  C   UNL     1       3.258   7.483  17.686  0.00  0.00    +0.000 C 
ATOM     11  O   UNL     1       4.277   7.191  17.066  0.00  0.00    +0.000 OA
ATOM     12  N   UNL     1       2.366   6.609  18.270  0.00  0.00    +0.000 N 
ATOM     13  C   UNL     1       2.580   5.248  18.362  0.00  0.00    +0.000 A 
ATOM     14  C   UNL     1       1.591   4.307  18.741  0.00  0.00    +0.000 A 
ATOM     15  C   UNL     1       2.226   3.091  18.674  0.00  0.00    +0.000 A 
ATOM     16  C   UNL     1       1.826   1.691  18.895  0.00  0.00    +0.000 C 
ATOM     17  O   UNL     1       3.518   3.287  18.312  0.00  0.00    +0.000 OA
ATOM     18  N   UNL     1       3.738   4.630  18.111  0.00  0.00    +0.000 NA
ATOM     19  H   UNL     1       1.446   6.953  18.531  0.00  0.00    +0.000 HD
ENDBRANCH   9  10
ENDBRANCH   8   9
ENDBRANCH   2   8
BRANCH   1  20
ATOM     20  C   UNL     1       0.076  11.571  18.766  0.00  0.00    +0.000 C 
BRANCH  20  21
ATOM     21  C   UNL     1       0.236  13.076  19.045  0.00  0.00    +0.000 A 
ATOM     22  C   UNL     1      -0.843  13.856  19.498  0.00  0.00    +0.000 A 
ATOM     23  C   UNL     1      -0.705  15.235  19.692  0.00  0.00    +0.000 A 
ATOM     24  C   UNL     1       0.511  15.869  19.429  0.00  0.00    +0.000 A 
ATOM     25  C   UNL     1       1.584  15.124  18.954  0.00  0.00    +0.000 A 
ATOM     26  C   UNL     1       1.448  13.745  18.754  0.00  0.00    +0.000 A 
ATOM     27 CL   UNL     1       2.823  12.911  18.111  0.00  0.00    +0.000 Cl
ENDBRANCH  20  21
BRANCH  20  28
ATOM     28  C   UNL     1      -1.425  11.321  18.432  0.00  0.00    +0.000 C 
ATOM     29  O   UNL     1      -2.317  11.536  19.252  0.00  0.00    +0.000 OA
ATOM     30  N   UNL     1      -1.666  10.750  17.190  0.00  0.00    +0.000 N 
ATOM     31  H   UNL     1      -0.898  10.662  16.539  0.00  0.00    +0.000 HD
BRANCH  30  32
ATOM     32  C   UNL     1      -3.019  10.418  16.711  0.00  0.00    +0.000 C 
ATOM     33  C   UNL     1      -3.927  11.656  16.722  0.00  0.00    +0.000 C 
ATOM     34  C   UNL     1      -2.912   9.895  15.265  0.00  0.00    +0.000 C 
ATOM     35  C   UNL     1      -3.653   9.305  17.560  0.00  0.00    +0.000 C 
ENDBRANCH  30  32
ENDBRANCH  20  28
ENDBRANCH   1  20
TORSDOF 9
ENDMDL
MODEL 7
REMARK VINA RESULT:      -6.3      3.688      6.729
REMARK  Name = 
REMARK  15 active torsions:
REMARK  status: ('A' for Active; 'I' for Inactive)
REMARK    1  A    between atoms: C_1  and  C_2
REMARK    2  A    between atoms: C_2  and  C_3
REMARK    3  A    between atoms: C_3  and  C_4
REMARK    4  A    between atoms: C_3  and  N_5
REMARK    5  A    between atoms: N_5  and  C_19
REMARK    6  A    between atoms: C_6  and  C_8
REMARK    7  A    between atoms: C_8  and  C_9
REMARK    8  A    between atoms: C_9  and  C_10
REMARK    9  A    between atoms: C_15  and  C_16
REMARK   10  A    between atoms: C_19  and  C_20
REMARK   11  A    between atoms: C_19  and  C_27
REMARK   12  A    between atoms: N_22  and  C_23
REMARK   13  A    between atoms: C_23  and  C_24
REMARK   14  A    between atoms: C_23  and  C_25
REMARK   15  A    between atoms: C_23  and  C_26
REMARK                            x       y       z     vdW  Elec       q    Type
REMARK                         _______ _______ _______ _____ _____    ______ ____
ROOT
ATOM      1  N   UNL     1      -5.060  12.511  19.321  0.00  0.00    +0.000 N 
ATOM      2  C   UNL     1      -3.822  12.099  18.804  0.00  0.00    +0.000 C 
ATOM      3  O   UNL     1      -3.677  11.681  17.658  0.00  0.00    +0.000 OA
ENDROOT
BRANCH   1   4
ATOM      4  C   UNL     1      -6.299  12.288  18.492  0.00  0.00    +0.000 C 
ATOM      5  C   UNL     1      -6.747  10.818  18.494  0.00  0.00    +0.000 C 
BRANCH   4   7
ATOM      6  C   UNL     1      -7.179  13.895  16.669  0.00  0.00    +0.000 C 
ATOM      7  C   UNL     1      -6.162  12.818  17.047  0.00  0.00    +0.000 C 
ENDBRANCH   4   7
ENDBRANCH   1   4
BRANCH   2   8
ATOM      8  C   UNL     1      -2.614  12.104  19.745  0.00  0.00    +0.000 C 
BRANCH   8   9
ATOM      9  C   UNL     1      -1.286  12.219  19.015  0.00  0.00    +0.000 C 
BRANCH   9  10
ATOM     10  C   UNL     1      -0.343  11.129  19.480  0.00  0.00    +0.000 C 
ATOM     11  O   UNL     1      -0.117  10.986  20.679  0.00  0.00    +0.000 OA
ATOM     12  N   UNL     1       0.256  10.452  18.440  0.00  0.00    +0.000 N 
ATOM     13  C   UNL     1       1.118   9.387  18.617  0.00  0.00    +0.000 A 
ATOM     14  C   UNL     1       1.921   8.830  17.591  0.00  0.00    +0.000 A 
ATOM     15  C   UNL     1       2.625   7.826  18.210  0.00  0.00    +0.000 A 
ATOM     16  C   UNL     1       3.651   6.858  17.788  0.00  0.00    +0.000 C 
ATOM     17  O   UNL     1       2.248   7.759  19.512  0.00  0.00    +0.000 OA
ATOM     18  N   UNL     1       1.314   8.736  19.768  0.00  0.00    +0.000 NA
ATOM     19  H   UNL     1       0.172  10.829  17.499  0.00  0.00    +0.000 HD
ENDBRANCH   9  10
ENDBRANCH   8   9
ENDBRANCH   2   8
BRANCH   1  20
ATOM     20  C   UNL     1      -5.102  13.556  20.405  0.00  0.00    +0.000 C 
BRANCH  20  21
ATOM     21  C   UNL     1      -5.699  13.094  21.746  0.00  0.00    +0.000 A 
ATOM     22  C   UNL     1      -7.018  12.613  21.834  0.00  0.00    +0.000 A 
ATOM     23  C   UNL     1      -7.574  12.252  23.067  0.00  0.00    +0.000 A 
ATOM     24  C   UNL     1      -6.829  12.372  24.241  0.00  0.00    +0.000 A 
ATOM     25  C   UNL     1      -5.533  12.871  24.183  0.00  0.00    +0.000 A 
ATOM     26  C   UNL     1      -4.975  13.238  22.952  0.00  0.00    +0.000 A 
ATOM     27 CL   UNL     1      -3.374  13.898  22.987  0.00  0.00    +0.000 Cl
ENDBRANCH  20  21
BRANCH  20  28
ATOM     28  C   UNL     1      -5.793  14.902  20.032  0.00  0.00    +0.000 C 
ATOM     29  O   UNL     1      -7.016  15.003  19.948  0.00  0.00    +0.000 OA
ATOM     30  N   UNL     1      -4.928  15.939  19.708  0.00  0.00    +0.000 N 
ATOM     31  H   UNL     1      -3.938  15.812  19.863  0.00  0.00    +0.000 HD
BRANCH  30  32
ATOM     32  C   UNL     1      -5.397  17.276  19.306  0.00  0.00    +0.000 C 
ATOM     33  C   UNL     1      -6.353  17.188  18.107  0.00  0.00    +0.000 C 
ATOM     34  C   UNL     1      -6.148  17.910  20.493  0.00  0.00    +0.000 C 
ATOM     35  C   UNL     1      -4.218  18.199  18.958  0.00  0.00    +0.000 C 
ENDBRANCH  30  32
ENDBRANCH  20  28
ENDBRANCH   1  20
TORSDOF 9
ENDMDL
MODEL 8
REMARK VINA RESULT:      -6.3      1.279      1.665
REMARK  Name = 
REMARK  15 active torsions:
REMARK  status: ('A' for Active; 'I' for Inactive)
REMARK    1  A    between atoms: C_1  and  C_2
REMARK    2  A    between atoms: C_2  and  C_3
REMARK    3  A    between atoms: C_3  and  C_4
REMARK    4  A    between atoms: C_3  and  N_5
REMARK    5  A    between atoms: N_5  and  C_19
REMARK    6  A    between atoms: C_6  and  C_8
REMARK    7  A    between atoms: C_8  and  C_9
REMARK    8  A    between atoms: C_9  and  C_10
REMARK    9  A    between atoms: C_15  and  C_16
REMARK   10  A    between atoms: C_19  and  C_20
REMARK   11  A    between atoms: C_19  and  C_27
REMARK   12  A    between atoms: N_22  and  C_23
REMARK   13  A    between atoms: C_23  and  C_24
REMARK   14  A    between atoms: C_23  and  C_25
REMARK   15  A    between atoms: C_23  and  C_26
REMARK                            x       y       z     vdW  Elec       q    Type
REMARK                         _______ _______ _______ _____ _____    ______ ____
ROOT
ATOM      1  N   UNL     1      -0.490  12.061  21.534  0.00  0.00    +0.000 N 
ATOM      2  C   UNL     1      -0.284  10.824  22.163  0.00  0.00    +0.000 C 
ATOM      3  O   UNL     1      -1.029  10.379  23.033  0.00  0.00    +0.000 OA
ENDROOT
BRANCH   1   4
ATOM      4  C   UNL     1      -1.582  12.962  22.052  0.00  0.00    +0.000 C 
ATOM      5  C   UNL     1      -1.207  13.629  23.385  0.00  0.00    +0.000 C 
BRANCH   4   7
ATOM      6  C   UNL     1      -4.125  13.054  21.599  0.00  0.00    +0.000 C 
ATOM      7  C   UNL     1      -2.951  12.252  22.160  0.00  0.00    +0.000 C 
ENDBRANCH   4   7
ENDBRANCH   1   4
BRANCH   2   8
ATOM      8  C   UNL     1       0.972  10.031  21.793  0.00  0.00    +0.000 C 
BRANCH   8   9
ATOM      9  C   UNL     1       0.775   8.526  21.868  0.00  0.00    +0.000 C 
BRANCH   9  10
ATOM     10  C   UNL     1       1.477   7.854  20.705  0.00  0.00    +0.000 C 
ATOM     11  O   UNL     1       1.720   8.494  19.685  0.00  0.00    +0.000 OA
ATOM     12  N   UNL     1       1.683   6.506  20.905  0.00  0.00    +0.000 N 
ATOM     13  C   UNL     1       2.344   5.693  20.004  0.00  0.00    +0.000 A 
ATOM     14  C   UNL     1       2.365   4.278  20.071  0.00  0.00    +0.000 A 
ATOM     15  C   UNL     1       3.107   3.891  18.982  0.00  0.00    +0.000 A 
ATOM     16  C   UNL     1       3.515   2.600  18.403  0.00  0.00    +0.000 C 
ATOM     17  O   UNL     1       3.531   4.997  18.321  0.00  0.00    +0.000 OA
ATOM     18  N   UNL     1       3.051   6.120  18.954  0.00  0.00    +0.000 NA
ATOM     19  H   UNL     1       1.216   6.051  21.685  0.00  0.00    +0.000 HD
ENDBRANCH   9  10
ENDBRANCH   8   9
ENDBRANCH   2   8
BRANCH   1  20
ATOM     20  C   UNL     1       0.003  12.271  20.126  0.00  0.00    +0.000 C 
BRANCH  20  21
ATOM     21  C   UNL     1       0.107  13.738  19.674  0.00  0.00    +0.000 A 
ATOM     22  C   UNL     1      -0.973  14.628  19.818  0.00  0.00    +0.000 A 
ATOM     23  C   UNL     1      -0.891  15.944  19.349  0.00  0.00    +0.000 A 
ATOM     24  C   UNL     1       0.267  16.399  18.717  0.00  0.00    +0.000 A 
ATOM     25  C   UNL     1       1.338  15.531  18.538  0.00  0.00    +0.000 A 
ATOM     26  C   UNL     1       1.258  14.212  19.001  0.00  0.00    +0.000 A 
ATOM     27 CL   UNL     1       2.621  13.190  18.686  0.00  0.00    +0.000 Cl
ENDBRANCH  20  21
BRANCH  20  28
ATOM     28  C   UNL     1      -0.761  11.497  19.010  0.00  0.00    +0.000 C 
ATOM     29  O   UNL     1      -0.188  10.715  18.253  0.00  0.00    +0.000 OA
ATOM     30  N   UNL     1      -2.102  11.830  18.874  0.00  0.00    +0.000 N 
ATOM     31  H   UNL     1      -2.527  12.426  19.570  0.00  0.00    +0.000 HD
BRANCH  30  32
ATOM     32  C   UNL     1      -2.978  11.222  17.858  0.00  0.00    +0.000 C 
ATOM     33  C   UNL     1      -2.454  11.498  16.441  0.00  0.00    +0.000 C 
ATOM     34  C   UNL     1      -3.009   9.698  18.086  0.00  0.00    +0.000 C 
ATOM     35  C   UNL     1      -4.420  11.739  17.984  0.00  0.00    +0.000 C 
ENDBRANCH  30  32
ENDBRANCH  20  28
ENDBRANCH   1  20
TORSDOF 9
ENDMDL
MODEL 9
REMARK VINA RESULT:      -6.2      1.582      4.155
REMARK  Name = 
REMARK  15 active torsions:
REMARK  status: ('A' for Active; 'I' for Inactive)
REMARK    1  A    between atoms: C_1  and  C_2
REMARK    2  A    between atoms: C_2  and  C_3
REMARK    3  A    between atoms: C_3  and  C_4
REMARK    4  A    between atoms: C_3  and  N_5
REMARK    5  A    between atoms: N_5  and  C_19
REMARK    6  A    between atoms: C_6  and  C_8
REMARK    7  A    between atoms: C_8  and  C_9
REMARK    8  A    between atoms: C_9  and  C_10
REMARK    9  A    between atoms: C_15  and  C_16
REMARK   10  A    between atoms: C_19  and  C_20
REMARK   11  A    between atoms: C_19  and  C_27
REMARK   12  A    between atoms: N_22  and  C_23
REMARK   13  A    between atoms: C_23  and  C_24
REMARK   14  A    between atoms: C_23  and  C_25
REMARK   15  A    between atoms: C_23  and  C_26
REMARK                            x       y       z     vdW  Elec       q    Type
REMARK                         _______ _______ _______ _____ _____    ______ ____
ROOT
ATOM      1  N   UNL     1      -0.478  11.806  19.795  0.00  0.00    +0.000 N 
ATOM      2  C   UNL     1       0.355  11.234  20.768  0.00  0.00    +0.000 C 
ATOM      3  O   UNL     1       1.353  11.795  21.214  0.00  0.00    +0.000 OA
ENDROOT
BRANCH   1   4
ATOM      4  C   UNL     1      -0.052  13.100  19.150  0.00  0.00    +0.000 C 
ATOM      5  C   UNL     1       1.185  12.928  18.255  0.00  0.00    +0.000 C 
BRANCH   4   7
ATOM      6  C   UNL     1       1.314  15.186  19.829  0.00  0.00    +0.000 C 
ATOM      7  C   UNL     1       0.162  14.242  20.169  0.00  0.00    +0.000 C 
ENDBRANCH   4   7
ENDBRANCH   1   4
BRANCH   2   8
ATOM      8  C   UNL     1       0.040   9.810  21.235  0.00  0.00    +0.000 C 
BRANCH   8   9
ATOM      9  C   UNL     1       1.270   9.043  21.693  0.00  0.00    +0.000 C 
BRANCH   9  10
ATOM     10  C   UNL     1       1.647   8.003  20.658  0.00  0.00    +0.000 C 
ATOM     11  O   UNL     1       2.017   8.358  19.542  0.00  0.00    +0.000 OA
ATOM     12  N   UNL     1       1.425   6.712  21.084  0.00  0.00    +0.000 N 
ATOM     13  C   UNL     1       1.735   5.595  20.332  0.00  0.00    +0.000 A 
ATOM     14  C   UNL     1       1.309   4.280  20.640  0.00  0.00    +0.000 A 
ATOM     15  C   UNL     1       1.820   3.504  19.628  0.00  0.00    +0.000 A 
ATOM     16  C   UNL     1       1.759   2.076  19.276  0.00  0.00    +0.000 C 
ATOM     17  O   UNL     1       2.532   4.292  18.784  0.00  0.00    +0.000 OA
ATOM     18  N   UNL     1       2.475   5.596  19.219  0.00  0.00    +0.000 NA
ATOM     19  H   UNL     1       0.887   6.563  21.934  0.00  0.00    +0.000 HD
ENDBRANCH   9  10
ENDBRANCH   8   9
ENDBRANCH   2   8
BRANCH   1  20
ATOM     20  C   UNL     1      -1.937  11.430  19.751  0.00  0.00    +0.000 C 
BRANCH  20  21
ATOM     21  C   UNL     1      -2.526  11.234  18.343  0.00  0.00    +0.000 A 
ATOM     22  C   UNL     1      -3.775  11.774  17.989  0.00  0.00    +0.000 A 
ATOM     23  C   UNL     1      -4.332  11.540  16.727  0.00  0.00    +0.000 A 
ATOM     24  C   UNL     1      -3.658  10.754  15.791  0.00  0.00    +0.000 A 
ATOM     25  C   UNL     1      -2.434  10.186  16.126  0.00  0.00    +0.000 A 
ATOM     26  C   UNL     1      -1.877  10.413  17.391  0.00  0.00    +0.000 A 
ATOM     27 CL   UNL     1      -0.375   9.622  17.735  0.00  0.00    +0.000 Cl
ENDBRANCH  20  21
BRANCH  20  28
ATOM     28  C   UNL     1      -2.908  12.364  20.532  0.00  0.00    +0.000 C 
ATOM     29  O   UNL     1      -3.949  12.785  20.029  0.00  0.00    +0.000 OA
ATOM     30  N   UNL     1      -2.465  12.760  21.787  0.00  0.00    +0.000 N 
ATOM     31  H   UNL     1      -1.637  12.326  22.169  0.00  0.00    +0.000 HD
BRANCH  30  32
ATOM     32  C   UNL     1      -3.237  13.661  22.660  0.00  0.00    +0.000 C 
ATOM     33  C   UNL     1      -4.536  12.992  23.132  0.00  0.00    +0.000 C 
ATOM     34  C   UNL     1      -2.379  14.002  23.894  0.00  0.00    +0.000 C 
ATOM     35  C   UNL     1      -3.567  14.981  21.946  0.00  0.00    +0.000 C 
ENDBRANCH  30  32
ENDBRANCH  20  28
ENDBRANCH   1  20
TORSDOF 9
ENDMDL
