MODEL 1
REMARK VINA RESULT:      -8.0      0.000      0.000
REMARK  Name = 
REMARK  4 active torsions:
REMARK  status: ('A' for Active; 'I' for Inactive)
REMARK    1  A    between atoms: C_1  and  C_2
REMARK    2  A    between atoms: C_2  and  C_3
REMARK    3  A    between atoms: C_2  and  C_4
REMARK    4  A    between atoms: C_10  and  C_11
REMARK                            x       y       z     vdW  Elec       q    Type
REMARK                         _______ _______ _______ _____ _____    ______ ____
ROOT
ATOM      1  C   UNL     1       2.181   6.889  19.366  0.00  0.00    +0.000 C 
ATOM      2  O   UNL     1       2.194   7.526  20.425  0.00  0.00    +0.000 OA
ATOM      3  N   UNL     1       1.994   5.508  19.352  0.00  0.00    +0.000 N 
ATOM      4  C   UNL     1       1.684   4.831  20.611  0.00  0.00    +0.000 C 
ATOM      5  C   UNL     1       2.586   3.625  20.867  0.00  0.00    +0.000 C 
ATOM      6  C   UNL     1       2.631   2.682  19.662  0.00  0.00    +0.000 C 
ATOM      7  C   UNL     1       2.993   3.420  18.368  0.00  0.00    +0.000 C 
ATOM      8  C   UNL     1       2.058   4.637  18.172  0.00  0.00    +0.000 C 
ENDROOT
BRANCH   7   9
ATOM      9  C   UNL     1       4.446   3.813  18.339  0.00  0.00    +0.000 A 
ATOM     10  N   UNL     1       5.228   3.986  19.389  0.00  0.00    +0.000 NA
ATOM     11  N   UNL     1       6.470   4.382  18.957  0.00  0.00    +0.000 NA
ATOM     12  C   UNL     1       6.434   4.448  17.647  0.00  0.00    +0.000 A 
ATOM     13  C   UNL     1       7.402   4.830  16.680  0.00  0.00    +0.000 A 
ATOM     14  C   UNL     1       7.086   4.797  15.372  0.00  0.00    +0.000 A 
ATOM     15  C   UNL     1       5.772   4.358  14.923  0.00  0.00    +0.000 A 
ATOM     16  C   UNL     1       4.849   4.007  15.836  0.00  0.00    +0.000 A 
ATOM     17  N   UNL     1       5.177   4.069  17.192  0.00  0.00    +0.000 N 
ENDBRANCH   7   9
BRANCH   1  19
ATOM     18  C   UNL     1       1.716   9.074  18.277  0.00  0.00    +0.000 C 
ATOM     19  C   UNL     1       2.216   7.648  18.033  0.00  0.00    +0.000 C 
ATOM     20  C   UNL     1       3.624   7.691  17.439  0.00  0.00    +0.000 C 
ENDBRANCH   1  19
TORSDOF 2
ENDMDL
MODEL 2
REMARK VINA RESULT:      -7.3      2.264      5.683
REMARK  Name = 
REMARK  4 active torsions:
REMARK  status: ('A' for Active; 'I' for Inactive)
REMARK    1  A    between atoms: C_1  and  C_2
REMARK    2  A    between atoms: C_2  and  C_3
REMARK    3  A    between atoms: C_2  and  C_4
REMARK    4  A    between atoms: C_10  and  C_11
REMARK                            x       y       z     vdW  Elec       q    Type
REMARK                         _______ _______ _______ _____ _____    ______ ____
ROOT
ATOM      1  C   UNL     1       4.933   4.601  17.293  0.00  0.00    +0.000 C 
ATOM      2  O   UNL     1       4.783   4.102  16.172  0.00  0.00    +0.000 OA
ATOM      3  N   UNL     1       4.027   4.354  18.324  0.00  0.00    +0.000 N 
ATOM      4  C   UNL     1       2.955   3.386  18.097  0.00  0.00    +0.000 C 
ATOM      5  C   UNL     1       1.579   3.935  18.468  0.00  0.00    +0.000 C 
ATOM      6  C   UNL     1       1.568   4.538  19.875  0.00  0.00    +0.000 C 
ATOM      7  C   UNL     1       2.683   5.573  20.066  0.00  0.00    +0.000 C 
ATOM      8  C   UNL     1       4.046   4.965  19.659  0.00  0.00    +0.000 C 
ENDROOT
BRANCH   7   9
ATOM      9  C   UNL     1       2.390   6.850  19.324  0.00  0.00    +0.000 A 
ATOM     10  N   UNL     1       2.729   7.123  18.077  0.00  0.00    +0.000 NA
ATOM     11  N   UNL     1       2.325   8.400  17.777  0.00  0.00    +0.000 NA
ATOM     12  C   UNL     1       1.743   8.895  18.843  0.00  0.00    +0.000 A 
ATOM     13  C   UNL     1       1.173  10.167  19.121  0.00  0.00    +0.000 A 
ATOM     14  C   UNL     1       0.628  10.404  20.329  0.00  0.00    +0.000 A 
ATOM     15  C   UNL     1       0.594   9.373  21.358  0.00  0.00    +0.000 A 
ATOM     16  C   UNL     1       1.144   8.172  21.102  0.00  0.00    +0.000 A 
ATOM     17  N   UNL     1       1.729   7.944  19.855  0.00  0.00    +0.000 N 
ENDBRANCH   7   9
BRANCH   1  19
ATOM     18  C   UNL     1       7.406   4.587  17.051  0.00  0.00    +0.000 C 
ATOM     19  C   UNL     1       6.218   5.379  17.604  0.00  0.00    +0.000 C 
ATOM     20  C   UNL     1       6.199   6.778  16.986  0.00  0.00    +0.000 C 
ENDBRANCH   1  19
TORSDOF 2
ENDMDL
MODEL 3
REMARK VINA RESULT:      -7.3      2.554      5.563
REMARK  Name = 
REMARK  4 active torsions:
REMARK  status: ('A' for Active; 'I' for Inactive)
REMARK    1  A    between atoms: C_1  and  C_2
REMARK    2  A    between atoms: C_2  and  C_3
REMARK    3  A    between atoms: C_2  and  C_4
REMARK    4  A    between atoms: C_10  and  C_11
REMARK                            x       y       z     vdW  Elec       q    Type
REMARK                         _______ _______ _______ _____ _____    ______ ____
ROOT
ATOM      1  C   UNL     1       6.880   4.793  15.897  0.00  0.00    +0.000 C 
ATOM      2  O   UNL     1       7.854   4.070  16.136  0.00  0.00    +0.000 OA
ATOM      3  N   UNL     1       6.303   5.583  16.890  0.00  0.00    +0.000 N 
ATOM      4  C   UNL     1       6.949   5.643  18.201  0.00  0.00    +0.000 C 
ATOM      5  C   UNL     1       5.975   5.380  19.348  0.00  0.00    +0.000 C 
ATOM      6  C   UNL     1       4.724   6.255  19.244  0.00  0.00    +0.000 C 
ATOM      7  C   UNL     1       4.054   6.140  17.869  0.00  0.00    +0.000 C 
ATOM      8  C   UNL     1       5.091   6.400  16.751  0.00  0.00    +0.000 C 
ENDROOT
BRANCH   7   9
ATOM      9  C   UNL     1       3.358   4.817  17.698  0.00  0.00    +0.000 A 
ATOM     10  N   UNL     1       3.490   3.993  16.674  0.00  0.00    +0.000 NA
ATOM     11  N   UNL     1       2.662   2.914  16.863  0.00  0.00    +0.000 NA
ATOM     12  C   UNL     1       2.033   3.089  18.000  0.00  0.00    +0.000 A 
ATOM     13  C   UNL     1       1.043   2.324  18.676  0.00  0.00    +0.000 A 
ATOM     14  C   UNL     1       0.566   2.750  19.860  0.00  0.00    +0.000 A 
ATOM     15  C   UNL     1       1.056   3.975  20.477  0.00  0.00    +0.000 A 
ATOM     16  C   UNL     1       1.984   4.708  19.834  0.00  0.00    +0.000 A 
ATOM     17  N   UNL     1       2.455   4.272  18.594  0.00  0.00    +0.000 N 
ENDBRANCH   7   9
BRANCH   1  19
ATOM     18  C   UNL     1       7.605   5.233  13.562  0.00  0.00    +0.000 C 
ATOM     19  C   UNL     1       6.393   4.943  14.450  0.00  0.00    +0.000 C 
ATOM     20  C   UNL     1       5.681   3.683  13.956  0.00  0.00    +0.000 C 
ENDBRANCH   1  19
TORSDOF 2
ENDMDL
MODEL 4
REMARK VINA RESULT:      -6.9      1.094      1.313
REMARK  Name = 
REMARK  4 active torsions:
REMARK  status: ('A' for Active; 'I' for Inactive)
REMARK    1  A    between atoms: C_1  and  C_2
REMARK    2  A    between atoms: C_2  and  C_3
REMARK    3  A    between atoms: C_2  and  C_4
REMARK    4  A    between atoms: C_10  and  C_11
REMARK                            x       y       z     vdW  Elec       q    Type
REMARK                         _______ _______ _______ _____ _____    ______ ____
ROOT
ATOM      1  C   UNL     1       1.831   5.627  20.001  0.00  0.00    +0.000 C 
ATOM      2  O   UNL     1       1.794   5.544  21.234  0.00  0.00    +0.000 OA
ATOM      3  N   UNL     1       1.702   4.498  19.194  0.00  0.00    +0.000 N 
ATOM      4  C   UNL     1       1.393   3.216  19.827  0.00  0.00    +0.000 C 
ATOM      5  C   UNL     1       2.340   2.100  19.386  0.00  0.00    +0.000 C 
ATOM      6  C   UNL     1       2.450   2.017  17.862  0.00  0.00    +0.000 C 
ATOM      7  C   UNL     1       2.808   3.370  17.236  0.00  0.00    +0.000 C 
ATOM      8  C   UNL     1       1.827   4.460  17.732  0.00  0.00    +0.000 C 
ENDROOT
BRANCH   7   9
ATOM      9  C   UNL     1       4.243   3.742  17.497  0.00  0.00    +0.000 A 
ATOM     10  N   UNL     1       4.829   3.808  18.679  0.00  0.00    +0.000 NA
ATOM     11  N   UNL     1       6.127   4.222  18.508  0.00  0.00    +0.000 NA
ATOM     12  C   UNL     1       6.322   4.404  17.223  0.00  0.00    +0.000 A 
ATOM     13  C   UNL     1       7.444   4.856  16.478  0.00  0.00    +0.000 A 
ATOM     14  C   UNL     1       7.363   4.944  15.138  0.00  0.00    +0.000 A 
ATOM     15  C   UNL     1       6.148   4.567  14.428  0.00  0.00    +0.000 A 
ATOM     16  C   UNL     1       5.079   4.151  15.131  0.00  0.00    +0.000 A 
ATOM     17  N   UNL     1       5.165   4.087  16.523  0.00  0.00    +0.000 N 
ENDBRANCH   7   9
BRANCH   1  19
ATOM     18  C   UNL     1       1.688   8.069  20.436  0.00  0.00    +0.000 C 
ATOM     19  C   UNL     1       1.861   7.012  19.343  0.00  0.00    +0.000 C 
ATOM     20  C   UNL     1       3.172   7.256  18.593  0.00  0.00    +0.000 C 
ENDBRANCH   1  19
TORSDOF 2
ENDMDL
MODEL 5
REMARK VINA RESULT:      -6.5      2.090      5.787
REMARK  Name = 
REMARK  4 active torsions:
REMARK  status: ('A' for Active; 'I' for Inactive)
REMARK    1  A    between atoms: C_1  and  C_2
REMARK    2  A    between atoms: C_2  and  C_3
REMARK    3  A    between atoms: C_2  and  C_4
REMARK    4  A    between atoms: C_10  and  C_11
REMARK                            x       y       z     vdW  Elec       q    Type
REMARK                         _______ _______ _______ _____ _____    ______ ____
ROOT
ATOM      1  C   UNL     1       4.382   3.208  19.163  0.00  0.00    +0.000 C 
ATOM      2  O   UNL     1       5.230   2.854  19.990  0.00  0.00    +0.000 OA
ATOM      3  N   UNL     1       4.641   4.230  18.250  0.00  0.00    +0.000 N 
ATOM      4  C   UNL     1       5.988   4.799  18.200  0.00  0.00    +0.000 C 
ATOM      5  C   UNL     1       5.983   6.325  18.271  0.00  0.00    +0.000 C 
ATOM      6  C   UNL     1       5.023   6.939  17.250  0.00  0.00    +0.000 C 
ATOM      7  C   UNL     1       3.614   6.344  17.355  0.00  0.00    +0.000 C 
ATOM      8  C   UNL     1       3.685   4.800  17.293  0.00  0.00    +0.000 C 
ENDROOT
BRANCH   7   9
ATOM      9  C   UNL     1       2.895   6.828  18.586  0.00  0.00    +0.000 A 
ATOM     10  N   UNL     1       2.740   6.157  19.713  0.00  0.00    +0.000 NA
ATOM     11  N   UNL     1       1.993   6.914  20.581  0.00  0.00    +0.000 NA
ATOM     12  C   UNL     1       1.701   8.041  19.977  0.00  0.00    +0.000 A 
ATOM     13  C   UNL     1       0.934   9.171  20.373  0.00  0.00    +0.000 A 
ATOM     14  C   UNL     1       0.801  10.214  19.532  0.00  0.00    +0.000 A 
ATOM     15  C   UNL     1       1.444  10.218  18.226  0.00  0.00    +0.000 A 
ATOM     16  C   UNL     1       2.161   9.145  17.842  0.00  0.00    +0.000 A 
ATOM     17  N   UNL     1       2.272   8.058  18.711  0.00  0.00    +0.000 N 
ENDBRANCH   7   9
BRANCH   1  19
ATOM     18  C   UNL     1       3.434   0.972  18.636  0.00  0.00    +0.000 C 
ATOM     19  C   UNL     1       3.080   2.407  19.032  0.00  0.00    +0.000 C 
ATOM     20  C   UNL     1       2.283   2.400  20.338  0.00  0.00    +0.000 C 
ENDBRANCH   1  19
TORSDOF 2
ENDMDL
MODEL 6
REMARK VINA RESULT:      -6.4      2.311      5.983
REMARK  Name = 
REMARK  4 active torsions:
REMARK  status: ('A' for Active; 'I' for Inactive)
REMARK    1  A    between atoms: C_1  and  C_2
REMARK    2  A    between atoms: C_2  and  C_3
REMARK    3  A    between atoms: C_2  and  C_4
REMARK    4  A    between atoms: C_10  and  C_11
REMARK                            x       y       z     vdW  Elec       q    Type
REMARK                         _______ _______ _______ _____ _____    ______ ____
ROOT
ATOM      1  C   UNL     1       3.030   3.554  19.730  0.00  0.00    +0.000 C 
ATOM      2  O   UNL     1       3.922   3.101  20.457  0.00  0.00    +0.000 OA
ATOM      3  N   UNL     1       3.316   4.453  18.705  0.00  0.00    +0.000 N 
ATOM      4  C   UNL     1       4.716   4.762  18.415  0.00  0.00    +0.000 C 
ATOM      5  C   UNL     1       4.986   6.265  18.352  0.00  0.00    +0.000 C 
ATOM      6  C   UNL     1       3.999   6.981  17.427  0.00  0.00    +0.000 C 
ATOM      7  C   UNL     1       2.542   6.661  17.782  0.00  0.00    +0.000 C 
ATOM      8  C   UNL     1       2.336   5.130  17.846  0.00  0.00    +0.000 C 
ENDROOT
BRANCH   7   9
ATOM      9  C   UNL     1       2.117   7.343  19.055  0.00  0.00    +0.000 A 
ATOM     10  N   UNL     1       2.062   6.791  20.254  0.00  0.00    +0.000 NA
ATOM     11  N   UNL     1       1.587   7.719  21.148  0.00  0.00    +0.000 NA
ATOM     12  C   UNL     1       1.356   8.828  20.487  0.00  0.00    +0.000 A 
ATOM     13  C   UNL     1       0.832  10.088  20.882  0.00  0.00    +0.000 A 
ATOM     14  C   UNL     1       0.705  11.072  19.972  0.00  0.00    +0.000 A 
ATOM     15  C   UNL     1       1.111  10.878  18.587  0.00  0.00    +0.000 A 
ATOM     16  C   UNL     1       1.597   9.682  18.207  0.00  0.00    +0.000 A 
ATOM     17  N   UNL     1       1.701   8.659  19.152  0.00  0.00    +0.000 N 
ENDBRANCH   7   9
BRANCH   1  19
ATOM     18  C   UNL     1       1.501   1.741  18.990  0.00  0.00    +0.000 C 
ATOM     19  C   UNL     1       1.605   2.998  19.856  0.00  0.00    +0.000 C 
ATOM     20  C   UNL     1       1.253   2.658  21.305  0.00  0.00    +0.000 C 
ENDBRANCH   1  19
TORSDOF 2
ENDMDL
MODEL 7
REMARK VINA RESULT:      -6.4      2.316      5.499
REMARK  Name = 
REMARK  4 active torsions:
REMARK  status: ('A' for Active; 'I' for Inactive)
REMARK    1  A    between atoms: C_1  and  C_2
REMARK    2  A    between atoms: C_2  and  C_3
REMARK    3  A    between atoms: C_2  and  C_4
REMARK    4  A    between atoms: C_10  and  C_11
REMARK                            x       y       z     vdW  Elec       q    Type
REMARK                         _______ _______ _______ _____ _____    ______ ____
ROOT
ATOM      1  C   UNL     1       5.827   4.784  16.981  0.00  0.00    +0.000 C 
ATOM      2  O   UNL     1       5.794   4.259  15.862  0.00  0.00    +0.000 OA
ATOM      3  N   UNL     1       4.898   4.452  17.966  0.00  0.00    +0.000 N 
ATOM      4  C   UNL     1       3.951   3.370  17.699  0.00  0.00    +0.000 C 
ATOM      5  C   UNL     1       2.505   3.771  17.986  0.00  0.00    +0.000 C 
ATOM      6  C   UNL     1       2.351   4.386  19.379  0.00  0.00    +0.000 C 
ATOM      7  C   UNL     1       3.336   5.539  19.611  0.00  0.00    +0.000 C 
ATOM      8  C   UNL     1       4.777   5.078  19.289  0.00  0.00    +0.000 C 
ENDROOT
BRANCH   7   9
ATOM      9  C   UNL     1       2.948   6.767  18.832  0.00  0.00    +0.000 A 
ATOM     10  N   UNL     1       3.316   7.056  17.597  0.00  0.00    +0.000 NA
ATOM     11  N   UNL     1       2.797   8.280  17.254  0.00  0.00    +0.000 NA
ATOM     12  C   UNL     1       2.115   8.726  18.282  0.00  0.00    +0.000 A 
ATOM     13  C   UNL     1       1.403   9.935  18.508  0.00  0.00    +0.000 A 
ATOM     14  C   UNL     1       0.778  10.130  19.684  0.00  0.00    +0.000 A 
ATOM     15  C   UNL     1       0.802   9.117  20.730  0.00  0.00    +0.000 A 
ATOM     16  C   UNL     1       1.485   7.976  20.524  0.00  0.00    +0.000 A 
ATOM     17  N   UNL     1       2.151   7.793  19.310  0.00  0.00    +0.000 N 
ENDBRANCH   7   9
BRANCH   1  19
ATOM     18  C   UNL     1       6.549   7.154  17.179  0.00  0.00    +0.000 C 
ATOM     19  C   UNL     1       7.002   5.702  17.346  0.00  0.00    +0.000 C 
ATOM     20  C   UNL     1       7.478   5.472  18.781  0.00  0.00    +0.000 C 
ENDBRANCH   1  19
TORSDOF 2
ENDMDL
MODEL 8
REMARK VINA RESULT:      -6.3      1.814      4.570
REMARK  Name = 
REMARK  4 active torsions:
REMARK  status: ('A' for Active; 'I' for Inactive)
REMARK    1  A    between atoms: C_1  and  C_2
REMARK    2  A    between atoms: C_2  and  C_3
REMARK    3  A    between atoms: C_2  and  C_4
REMARK    4  A    between atoms: C_10  and  C_11
REMARK                            x       y       z     vdW  Elec       q    Type
REMARK                         _______ _______ _______ _____ _____    ______ ____
ROOT
ATOM      1  C   UNL     1       3.003   7.577  17.963  0.00  0.00    +0.000 C 
ATOM      2  O   UNL     1       2.458   8.183  17.033  0.00  0.00    +0.000 OA
ATOM      3  N   UNL     1       4.170   6.841  17.765  0.00  0.00    +0.000 N 
ATOM      4  C   UNL     1       4.820   6.898  16.456  0.00  0.00    +0.000 C 
ATOM      5  C   UNL     1       5.130   5.511  15.893  0.00  0.00    +0.000 C 
ATOM      6  C   UNL     1       5.874   4.640  16.907  0.00  0.00    +0.000 C 
ATOM      7  C   UNL     1       5.147   4.575  18.255  0.00  0.00    +0.000 C 
ATOM      8  C   UNL     1       4.847   6.005  18.764  0.00  0.00    +0.000 C 
ENDROOT
BRANCH   7   9
ATOM      9  C   UNL     1       3.904   3.731  18.177  0.00  0.00    +0.000 A 
ATOM     10  N   UNL     1       3.364   3.238  17.076  0.00  0.00    +0.000 NA
ATOM     11  N   UNL     1       2.217   2.561  17.409  0.00  0.00    +0.000 NA
ATOM     12  C   UNL     1       2.067   2.646  18.710  0.00  0.00    +0.000 A 
ATOM     13  C   UNL     1       1.058   2.173  19.592  0.00  0.00    +0.000 A 
ATOM     14  C   UNL     1       1.166   2.406  20.913  0.00  0.00    +0.000 A 
ATOM     15  C   UNL     1       2.308   3.122  21.464  0.00  0.00    +0.000 A 
ATOM     16  C   UNL     1       3.260   3.582  20.631  0.00  0.00    +0.000 A 
ATOM     17  N   UNL     1       3.127   3.357  19.259  0.00  0.00    +0.000 N 
ENDBRANCH   7   9
BRANCH   1  19
ATOM     18  C   UNL     1       1.519   8.959  19.400  0.00  0.00    +0.000 C 
ATOM     19  C   UNL     1       2.475   7.763  19.392  0.00  0.00    +0.000 C 
ATOM     20  C   UNL     1       1.746   6.517  19.896  0.00  0.00    +0.000 C 
ENDBRANCH   1  19
TORSDOF 2
ENDMDL
MODEL 9
REMARK VINA RESULT:      -6.2      1.614      2.095
REMARK  Name = 
REMARK  4 active torsions:
REMARK  status: ('A' for Active; 'I' for Inactive)
REMARK    1  A    between atoms: C_1  and  C_2
REMARK    2  A    between atoms: C_2  and  C_3
REMARK    3  A    between atoms: C_2  and  C_4
REMARK    4  A    between atoms: C_10  and  C_11
REMARK                            x       y       z     vdW  Elec       q    Type
REMARK                         _______ _______ _______ _____ _____    ______ ____
ROOT
ATOM      1  C   UNL     1       1.803   5.230  20.060  0.00  0.00    +0.000 C 
ATOM      2  O   UNL     1       1.478   4.914  21.210  0.00  0.00    +0.000 OA
ATOM      3  N   UNL     1       2.096   4.266  19.098  0.00  0.00    +0.000 N 
ATOM      4  C   UNL     1       1.889   2.857  19.433  0.00  0.00    +0.000 C 
ATOM      5  C   UNL     1       3.109   1.993  19.119  0.00  0.00    +0.000 C 
ATOM      6  C   UNL     1       3.609   2.213  17.689  0.00  0.00    +0.000 C 
ATOM      7  C   UNL     1       3.848   3.697  17.385  0.00  0.00    +0.000 C 
ATOM      8  C   UNL     1       2.587   4.520  17.737  0.00  0.00    +0.000 C 
ENDROOT
BRANCH   7   9
ATOM      9  C   UNL     1       5.076   4.217  18.083  0.00  0.00    +0.000 A 
ATOM     10  N   UNL     1       5.613   3.726  19.186  0.00  0.00    +0.000 NA
ATOM     11  N   UNL     1       6.694   4.497  19.534  0.00  0.00    +0.000 NA
ATOM     12  C   UNL     1       6.808   5.451  18.640  0.00  0.00    +0.000 A 
ATOM     13  C   UNL     1       7.708   6.544  18.513  0.00  0.00    +0.000 A 
ATOM     14  C   UNL     1       7.593   7.384  17.468  0.00  0.00    +0.000 A 
ATOM     15  C   UNL     1       6.572   7.187  16.448  0.00  0.00    +0.000 A 
ATOM     16  C   UNL     1       5.710   6.160  16.572  0.00  0.00    +0.000 A 
ATOM     17  N   UNL     1       5.821   5.309  17.673  0.00  0.00    +0.000 N 
ENDBRANCH   7   9
BRANCH   1  19
ATOM     18  C   UNL     1       1.406   7.544  20.875  0.00  0.00    +0.000 C 
ATOM     19  C   UNL     1       1.734   6.704  19.639  0.00  0.00    +0.000 C 
ATOM     20  C   UNL     1       3.050   7.183  19.025  0.00  0.00    +0.000 C 
ENDBRANCH   1  19
TORSDOF 2
ENDMDL
