MODEL 1
REMARK VINA RESULT:      -7.8      0.000      0.000
REMARK  Name = 
REMARK  6 active torsions:
REMARK  status: ('A' for Active; 'I' for Inactive)
REMARK    1  A    between atoms: C_1  and  C_2
REMARK    2  A    between atoms: C_2  and  C_3
REMARK    3  A    between atoms: C_4  and  C_5
REMARK    4  A    between atoms: C_12  and  C_13
REMARK    5  A    between atoms: C_13  and  O_14
REMARK    6  A    between atoms: O_14  and  N_15
REMARK                            x       y       z     vdW  Elec       q    Type
REMARK                         _______ _______ _______ _____ _____    ______ ____
ROOT
ATOM      1  C   UNL     1       5.466   5.702  15.218  0.00  0.00    +0.000 C 
ATOM      2  C   UNL     1       5.480   5.908  16.703  0.00  0.00    +0.000 C 
ATOM      3  C   UNL     1       6.478   5.438  17.482  0.00  0.00    +0.000 C 
ENDROOT
BRANCH   2   4
ATOM      4  C   UNL     1       4.337   6.675  17.349  0.00  0.00    +0.000 C 
ATOM      5  C   UNL     1       3.356   7.332  17.903  0.00  0.00    +0.000 C 
BRANCH   5   6
ATOM      6  C   UNL     1       2.330   8.127  18.502  0.00  0.00    +0.000 A 
ATOM      7  C   UNL     1       1.727   9.156  17.773  0.00  0.00    +0.000 A 
ATOM      8  C   UNL     1       0.785   9.987  18.386  0.00  0.00    +0.000 A 
ATOM      9  C   UNL     1       0.447   9.783  19.723  0.00  0.00    +0.000 A 
ATOM     10 CL   UNL     1      -0.678  10.834  20.490  0.00  0.00    +0.000 Cl
ATOM     11  C   UNL     1       1.026   8.742  20.447  0.00  0.00    +0.000 A 
ATOM     12  C   UNL     1       1.968   7.912  19.834  0.00  0.00    +0.000 A 
ENDBRANCH   5   6
ENDBRANCH   2   4
BRANCH   3  13
ATOM     13  C   UNL     1       6.587   5.597  18.978  0.00  0.00    +0.000 C 
BRANCH  13  14
ATOM     14  O   UNL     1       5.411   5.056  19.612  0.00  0.00    +0.000 OA
BRANCH  14  15
ATOM     15  N   UNL     1       5.279   3.710  19.220  0.00  0.00    +0.000 NA
ATOM     16  C   UNL     1       4.068   3.278  19.377  0.00  0.00    +0.000 C 
ATOM     17  C   UNL     1       3.636   1.867  19.031  0.00  0.00    +0.000 C 
ATOM     18  N   UNL     1       2.179   1.916  19.391  0.00  0.00    +0.000 NA
ATOM     19  C   UNL     1       1.480   2.761  18.378  0.00  0.00    +0.000 C 
ATOM     20  C   UNL     1       1.943   4.200  18.673  0.00  0.00    +0.000 C 
ATOM     21  C   UNL     1       2.854   4.008  19.883  0.00  0.00    +0.000 C 
ATOM     22  C   UNL     1       2.188   2.829  20.577  0.00  0.00    +0.000 C 
ENDBRANCH  14  15
ENDBRANCH  13  14
ENDBRANCH   3  13
TORSDOF 5
ENDMDL
MODEL 2
REMARK VINA RESULT:      -7.7      1.087      1.645
REMARK  Name = 
REMARK  6 active torsions:
REMARK  status: ('A' for Active; 'I' for Inactive)
REMARK    1  A    between atoms: C_1  and  C_2
REMARK    2  A    between atoms: C_2  and  C_3
REMARK    3  A    between atoms: C_4  and  C_5
REMARK    4  A    between atoms: C_12  and  C_13
REMARK    5  A    between atoms: C_13  and  O_14
REMARK    6  A    between atoms: O_14  and  N_15
REMARK                            x       y       z     vdW  Elec       q    Type
REMARK                         _______ _______ _______ _____ _____    ______ ____
ROOT
ATOM      1  C   UNL     1       5.223   5.167  15.397  0.00  0.00    +0.000 C 
ATOM      2  C   UNL     1       5.030   5.229  16.883  0.00  0.00    +0.000 C 
ATOM      3  C   UNL     1       5.725   4.438  17.729  0.00  0.00    +0.000 C 
ENDROOT
BRANCH   2   4
ATOM      4  C   UNL     1       4.023   6.216  17.452  0.00  0.00    +0.000 C 
ATOM      5  C   UNL     1       3.160   7.063  17.940  0.00  0.00    +0.000 C 
BRANCH   5   6
ATOM      6  C   UNL     1       2.273   8.012  18.537  0.00  0.00    +0.000 A 
ATOM      7  C   UNL     1       1.996   7.944  19.905  0.00  0.00    +0.000 A 
ATOM      8  C   UNL     1       1.063   8.818  20.473  0.00  0.00    +0.000 A 
ATOM      9  C   UNL     1       0.416   9.757  19.671  0.00  0.00    +0.000 A 
ATOM     10 CL   UNL     1      -0.764  10.801  20.361  0.00  0.00    +0.000 Cl
ATOM     11  C   UNL     1       0.709   9.845  18.311  0.00  0.00    +0.000 A 
ATOM     12  C   UNL     1       1.640   8.971  17.744  0.00  0.00    +0.000 A 
ENDBRANCH   5   6
ENDBRANCH   2   4
BRANCH   3  13
ATOM     13  C   UNL     1       5.607   4.427  19.233  0.00  0.00    +0.000 C 
BRANCH  13  14
ATOM     14  O   UNL     1       5.254   3.106  19.685  0.00  0.00    +0.000 OA
BRANCH  14  15
ATOM     15  N   UNL     1       4.115   2.686  18.970  0.00  0.00    +0.000 NA
ATOM     16  C   UNL     1       3.027   2.852  19.653  0.00  0.00    +0.000 C 
ATOM     17  C   UNL     1       1.652   2.491  19.129  0.00  0.00    +0.000 C 
ATOM     18  N   UNL     1       0.788   2.889  20.291  0.00  0.00    +0.000 NA
ATOM     19  C   UNL     1       0.763   4.379  20.361  0.00  0.00    +0.000 C 
ATOM     20  C   UNL     1       2.170   4.778  20.842  0.00  0.00    +0.000 C 
ATOM     21  C   UNL     1       2.847   3.423  21.033  0.00  0.00    +0.000 C 
ATOM     22  C   UNL     1       1.669   2.556  21.455  0.00  0.00    +0.000 C 
ENDBRANCH  14  15
ENDBRANCH  13  14
ENDBRANCH   3  13
TORSDOF 5
ENDMDL
MODEL 3
REMARK VINA RESULT:      -7.7      0.175      1.045
REMARK  Name = 
REMARK  6 active torsions:
REMARK  status: ('A' for Active; 'I' for Inactive)
REMARK    1  A    between atoms: C_1  and  C_2
REMARK    2  A    between atoms: C_2  and  C_3
REMARK    3  A    between atoms: C_4  and  C_5
REMARK    4  A    between atoms: C_12  and  C_13
REMARK    5  A    between atoms: C_13  and  O_14
REMARK    6  A    between atoms: O_14  and  N_15
REMARK                            x       y       z     vdW  Elec       q    Type
REMARK                         _______ _______ _______ _____ _____    ______ ____
ROOT
ATOM      1  C   UNL     1       5.342   5.488  15.176  0.00  0.00    +0.000 C 
ATOM      2  C   UNL     1       5.419   5.795  16.642  0.00  0.00    +0.000 C 
ATOM      3  C   UNL     1       6.394   5.292  17.429  0.00  0.00    +0.000 C 
ENDROOT
BRANCH   2   4
ATOM      4  C   UNL     1       4.368   6.706  17.258  0.00  0.00    +0.000 C 
ATOM      5  C   UNL     1       3.467   7.486  17.785  0.00  0.00    +0.000 C 
BRANCH   5   6
ATOM      6  C   UNL     1       2.473   8.285  18.431  0.00  0.00    +0.000 A 
ATOM      7  C   UNL     1       2.062   7.974  19.731  0.00  0.00    +0.000 A 
ATOM      8  C   UNL     1       1.030   8.701  20.330  0.00  0.00    +0.000 A 
ATOM      9  C   UNL     1       0.416   9.739  19.630  0.00  0.00    +0.000 A 
ATOM     10 CL   UNL     1      -0.885  10.604  20.350  0.00  0.00    +0.000 Cl
ATOM     11  C   UNL     1       0.840  10.070  18.344  0.00  0.00    +0.000 A 
ATOM     12  C   UNL     1       1.871   9.342  17.744  0.00  0.00    +0.000 A 
ENDBRANCH   5   6
ENDBRANCH   2   4
BRANCH   3  13
ATOM     13  C   UNL     1       6.561   5.542  18.906  0.00  0.00    +0.000 C 
BRANCH  13  14
ATOM     14  O   UNL     1       5.410   5.048  19.618  0.00  0.00    +0.000 OA
BRANCH  14  15
ATOM     15  N   UNL     1       5.216   3.699  19.260  0.00  0.00    +0.000 NA
ATOM     16  C   UNL     1       3.985   3.329  19.420  0.00  0.00    +0.000 C 
ATOM     17  C   UNL     1       3.490   1.931  19.106  0.00  0.00    +0.000 C 
ATOM     18  N   UNL     1       2.035   2.058  19.456  0.00  0.00    +0.000 NA
ATOM     19  C   UNL     1       1.381   2.909  18.418  0.00  0.00    +0.000 C 
ATOM     20  C   UNL     1       1.910   4.331  18.680  0.00  0.00    +0.000 C 
ATOM     21  C   UNL     1       2.806   4.128  19.900  0.00  0.00    +0.000 C 
ATOM     22  C   UNL     1       2.081   2.999  20.619  0.00  0.00    +0.000 C 
ENDBRANCH  14  15
ENDBRANCH  13  14
ENDBRANCH   3  13
TORSDOF 5
ENDMDL
MODEL 4
REMARK VINA RESULT:      -7.5      0.857      1.358
REMARK  Name = 
REMARK  6 active torsions:
REMARK  status: ('A' for Active; 'I' for Inactive)
REMARK    1  A    between atoms: C_1  and  C_2
REMARK    2  A    between atoms: C_2  and  C_3
REMARK    3  A    between atoms: C_4  and  C_5
REMARK    4  A    between atoms: C_12  and  C_13
REMARK    5  A    between atoms: C_13  and  O_14
REMARK    6  A    between atoms: O_14  and  N_15
REMARK                            x       y       z     vdW  Elec       q    Type
REMARK                         _______ _______ _______ _____ _____    ______ ____
ROOT
ATOM      1  C   UNL     1       5.809   5.748  15.102  0.00  0.00    +0.000 C 
ATOM      2  C   UNL     1       5.627   5.767  16.590  0.00  0.00    +0.000 C 
ATOM      3  C   UNL     1       6.450   5.092  17.421  0.00  0.00    +0.000 C 
ENDROOT
BRANCH   2   4
ATOM      4  C   UNL     1       4.483   6.578  17.179  0.00  0.00    +0.000 C 
ATOM      5  C   UNL     1       3.503   7.273  17.684  0.00  0.00    +0.000 C 
BRANCH   5   6
ATOM      6  C   UNL     1       2.460   8.018  18.319  0.00  0.00    +0.000 A 
ATOM      7  C   UNL     1       1.735   8.965  17.591  0.00  0.00    +0.000 A 
ATOM      8  C   UNL     1       0.775   9.753  18.232  0.00  0.00    +0.000 A 
ATOM      9  C   UNL     1       0.540   9.587  19.596  0.00  0.00    +0.000 A 
ATOM     10 CL   UNL     1      -0.609  10.588  20.394  0.00  0.00    +0.000 Cl
ATOM     11  C   UNL     1       1.242   8.625  20.321  0.00  0.00    +0.000 A 
ATOM     12  C   UNL     1       2.203   7.838  19.680  0.00  0.00    +0.000 A 
ENDBRANCH   5   6
ENDBRANCH   2   4
BRANCH   3  13
ATOM     13  C   UNL     1       6.354   5.051  18.926  0.00  0.00    +0.000 C 
BRANCH  13  14
ATOM     14  O   UNL     1       5.593   3.898  19.335  0.00  0.00    +0.000 OA
BRANCH  14  15
ATOM     15  N   UNL     1       4.414   4.349  19.962  0.00  0.00    +0.000 NA
ATOM     16  C   UNL     1       3.352   3.942  19.343  0.00  0.00    +0.000 C 
ATOM     17  C   UNL     1       1.945   4.271  19.799  0.00  0.00    +0.000 C 
ATOM     18  N   UNL     1       1.131   3.560  18.757  0.00  0.00    +0.000 NA
ATOM     19  C   UNL     1       1.248   2.092  18.999  0.00  0.00    +0.000 C 
ATOM     20  C   UNL     1       2.691   1.737  18.593  0.00  0.00    +0.000 C 
ATOM     21  C   UNL     1       3.236   3.081  18.115  0.00  0.00    +0.000 C 
ATOM     22  C   UNL     1       1.984   3.725  17.538  0.00  0.00    +0.000 C 
ENDBRANCH  14  15
ENDBRANCH  13  14
ENDBRANCH   3  13
TORSDOF 5
ENDMDL
MODEL 5
REMARK VINA RESULT:      -7.5      0.893      1.707
REMARK  Name = 
REMARK  6 active torsions:
REMARK  status: ('A' for Active; 'I' for Inactive)
REMARK    1  A    between atoms: C_1  and  C_2
REMARK    2  A    between atoms: C_2  and  C_3
REMARK    3  A    between atoms: C_4  and  C_5
REMARK    4  A    between atoms: C_12  and  C_13
REMARK    5  A    between atoms: C_13  and  O_14
REMARK    6  A    between atoms: O_14  and  N_15
REMARK                            x       y       z     vdW  Elec       q    Type
REMARK                         _______ _______ _______ _____ _____    ______ ____
ROOT
ATOM      1  C   UNL     1       5.358   5.712  14.904  0.00  0.00    +0.000 C 
ATOM      2  C   UNL     1       5.361   5.705  16.403  0.00  0.00    +0.000 C 
ATOM      3  C   UNL     1       6.218   4.942  17.115  0.00  0.00    +0.000 C 
ENDROOT
BRANCH   2   4
ATOM      4  C   UNL     1       4.369   6.589  17.143  0.00  0.00    +0.000 C 
ATOM      5  C   UNL     1       3.520   7.348  17.778  0.00  0.00    +0.000 C 
BRANCH   5   6
ATOM      6  C   UNL     1       2.533   8.172  18.405  0.00  0.00    +0.000 A 
ATOM      7  C   UNL     1       2.115   7.892  19.709  0.00  0.00    +0.000 A 
ATOM      8  C   UNL     1       1.090   8.645  20.290  0.00  0.00    +0.000 A 
ATOM      9  C   UNL     1       0.491   9.675  19.566  0.00  0.00    +0.000 A 
ATOM     10 CL   UNL     1      -0.800  10.571  20.265  0.00  0.00    +0.000 Cl
ATOM     11  C   UNL     1       0.923   9.974  18.275  0.00  0.00    +0.000 A 
ATOM     12  C   UNL     1       1.947   9.221  17.694  0.00  0.00    +0.000 A 
ENDBRANCH   5   6
ENDBRANCH   2   4
BRANCH   3  13
ATOM     13  C   UNL     1       6.302   4.867  18.619  0.00  0.00    +0.000 C 
BRANCH  13  14
ATOM     14  O   UNL     1       5.587   3.709  19.091  0.00  0.00    +0.000 OA
BRANCH  14  15
ATOM     15  N   UNL     1       4.514   4.151  19.891  0.00  0.00    +0.000 NA
ATOM     16  C   UNL     1       3.368   3.900  19.343  0.00  0.00    +0.000 C 
ATOM     17  C   UNL     1       2.042   4.260  19.984  0.00  0.00    +0.000 C 
ATOM     18  N   UNL     1       1.077   3.748  18.953  0.00  0.00    +0.000 NA
ATOM     19  C   UNL     1       1.100   2.256  18.997  0.00  0.00    +0.000 C 
ATOM     20  C   UNL     1       2.464   1.863  18.399  0.00  0.00    +0.000 C 
ATOM     21  C   UNL     1       3.066   3.218  18.037  0.00  0.00    +0.000 C 
ATOM     22  C   UNL     1       1.818   4.015  17.681  0.00  0.00    +0.000 C 
ENDBRANCH  14  15
ENDBRANCH  13  14
ENDBRANCH   3  13
TORSDOF 5
ENDMDL
MODEL 6
REMARK VINA RESULT:      -7.3      1.432      1.893
REMARK  Name = 
REMARK  6 active torsions:
REMARK  status: ('A' for Active; 'I' for Inactive)
REMARK    1  A    between atoms: C_1  and  C_2
REMARK    2  A    between atoms: C_2  and  C_3
REMARK    3  A    between atoms: C_4  and  C_5
REMARK    4  A    between atoms: C_12  and  C_13
REMARK    5  A    between atoms: C_13  and  O_14
REMARK    6  A    between atoms: O_14  and  N_15
REMARK                            x       y       z     vdW  Elec       q    Type
REMARK                         _______ _______ _______ _____ _____    ______ ____
ROOT
ATOM      1  C   UNL     1       6.918   6.344  16.944  0.00  0.00    +0.000 C 
ATOM      2  C   UNL     1       5.527   5.786  16.994  0.00  0.00    +0.000 C 
ATOM      3  C   UNL     1       5.247   4.524  16.601  0.00  0.00    +0.000 C 
ENDROOT
BRANCH   2   4
ATOM      4  C   UNL     1       4.400   6.668  17.507  0.00  0.00    +0.000 C 
ATOM      5  C   UNL     1       3.434   7.424  17.947  0.00  0.00    +0.000 C 
BRANCH   5   6
ATOM      6  C   UNL     1       2.336   8.181  18.465  0.00  0.00    +0.000 A 
ATOM      7  C   UNL     1       1.654   9.078  17.638  0.00  0.00    +0.000 A 
ATOM      8  C   UNL     1       0.637   9.879  18.166  0.00  0.00    +0.000 A 
ATOM      9  C   UNL     1       0.306   9.778  19.516  0.00  0.00    +0.000 A 
ATOM     10 CL   UNL     1      -0.914  10.797  20.175  0.00  0.00    +0.000 Cl
ATOM     11  C   UNL     1       0.966   8.867  20.339  0.00  0.00    +0.000 A 
ATOM     12  C   UNL     1       1.983   8.067  19.812  0.00  0.00    +0.000 A 
ENDBRANCH   5   6
ENDBRANCH   2   4
BRANCH   3  13
ATOM     13  C   UNL     1       3.887   3.871  16.616  0.00  0.00    +0.000 C 
BRANCH  13  14
ATOM     14  O   UNL     1       3.932   2.669  17.408  0.00  0.00    +0.000 OA
BRANCH  14  15
ATOM     15  N   UNL     1       2.616   2.343  17.790  0.00  0.00    +0.000 NA
ATOM     16  C   UNL     1       2.380   2.654  19.025  0.00  0.00    +0.000 C 
ATOM     17  C   UNL     1       1.044   2.421  19.701  0.00  0.00    +0.000 C 
ATOM     18  N   UNL     1       1.321   2.957  21.076  0.00  0.00    +0.000 NA
ATOM     19  C   UNL     1       1.419   4.443  20.984  0.00  0.00    +0.000 C 
ATOM     20  C   UNL     1       2.747   4.708  20.250  0.00  0.00    +0.000 C 
ATOM     21  C   UNL     1       3.289   3.297  20.035  0.00  0.00    +0.000 C 
ATOM     22  C   UNL     1       2.757   2.580  21.268  0.00  0.00    +0.000 C 
ENDBRANCH  14  15
ENDBRANCH  13  14
ENDBRANCH   3  13
TORSDOF 5
ENDMDL
MODEL 7
REMARK VINA RESULT:      -7.2      1.657      4.404
REMARK  Name = 
REMARK  6 active torsions:
REMARK  status: ('A' for Active; 'I' for Inactive)
REMARK    1  A    between atoms: C_1  and  C_2
REMARK    2  A    between atoms: C_2  and  C_3
REMARK    3  A    between atoms: C_4  and  C_5
REMARK    4  A    between atoms: C_12  and  C_13
REMARK    5  A    between atoms: C_13  and  O_14
REMARK    6  A    between atoms: O_14  and  N_15
REMARK                            x       y       z     vdW  Elec       q    Type
REMARK                         _______ _______ _______ _____ _____    ______ ____
ROOT
ATOM      1  C   UNL     1       1.422   2.600  21.929  0.00  0.00    +0.000 C 
ATOM      2  C   UNL     1       2.357   3.245  20.951  0.00  0.00    +0.000 C 
ATOM      3  C   UNL     1       3.345   2.554  20.342  0.00  0.00    +0.000 C 
ENDROOT
BRANCH   2   4
ATOM      4  C   UNL     1       2.182   4.722  20.632  0.00  0.00    +0.000 C 
ATOM      5  C   UNL     1       2.033   5.987  20.359  0.00  0.00    +0.000 C 
BRANCH   5   6
ATOM      6  C   UNL     1       1.830   7.352  19.983  0.00  0.00    +0.000 A 
ATOM      7  C   UNL     1       1.214   8.238  20.871  0.00  0.00    +0.000 A 
ATOM      8  C   UNL     1       0.939   9.549  20.472  0.00  0.00    +0.000 A 
ATOM      9  C   UNL     1       1.285   9.970  19.189  0.00  0.00    +0.000 A 
ATOM     10 CL   UNL     1       0.905  11.569  18.682  0.00  0.00    +0.000 Cl
ATOM     11  C   UNL     1       1.923   9.097  18.308  0.00  0.00    +0.000 A 
ATOM     12  C   UNL     1       2.197   7.786  18.707  0.00  0.00    +0.000 A 
ENDBRANCH   5   6
ENDBRANCH   2   4
BRANCH   3  13
ATOM     13  C   UNL     1       4.331   3.108  19.344  0.00  0.00    +0.000 C 
BRANCH  13  14
ATOM     14  O   UNL     1       3.664   3.376  18.095  0.00  0.00    +0.000 OA
BRANCH  14  15
ATOM     15  N   UNL     1       4.604   3.237  17.055  0.00  0.00    +0.000 NA
ATOM     16  C   UNL     1       5.133   4.374  16.728  0.00  0.00    +0.000 C 
ATOM     17  C   UNL     1       6.181   4.522  15.643  0.00  0.00    +0.000 C 
ATOM     18  N   UNL     1       6.437   6.001  15.691  0.00  0.00    +0.000 NA
ATOM     19  C   UNL     1       7.183   6.300  16.949  0.00  0.00    +0.000 C 
ATOM     20  C   UNL     1       6.153   6.105  18.077  0.00  0.00    +0.000 C 
ATOM     21  C   UNL     1       4.887   5.740  17.305  0.00  0.00    +0.000 C 
ATOM     22  C   UNL     1       5.079   6.536  16.022  0.00  0.00    +0.000 C 
ENDBRANCH  14  15
ENDBRANCH  13  14
ENDBRANCH   3  13
TORSDOF 5
ENDMDL
MODEL 8
REMARK VINA RESULT:      -7.2      4.236      5.123
REMARK  Name = 
REMARK  6 active torsions:
REMARK  status: ('A' for Active; 'I' for Inactive)
REMARK    1  A    between atoms: C_1  and  C_2
REMARK    2  A    between atoms: C_2  and  C_3
REMARK    3  A    between atoms: C_4  and  C_5
REMARK    4  A    between atoms: C_12  and  C_13
REMARK    5  A    between atoms: C_13  and  O_14
REMARK    6  A    between atoms: O_14  and  N_15
REMARK                            x       y       z     vdW  Elec       q    Type
REMARK                         _______ _______ _______ _____ _____    ______ ____
ROOT
ATOM      1  C   UNL     1       7.040   5.846  15.490  0.00  0.00    +0.000 C 
ATOM      2  C   UNL     1       7.101   6.128  16.961  0.00  0.00    +0.000 C 
ATOM      3  C   UNL     1       6.742   5.208  17.882  0.00  0.00    +0.000 C 
ENDROOT
BRANCH   2   4
ATOM      4  C   UNL     1       7.589   7.491  17.428  0.00  0.00    +0.000 C 
ATOM      5  C   UNL     1       8.006   8.659  17.828  0.00  0.00    +0.000 C 
BRANCH   5   6
ATOM      6  C   UNL     1       8.543   9.904  18.283  0.00  0.00    +0.000 A 
ATOM      7  C   UNL     1       8.321  11.071  17.548  0.00  0.00    +0.000 A 
ATOM      8  C   UNL     1       8.917  12.271  17.946  0.00  0.00    +0.000 A 
ATOM      9  C   UNL     1       9.728  12.300  19.080  0.00  0.00    +0.000 A 
ATOM     10 CL   UNL     1      10.498  13.766  19.544  0.00  0.00    +0.000 Cl
ATOM     11  C   UNL     1       9.931  11.143  19.832  0.00  0.00    +0.000 A 
ATOM     12  C   UNL     1       9.336   9.943  19.432  0.00  0.00    +0.000 A 
ENDBRANCH   5   6
ENDBRANCH   2   4
BRANCH   3  13
ATOM     13  C   UNL     1       6.771   5.392  19.379  0.00  0.00    +0.000 C 
BRANCH  13  14
ATOM     14  O   UNL     1       5.513   4.979  19.946  0.00  0.00    +0.000 OA
BRANCH  14  15
ATOM     15  N   UNL     1       5.165   3.733  19.387  0.00  0.00    +0.000 NA
ATOM     16  C   UNL     1       3.882   3.584  19.300  0.00  0.00    +0.000 C 
ATOM     17  C   UNL     1       3.225   2.343  18.731  0.00  0.00    +0.000 C 
ATOM     18  N   UNL     1       1.772   2.703  18.859  0.00  0.00    +0.000 NA
ATOM     19  C   UNL     1       1.466   3.760  17.851  0.00  0.00    +0.000 C 
ATOM     20  C   UNL     1       2.169   5.026  18.379  0.00  0.00    +0.000 C 
ATOM     21  C   UNL     1       2.784   4.537  19.688  0.00  0.00    +0.000 C 
ATOM     22  C   UNL     1       1.764   3.496  20.128  0.00  0.00    +0.000 C 
ENDBRANCH  14  15
ENDBRANCH  13  14
ENDBRANCH   3  13
TORSDOF 5
ENDMDL
MODEL 9
REMARK VINA RESULT:      -7.2      1.624      4.331
REMARK  Name = 
REMARK  6 active torsions:
REMARK  status: ('A' for Active; 'I' for Inactive)
REMARK    1  A    between atoms: C_1  and  C_2
REMARK    2  A    between atoms: C_2  and  C_3
REMARK    3  A    between atoms: C_4  and  C_5
REMARK    4  A    between atoms: C_12  and  C_13
REMARK    5  A    between atoms: C_13  and  O_14
REMARK    6  A    between atoms: O_14  and  N_15
REMARK                            x       y       z     vdW  Elec       q    Type
REMARK                         _______ _______ _______ _____ _____    ______ ____
ROOT
ATOM      1  C   UNL     1       1.598   2.782  21.943  0.00  0.00    +0.000 C 
ATOM      2  C   UNL     1       2.379   3.371  20.807  0.00  0.00    +0.000 C 
ATOM      3  C   UNL     1       3.236   2.633  20.069  0.00  0.00    +0.000 C 
ENDROOT
BRANCH   2   4
ATOM      4  C   UNL     1       2.193   4.843  20.473  0.00  0.00    +0.000 C 
ATOM      5  C   UNL     1       2.034   6.104  20.186  0.00  0.00    +0.000 C 
BRANCH   5   6
ATOM      6  C   UNL     1       1.779   7.484  19.908  0.00  0.00    +0.000 A 
ATOM      7  C   UNL     1       1.243   8.309  20.901  0.00  0.00    +0.000 A 
ATOM      8  C   UNL     1       0.914   9.635  20.604  0.00  0.00    +0.000 A 
ATOM      9  C   UNL     1       1.125  10.130  19.318  0.00  0.00    +0.000 A 
ATOM     10 CL   UNL     1       0.678  11.748  18.941  0.00  0.00    +0.000 Cl
ATOM     11  C   UNL     1       1.683   9.318  18.332  0.00  0.00    +0.000 A 
ATOM     12  C   UNL     1       2.011   7.992  18.628  0.00  0.00    +0.000 A 
ENDBRANCH   5   6
ENDBRANCH   2   4
BRANCH   3  13
ATOM     13  C   UNL     1       4.062   3.129  18.908  0.00  0.00    +0.000 C 
BRANCH  13  14
ATOM     14  O   UNL     1       5.439   3.260  19.308  0.00  0.00    +0.000 OA
BRANCH  14  15
ATOM     15  N   UNL     1       5.795   4.620  19.225  0.00  0.00    +0.000 NA
ATOM     16  C   UNL     1       6.114   4.964  18.018  0.00  0.00    +0.000 C 
ATOM     17  C   UNL     1       6.532   6.369  17.635  0.00  0.00    +0.000 C 
ATOM     18  N   UNL     1       6.768   6.207  16.161  0.00  0.00    +0.000 NA
ATOM     19  C   UNL     1       5.443   6.036  15.495  0.00  0.00    +0.000 C 
ATOM     20  C   UNL     1       4.967   4.632  15.912  0.00  0.00    +0.000 C 
ATOM     21  C   UNL     1       6.131   4.132  16.765  0.00  0.00    +0.000 C 
ATOM     22  C   UNL     1       7.313   4.814  16.090  0.00  0.00    +0.000 C 
ENDBRANCH  14  15
ENDBRANCH  13  14
ENDBRANCH   3  13
TORSDOF 5
ENDMDL
