MODEL 1
REMARK VINA RESULT:      -8.4      0.000      0.000
REMARK  Name = 
REMARK  6 active torsions:
REMARK  status: ('A' for Active; 'I' for Inactive)
REMARK    1  A    between atoms: C_1  and  O_2
REMARK    2  A    between atoms: O_2  and  C_3
REMARK    3  A    between atoms: C_8  and  C_9
REMARK    4  A    between atoms: C_10  and  C_11
REMARK    5  A    between atoms: N_13  and  C_14
REMARK    6  A    between atoms: C_20  and  C_21
REMARK                            x       y       z     vdW  Elec       q    Type
REMARK                         _______ _______ _______ _____ _____    ______ ____
ROOT
ATOM      1  C   UNL     1       7.719   7.792  17.946  0.00  0.00    +0.000 C 
ATOM      2  O   UNL     1       8.167   6.941  18.710  0.00  0.00    +0.000 OA
ATOM      3  N   UNL     1       6.573   7.665  17.188  0.00  0.00    +0.000 N 
ATOM      4  H   UNL     1       6.405   8.334  16.435  0.00  0.00    +0.000 HD
ENDROOT
BRANCH   3   5
ATOM      5  C   UNL     1       5.584   6.656  17.343  0.00  0.00    +0.000 A 
ATOM      6  C   UNL     1       4.361   6.930  17.972  0.00  0.00    +0.000 A 
ATOM      7  C   UNL     1       3.357   5.962  18.070  0.00  0.00    +0.000 A 
ATOM      8  C   UNL     1       3.553   4.706  17.514  0.00  0.00    +0.000 A 
ATOM      9  I   UNL     1       2.041   3.287  17.617  0.00  0.00    +0.000 I 
ATOM     10  C   UNL     1       4.758   4.398  16.886  0.00  0.00    +0.000 A 
ATOM     11  C   UNL     1       5.786   5.358  16.823  0.00  0.00    +0.000 A 
BRANCH  11  12
ATOM     12  C   UNL     1       7.097   4.968  16.233  0.00  0.00    +0.000 C 
ATOM     13  N   UNL     1       7.948   4.244  17.025  0.00  0.00    +0.000 N 
ATOM     14  O   UNL     1       7.426   5.325  15.108  0.00  0.00    +0.000 OA
ATOM     15  H   UNL     1       7.815   4.150  18.023  0.00  0.00    +0.000 HD
ATOM     16  H   UNL     1       8.881   4.088  16.670  0.00  0.00    +0.000 HD
ENDBRANCH  11  12
ENDBRANCH   3   5
BRANCH   1  18
ATOM     17  C   UNL     1       8.952   9.673  18.855  0.00  0.00    +0.000 C 
ATOM     18  C   UNL     1       8.424   9.090  17.766  0.00  0.00    +0.000 C 
BRANCH  17  24
ATOM     19  C   UNL     1       9.880  11.692  20.118  0.00  0.00    +0.000 A 
ATOM     20  C   UNL     1      10.603  12.892  20.064  0.00  0.00    +0.000 A 
ATOM     21  C   UNL     1      11.110  13.370  18.852  0.00  0.00    +0.000 A 
ATOM     22  C   UNL     1      10.903  12.652  17.682  0.00  0.00    +0.000 A 
ATOM     23  C   UNL     1      10.177  11.463  17.720  0.00  0.00    +0.000 A 
ATOM     24  C   UNL     1       9.640  10.976  18.927  0.00  0.00    +0.000 A 
BRANCH  19  26
ATOM     25  C   UNL     1       8.529  12.027  22.052  0.00  0.00    +0.000 C 
ATOM     26  O   UNL     1       9.366  11.174  21.280  0.00  0.00    +0.000 OA
ENDBRANCH  19  26
ENDBRANCH  17  24
ENDBRANCH   1  18
TORSDOF 5
ENDMDL
MODEL 2
REMARK VINA RESULT:      -8.1      1.368      1.662
REMARK  Name = 
REMARK  6 active torsions:
REMARK  status: ('A' for Active; 'I' for Inactive)
REMARK    1  A    between atoms: C_1  and  O_2
REMARK    2  A    between atoms: O_2  and  C_3
REMARK    3  A    between atoms: C_8  and  C_9
REMARK    4  A    between atoms: C_10  and  C_11
REMARK    5  A    between atoms: N_13  and  C_14
REMARK    6  A    between atoms: C_20  and  C_21
REMARK                            x       y       z     vdW  Elec       q    Type
REMARK                         _______ _______ _______ _____ _____    ______ ____
ROOT
ATOM      1  C   UNL     1       7.785   7.856  17.838  0.00  0.00    +0.000 C 
ATOM      2  O   UNL     1       8.140   7.129  18.762  0.00  0.00    +0.000 OA
ATOM      3  N   UNL     1       6.693   7.639  17.022  0.00  0.00    +0.000 N 
ATOM      4  H   UNL     1       6.608   8.179  16.160  0.00  0.00    +0.000 HD
ENDROOT
BRANCH   3   5
ATOM      5  C   UNL     1       5.653   6.699  17.261  0.00  0.00    +0.000 A 
ATOM      6  C   UNL     1       4.420   7.101  17.792  0.00  0.00    +0.000 A 
ATOM      7  C   UNL     1       3.369   6.196  17.968  0.00  0.00    +0.000 A 
ATOM      8  C   UNL     1       3.531   4.870  17.590  0.00  0.00    +0.000 A 
ATOM      9  I   UNL     1       1.954   3.537  17.807  0.00  0.00    +0.000 I 
ATOM     10  C   UNL     1       4.746   4.435  17.065  0.00  0.00    +0.000 A 
ATOM     11  C   UNL     1       5.818   5.337  16.925  0.00  0.00    +0.000 A 
BRANCH  11  12
ATOM     12  C   UNL     1       7.133   4.821  16.453  0.00  0.00    +0.000 C 
ATOM     13  N   UNL     1       7.954   4.252  17.391  0.00  0.00    +0.000 N 
ATOM     14  O   UNL     1       7.492   4.948  15.289  0.00  0.00    +0.000 OA
ATOM     15  H   UNL     1       7.799   4.355  18.385  0.00  0.00    +0.000 HD
ATOM     16  H   UNL     1       8.892   4.016  17.095  0.00  0.00    +0.000 HD
ENDBRANCH  11  12
ENDBRANCH   3   5
BRANCH   1  18
ATOM     17  C   UNL     1       8.912   9.893  18.516  0.00  0.00    +0.000 C 
ATOM     18  C   UNL     1       8.555   9.085  17.504  0.00  0.00    +0.000 C 
BRANCH  17  24
ATOM     19  C   UNL     1       9.080  12.361  17.870  0.00  0.00    +0.000 A 
ATOM     20  C   UNL     1       9.833  13.543  17.896  0.00  0.00    +0.000 A 
ATOM     21  C   UNL     1      11.101  13.572  18.485  0.00  0.00    +0.000 A 
ATOM     22  C   UNL     1      11.627  12.422  19.056  0.00  0.00    +0.000 A 
ATOM     23  C   UNL     1      10.893  11.238  19.028  0.00  0.00    +0.000 A 
ATOM     24  C   UNL     1       9.623  11.182  18.422  0.00  0.00    +0.000 A 
BRANCH  19  26
ATOM     25  C   UNL     1       7.009  13.437  17.387  0.00  0.00    +0.000 C 
ATOM     26  O   UNL     1       7.829  12.277  17.312  0.00  0.00    +0.000 OA
ENDBRANCH  19  26
ENDBRANCH  17  24
ENDBRANCH   1  18
TORSDOF 5
ENDMDL
MODEL 3
REMARK VINA RESULT:      -7.6      4.736      7.776
REMARK  Name = 
REMARK  6 active torsions:
REMARK  status: ('A' for Active; 'I' for Inactive)
REMARK    1  A    between atoms: C_1  and  O_2
REMARK    2  A    between atoms: O_2  and  C_3
REMARK    3  A    between atoms: C_8  and  C_9
REMARK    4  A    between atoms: C_10  and  C_11
REMARK    5  A    between atoms: N_13  and  C_14
REMARK    6  A    between atoms: C_20  and  C_21
REMARK                            x       y       z     vdW  Elec       q    Type
REMARK                         _______ _______ _______ _____ _____    ______ ____
ROOT
ATOM      1  C   UNL     1       2.362   6.398  19.831  0.00  0.00    +0.000 C 
ATOM      2  O   UNL     1       1.578   5.704  20.473  0.00  0.00    +0.000 OA
ATOM      3  N   UNL     1       2.245   7.757  19.626  0.00  0.00    +0.000 N 
ATOM      4  H   UNL     1       2.824   8.199  18.910  0.00  0.00    +0.000 HD
ENDROOT
BRANCH   3   5
ATOM      5  C   UNL     1       1.361   8.628  20.320  0.00  0.00    +0.000 A 
ATOM      6  C   UNL     1       1.191   8.532  21.708  0.00  0.00    +0.000 A 
ATOM      7  C   UNL     1       0.374   9.426  22.408  0.00  0.00    +0.000 A 
ATOM      8  C   UNL     1      -0.268  10.451  21.727  0.00  0.00    +0.000 A 
ATOM      9  I   UNL     1      -1.440  11.807  22.775  0.00  0.00    +0.000 I 
ATOM     10  C   UNL     1      -0.125  10.571  20.346  0.00  0.00    +0.000 A 
ATOM     11  C   UNL     1       0.664   9.648  19.635  0.00  0.00    +0.000 A 
BRANCH  11  12
ATOM     12  C   UNL     1       0.719   9.744  18.149  0.00  0.00    +0.000 C 
ATOM     13  N   UNL     1      -0.461   9.986  17.496  0.00  0.00    +0.000 N 
ATOM     14  O   UNL     1       1.760   9.560  17.532  0.00  0.00    +0.000 OA
ATOM     15  H   UNL     1      -1.362   9.895  17.945  0.00  0.00    +0.000 HD
ATOM     16  H   UNL     1      -0.444   9.929  16.486  0.00  0.00    +0.000 HD
ENDBRANCH  11  12
ENDBRANCH   3   5
BRANCH   1  18
ATOM     17  C   UNL     1       3.783   6.078  17.891  0.00  0.00    +0.000 C 
ATOM     18  C   UNL     1       3.555   5.787  19.182  0.00  0.00    +0.000 C 
BRANCH  17  24
ATOM     19  C   UNL     1       6.109   6.175  16.836  0.00  0.00    +0.000 A 
ATOM     20  C   UNL     1       7.079   5.541  16.046  0.00  0.00    +0.000 A 
ATOM     21  C   UNL     1       6.831   4.289  15.476  0.00  0.00    +0.000 A 
ATOM     22  C   UNL     1       5.615   3.656  15.691  0.00  0.00    +0.000 A 
ATOM     23  C   UNL     1       4.639   4.280  16.467  0.00  0.00    +0.000 A 
ATOM     24  C   UNL     1       4.860   5.550  17.033  0.00  0.00    +0.000 A 
BRANCH  19  26
ATOM     25  C   UNL     1       7.643   7.854  17.550  0.00  0.00    +0.000 C 
ATOM     26  O   UNL     1       6.301   7.400  17.425  0.00  0.00    +0.000 OA
ENDBRANCH  19  26
ENDBRANCH  17  24
ENDBRANCH   1  18
TORSDOF 5
ENDMDL
MODEL 4
REMARK VINA RESULT:      -7.5      5.886      8.291
REMARK  Name = 
REMARK  6 active torsions:
REMARK  status: ('A' for Active; 'I' for Inactive)
REMARK    1  A    between atoms: C_1  and  O_2
REMARK    2  A    between atoms: O_2  and  C_3
REMARK    3  A    between atoms: C_8  and  C_9
REMARK    4  A    between atoms: C_10  and  C_11
REMARK    5  A    between atoms: N_13  and  C_14
REMARK    6  A    between atoms: C_20  and  C_21
REMARK                            x       y       z     vdW  Elec       q    Type
REMARK                         _______ _______ _______ _____ _____    ______ ____
ROOT
ATOM      1  C   UNL     1       2.191   6.461  20.053  0.00  0.00    +0.000 C 
ATOM      2  O   UNL     1       1.366   5.808  20.686  0.00  0.00    +0.000 OA
ATOM      3  N   UNL     1       2.123   7.818  19.811  0.00  0.00    +0.000 N 
ATOM      4  H   UNL     1       2.738   8.223  19.103  0.00  0.00    +0.000 HD
ENDROOT
BRANCH   3   5
ATOM      5  C   UNL     1       1.245   8.733  20.455  0.00  0.00    +0.000 A 
ATOM      6  C   UNL     1       1.045   8.692  21.842  0.00  0.00    +0.000 A 
ATOM      7  C   UNL     1       0.236   9.629  22.491  0.00  0.00    +0.000 A 
ATOM      8  C   UNL     1      -0.370  10.641  21.761  0.00  0.00    +0.000 A 
ATOM      9  I   UNL     1      -1.532  12.060  22.734  0.00  0.00    +0.000 I 
ATOM     10  C   UNL     1      -0.197  10.708  20.380  0.00  0.00    +0.000 A 
ATOM     11  C   UNL     1       0.585   9.741  19.719  0.00  0.00    +0.000 A 
BRANCH  11  12
ATOM     12  C   UNL     1       0.671   9.782  18.232  0.00  0.00    +0.000 C 
ATOM     13  N   UNL     1      -0.489  10.029  17.546  0.00  0.00    +0.000 N 
ATOM     14  O   UNL     1       1.719   9.549  17.643  0.00  0.00    +0.000 OA
ATOM     15  H   UNL     1      -1.401   9.977  17.980  0.00  0.00    +0.000 HD
ATOM     16  H   UNL     1      -0.454   9.934  16.540  0.00  0.00    +0.000 HD
ENDBRANCH  11  12
ENDBRANCH   3   5
BRANCH   1  18
ATOM     17  C   UNL     1       3.664   6.053  18.170  0.00  0.00    +0.000 C 
ATOM     18  C   UNL     1       3.384   5.798  19.459  0.00  0.00    +0.000 C 
BRANCH  17  24
ATOM     19  C   UNL     1       4.675   4.242  16.676  0.00  0.00    +0.000 A 
ATOM     20  C   UNL     1       5.755   3.825  15.885  0.00  0.00    +0.000 A 
ATOM     21  C   UNL     1       6.892   4.627  15.746  0.00  0.00    +0.000 A 
ATOM     22  C   UNL     1       6.960   5.853  16.393  0.00  0.00    +0.000 A 
ATOM     23  C   UNL     1       5.897   6.274  17.191  0.00  0.00    +0.000 A 
ATOM     24  C   UNL     1       4.752   5.472  17.360  0.00  0.00    +0.000 A 
BRANCH  19  26
ATOM     25  C   UNL     1       3.593   2.420  17.768  0.00  0.00    +0.000 C 
ATOM     26  O   UNL     1       3.533   3.498  16.843  0.00  0.00    +0.000 OA
ENDBRANCH  19  26
ENDBRANCH  17  24
ENDBRANCH   1  18
TORSDOF 5
ENDMDL
MODEL 5
REMARK VINA RESULT:      -7.4      1.216      1.521
REMARK  Name = 
REMARK  6 active torsions:
REMARK  status: ('A' for Active; 'I' for Inactive)
REMARK    1  A    between atoms: C_1  and  O_2
REMARK    2  A    between atoms: O_2  and  C_3
REMARK    3  A    between atoms: C_8  and  C_9
REMARK    4  A    between atoms: C_10  and  C_11
REMARK    5  A    between atoms: N_13  and  C_14
REMARK    6  A    between atoms: C_20  and  C_21
REMARK                            x       y       z     vdW  Elec       q    Type
REMARK                         _______ _______ _______ _____ _____    ______ ____
ROOT
ATOM      1  C   UNL     1       7.715   8.095  17.754  0.00  0.00    +0.000 C 
ATOM      2  O   UNL     1       8.166   7.359  18.629  0.00  0.00    +0.000 OA
ATOM      3  N   UNL     1       6.602   7.832  16.982  0.00  0.00    +0.000 N 
ATOM      4  H   UNL     1       6.436   8.399  16.149  0.00  0.00    +0.000 HD
ENDROOT
BRANCH   3   5
ATOM      5  C   UNL     1       5.644   6.810  17.227  0.00  0.00    +0.000 A 
ATOM      6  C   UNL     1       4.410   7.101  17.824  0.00  0.00    +0.000 A 
ATOM      7  C   UNL     1       3.437   6.115  18.008  0.00  0.00    +0.000 A 
ATOM      8  C   UNL     1       3.677   4.819  17.573  0.00  0.00    +0.000 A 
ATOM      9  I   UNL     1       2.211   3.366  17.803  0.00  0.00    +0.000 I 
ATOM     10  C   UNL     1       4.896   4.494  16.982  0.00  0.00    +0.000 A 
ATOM     11  C   UNL     1       5.892   5.476  16.832  0.00  0.00    +0.000 A 
BRANCH  11  12
ATOM     12  C   UNL     1       7.219   5.076  16.286  0.00  0.00    +0.000 C 
ATOM     13  N   UNL     1       8.036   4.343  17.106  0.00  0.00    +0.000 N 
ATOM     14  O   UNL     1       7.590   5.433  15.174  0.00  0.00    +0.000 OA
ATOM     15  H   UNL     1       7.868   4.247  18.098  0.00  0.00    +0.000 HD
ATOM     16  H   UNL     1       8.980   4.178  16.782  0.00  0.00    +0.000 HD
ENDBRANCH  11  12
ENDBRANCH   3   5
BRANCH   1  18
ATOM     17  C   UNL     1       8.372  10.342  18.387  0.00  0.00    +0.000 C 
ATOM     18  C   UNL     1       8.379   9.389  17.440  0.00  0.00    +0.000 C 
BRANCH  17  24
ATOM     19  C   UNL     1      10.216  12.091  18.666  0.00  0.00    +0.000 A 
ATOM     20  C   UNL     1      10.637  13.411  18.457  0.00  0.00    +0.000 A 
ATOM     21  C   UNL     1       9.793  14.344  17.848  0.00  0.00    +0.000 A 
ATOM     22  C   UNL     1       8.521  13.967  17.440  0.00  0.00    +0.000 A 
ATOM     23  C   UNL     1       8.087  12.659  17.651  0.00  0.00    +0.000 A 
ATOM     24  C   UNL     1       8.914  11.710  18.281  0.00  0.00    +0.000 A 
BRANCH  19  26
ATOM     25  C   UNL     1      12.333  11.510  19.593  0.00  0.00    +0.000 C 
ATOM     26  O   UNL     1      11.005  11.133  19.253  0.00  0.00    +0.000 OA
ENDBRANCH  19  26
ENDBRANCH  17  24
ENDBRANCH   1  18
TORSDOF 5
ENDMDL
MODEL 6
REMARK VINA RESULT:      -7.3      1.338      1.338
REMARK  Name = 
REMARK  6 active torsions:
REMARK  status: ('A' for Active; 'I' for Inactive)
REMARK    1  A    between atoms: C_1  and  O_2
REMARK    2  A    between atoms: O_2  and  C_3
REMARK    3  A    between atoms: C_8  and  C_9
REMARK    4  A    between atoms: C_10  and  C_11
REMARK    5  A    between atoms: N_13  and  C_14
REMARK    6  A    between atoms: C_20  and  C_21
REMARK                            x       y       z     vdW  Elec       q    Type
REMARK                         _______ _______ _______ _____ _____    ______ ____
ROOT
ATOM      1  C   UNL     1       7.234   7.715  17.747  0.00  0.00    +0.000 C 
ATOM      2  O   UNL     1       6.516   8.009  16.794  0.00  0.00    +0.000 OA
ATOM      3  N   UNL     1       6.974   6.722  18.668  0.00  0.00    +0.000 N 
ATOM      4  H   UNL     1       7.517   6.698  19.533  0.00  0.00    +0.000 HD
ENDROOT
BRANCH   3   5
ATOM      5  C   UNL     1       5.987   5.707  18.539  0.00  0.00    +0.000 A 
ATOM      6  C   UNL     1       4.815   5.733  19.309  0.00  0.00    +0.000 A 
ATOM      7  C   UNL     1       3.809   4.777  19.142  0.00  0.00    +0.000 A 
ATOM      8  C   UNL     1       3.951   3.789  18.178  0.00  0.00    +0.000 A 
ATOM      9  I   UNL     1       2.433   2.399  17.897  0.00  0.00    +0.000 I 
ATOM     10  C   UNL     1       5.105   3.730  17.399  0.00  0.00    +0.000 A 
ATOM     11  C   UNL     1       6.136   4.668  17.594  0.00  0.00    +0.000 A 
BRANCH  11  12
ATOM     12  C   UNL     1       7.397   4.521  16.816  0.00  0.00    +0.000 C 
ATOM     13  N   UNL     1       7.332   4.765  15.469  0.00  0.00    +0.000 N 
ATOM     14  O   UNL     1       8.437   4.144  17.342  0.00  0.00    +0.000 OA
ATOM     15  H   UNL     1       6.455   4.832  14.970  0.00  0.00    +0.000 HD
ATOM     16  H   UNL     1       8.154   4.546  14.924  0.00  0.00    +0.000 HD
ENDBRANCH  11  12
ENDBRANCH   3   5
BRANCH   1  18
ATOM     17  C   UNL     1       8.408   9.687  18.531  0.00  0.00    +0.000 C 
ATOM     18  C   UNL     1       8.499   8.458  17.996  0.00  0.00    +0.000 C 
BRANCH  17  24
ATOM     19  C   UNL     1       9.858  11.098  20.094  0.00  0.00    +0.000 A 
ATOM     20  C   UNL     1      10.972  11.936  20.241  0.00  0.00    +0.000 A 
ATOM     21  C   UNL     1      11.758  12.283  19.138  0.00  0.00    +0.000 A 
ATOM     22  C   UNL     1      11.440  11.794  17.878  0.00  0.00    +0.000 A 
ATOM     23  C   UNL     1      10.329  10.968  17.717  0.00  0.00    +0.000 A 
ATOM     24  C   UNL     1       9.513  10.624  18.812  0.00  0.00    +0.000 A 
BRANCH  19  26
ATOM     25  C   UNL     1       8.589  11.752  22.002  0.00  0.00    +0.000 C 
ATOM     26  O   UNL     1       9.056  10.720  21.142  0.00  0.00    +0.000 OA
ENDBRANCH  19  26
ENDBRANCH  17  24
ENDBRANCH   1  18
TORSDOF 5
ENDMDL
MODEL 7
REMARK VINA RESULT:      -7.2      5.325      7.507
REMARK  Name = 
REMARK  6 active torsions:
REMARK  status: ('A' for Active; 'I' for Inactive)
REMARK    1  A    between atoms: C_1  and  O_2
REMARK    2  A    between atoms: O_2  and  C_3
REMARK    3  A    between atoms: C_8  and  C_9
REMARK    4  A    between atoms: C_10  and  C_11
REMARK    5  A    between atoms: N_13  and  C_14
REMARK    6  A    between atoms: C_20  and  C_21
REMARK                            x       y       z     vdW  Elec       q    Type
REMARK                         _______ _______ _______ _____ _____    ______ ____
ROOT
ATOM      1  C   UNL     1       2.417   6.190  19.830  0.00  0.00    +0.000 C 
ATOM      2  O   UNL     1       1.828   5.643  20.759  0.00  0.00    +0.000 OA
ATOM      3  N   UNL     1       2.169   7.465  19.365  0.00  0.00    +0.000 N 
ATOM      4  H   UNL     1       2.561   7.744  18.464  0.00  0.00    +0.000 HD
ENDROOT
BRANCH   3   5
ATOM      5  C   UNL     1       1.387   8.452  20.024  0.00  0.00    +0.000 A 
ATOM      6  C   UNL     1       0.770   8.185  21.255  0.00  0.00    +0.000 A 
ATOM      7  C   UNL     1       0.053   9.169  21.941  0.00  0.00    +0.000 A 
ATOM      8  C   UNL     1      -0.036  10.450  21.416  0.00  0.00    +0.000 A 
ATOM      9  I   UNL     1      -1.059  11.924  22.462  0.00  0.00    +0.000 I 
ATOM     10  C   UNL     1       0.560  10.748  20.192  0.00  0.00    +0.000 A 
ATOM     11  C   UNL     1       1.247   9.747  19.479  0.00  0.00    +0.000 A 
BRANCH  11  12
ATOM     12  C   UNL     1       1.789  10.070  18.130  0.00  0.00    +0.000 C 
ATOM     13  N   UNL     1       2.154  11.370  17.899  0.00  0.00    +0.000 N 
ATOM     14  O   UNL     1       1.856   9.225  17.246  0.00  0.00    +0.000 OA
ATOM     15  H   UNL     1       1.884  12.129  18.510  0.00  0.00    +0.000 HD
ATOM     16  H   UNL     1       2.405  11.613  16.950  0.00  0.00    +0.000 HD
ENDBRANCH  11  12
ENDBRANCH   3   5
BRANCH   1  18
ATOM     17  C   UNL     1       4.219   6.175  18.207  0.00  0.00    +0.000 C 
ATOM     18  C   UNL     1       3.493   5.473  19.093  0.00  0.00    +0.000 C 
BRANCH  17  24
ATOM     19  C   UNL     1       6.489   5.079  17.779  0.00  0.00    +0.000 A 
ATOM     20  C   UNL     1       7.403   4.576  16.844  0.00  0.00    +0.000 A 
ATOM     21  C   UNL     1       7.128   4.628  15.474  0.00  0.00    +0.000 A 
ATOM     22  C   UNL     1       5.936   5.180  15.026  0.00  0.00    +0.000 A 
ATOM     23  C   UNL     1       5.023   5.693  15.946  0.00  0.00    +0.000 A 
ATOM     24  C   UNL     1       5.290   5.669  17.328  0.00  0.00    +0.000 A 
BRANCH  19  26
ATOM     25  C   UNL     1       7.869   5.705  19.618  0.00  0.00    +0.000 C 
ATOM     26  O   UNL     1       6.704   5.048  19.135  0.00  0.00    +0.000 OA
ENDBRANCH  19  26
ENDBRANCH  17  24
ENDBRANCH   1  18
TORSDOF 5
ENDMDL
MODEL 8
REMARK VINA RESULT:      -7.2      6.623      9.421
REMARK  Name = 
REMARK  6 active torsions:
REMARK  status: ('A' for Active; 'I' for Inactive)
REMARK    1  A    between atoms: C_1  and  O_2
REMARK    2  A    between atoms: O_2  and  C_3
REMARK    3  A    between atoms: C_8  and  C_9
REMARK    4  A    between atoms: C_10  and  C_11
REMARK    5  A    between atoms: N_13  and  C_14
REMARK    6  A    between atoms: C_20  and  C_21
REMARK                            x       y       z     vdW  Elec       q    Type
REMARK                         _______ _______ _______ _____ _____    ______ ____
ROOT
ATOM      1  C   UNL     1       1.462  10.027  18.543  0.00  0.00    +0.000 C 
ATOM      2  O   UNL     1       1.895  11.167  18.402  0.00  0.00    +0.000 OA
ATOM      3  N   UNL     1       0.448   9.656  19.403  0.00  0.00    +0.000 N 
ATOM      4  H   UNL     1       0.308   8.664  19.600  0.00  0.00    +0.000 HD
ENDROOT
BRANCH   3   5
ATOM      5  C   UNL     1      -0.437  10.544  20.074  0.00  0.00    +0.000 A 
ATOM      6  C   UNL     1      -0.324  10.774  21.453  0.00  0.00    +0.000 A 
ATOM      7  C   UNL     1      -1.146  11.694  22.110  0.00  0.00    +0.000 A 
ATOM      8  C   UNL     1      -2.083  12.420  21.387  0.00  0.00    +0.000 A 
ATOM      9  I   UNL     1      -3.269  13.822  22.356  0.00  0.00    +0.000 I 
ATOM     10  C   UNL     1      -2.225  12.212  20.017  0.00  0.00    +0.000 A 
ATOM     11  C   UNL     1      -1.426  11.256  19.361  0.00  0.00    +0.000 A 
BRANCH  11  12
ATOM     12  C   UNL     1      -1.669  10.986  17.917  0.00  0.00    +0.000 C 
ATOM     13  N   UNL     1      -1.698  12.067  17.076  0.00  0.00    +0.000 N 
ATOM     14  O   UNL     1      -1.887   9.854  17.503  0.00  0.00    +0.000 OA
ATOM     15  H   UNL     1      -1.771  13.018  17.413  0.00  0.00    +0.000 HD
ATOM     16  H   UNL     1      -1.984  11.897  16.122  0.00  0.00    +0.000 HD
ENDBRANCH  11  12
ENDBRANCH   3   5
BRANCH   1  18
ATOM     17  C   UNL     1       2.608   7.891  18.445  0.00  0.00    +0.000 C 
ATOM     18  C   UNL     1       2.038   8.898  17.762  0.00  0.00    +0.000 C 
BRANCH  17  24
ATOM     19  C   UNL     1       2.873   5.374  18.092  0.00  0.00    +0.000 A 
ATOM     20  C   UNL     1       3.565   4.333  17.456  0.00  0.00    +0.000 A 
ATOM     21  C   UNL     1       4.639   4.604  16.603  0.00  0.00    +0.000 A 
ATOM     22  C   UNL     1       5.031   5.916  16.375  0.00  0.00    +0.000 A 
ATOM     23  C   UNL     1       4.358   6.959  17.010  0.00  0.00    +0.000 A 
ATOM     24  C   UNL     1       3.287   6.706  17.888  0.00  0.00    +0.000 A 
BRANCH  19  26
ATOM     25  C   UNL     1       1.392   3.820  19.127  0.00  0.00    +0.000 C 
ATOM     26  O   UNL     1       1.809   5.166  18.933  0.00  0.00    +0.000 OA
ENDBRANCH  19  26
ENDBRANCH  17  24
ENDBRANCH   1  18
TORSDOF 5
ENDMDL
MODEL 9
REMARK VINA RESULT:      -7.2      6.364      9.438
REMARK  Name = 
REMARK  6 active torsions:
REMARK  status: ('A' for Active; 'I' for Inactive)
REMARK    1  A    between atoms: C_1  and  O_2
REMARK    2  A    between atoms: O_2  and  C_3
REMARK    3  A    between atoms: C_8  and  C_9
REMARK    4  A    between atoms: C_10  and  C_11
REMARK    5  A    between atoms: N_13  and  C_14
REMARK    6  A    between atoms: C_20  and  C_21
REMARK                            x       y       z     vdW  Elec       q    Type
REMARK                         _______ _______ _______ _____ _____    ______ ____
ROOT
ATOM      1  C   UNL     1       1.498   9.845  18.495  0.00  0.00    +0.000 C 
ATOM      2  O   UNL     1       2.083  10.896  18.249  0.00  0.00    +0.000 OA
ATOM      3  N   UNL     1       0.502   9.684  19.437  0.00  0.00    +0.000 N 
ATOM      4  H   UNL     1       0.232   8.738  19.711  0.00  0.00    +0.000 HD
ENDROOT
BRANCH   3   5
ATOM      5  C   UNL     1      -0.194  10.734  20.097  0.00  0.00    +0.000 A 
ATOM      6  C   UNL     1       0.127  11.102  21.411  0.00  0.00    +0.000 A 
ATOM      7  C   UNL     1      -0.506  12.175  22.044  0.00  0.00    +0.000 A 
ATOM      8  C   UNL     1      -1.458  12.916  21.358  0.00  0.00    +0.000 A 
ATOM      9  I   UNL     1      -2.362  14.541  22.283  0.00  0.00    +0.000 I 
ATOM     10  C   UNL     1      -1.805  12.574  20.053  0.00  0.00    +0.000 A 
ATOM     11  C   UNL     1      -1.198  11.468  19.428  0.00  0.00    +0.000 A 
BRANCH  11  12
ATOM     12  C   UNL     1      -1.660  11.067  18.070  0.00  0.00    +0.000 C 
ATOM     13  N   UNL     1      -1.761  12.057  17.128  0.00  0.00    +0.000 N 
ATOM     14  O   UNL     1      -1.988   9.915  17.817  0.00  0.00    +0.000 OA
ATOM     15  H   UNL     1      -1.739  13.040  17.365  0.00  0.00    +0.000 HD
ATOM     16  H   UNL     1      -2.189  11.808  16.247  0.00  0.00    +0.000 HD
ENDBRANCH  11  12
ENDBRANCH   3   5
BRANCH   1  18
ATOM     17  C   UNL     1       2.408   7.597  18.460  0.00  0.00    +0.000 C 
ATOM     18  C   UNL     1       1.846   8.597  17.762  0.00  0.00    +0.000 C 
BRANCH  17  24
ATOM     19  C   UNL     1       4.191   6.056  17.471  0.00  0.00    +0.000 A 
ATOM     20  C   UNL     1       4.543   4.762  17.060  0.00  0.00    +0.000 A 
ATOM     21  C   UNL     1       3.624   3.711  17.138  0.00  0.00    +0.000 A 
ATOM     22  C   UNL     1       2.346   3.941  17.628  0.00  0.00    +0.000 A 
ATOM     23  C   UNL     1       1.981   5.225  18.030  0.00  0.00    +0.000 A 
ATOM     24  C   UNL     1       2.884   6.301  17.940  0.00  0.00    +0.000 A 
BRANCH  19  26
ATOM     25  C   UNL     1       6.418   6.836  17.138  0.00  0.00    +0.000 C 
ATOM     26  O   UNL     1       5.054   7.122  17.423  0.00  0.00    +0.000 OA
ENDBRANCH  19  26
ENDBRANCH  17  24
ENDBRANCH   1  18
TORSDOF 5
ENDMDL
