MODEL 1
REMARK VINA RESULT:      -8.3      0.000      0.000
REMARK  Name = 
REMARK  5 active torsions:
REMARK  status: ('A' for Active; 'I' for Inactive)
REMARK    1  A    between atoms: C_1  and  C_2
REMARK    2  A    between atoms: C_2  and  N_3
REMARK    3  A    between atoms: N_3  and  C_4
REMARK    4  A    between atoms: C_6  and  N_7
REMARK    5  A    between atoms: N_10  and  C_11
REMARK                            x       y       z     vdW  Elec       q    Type
REMARK                         _______ _______ _______ _____ _____    ______ ____
ROOT
ATOM      1  C   UNL     1       2.334   5.853  20.286  0.00  0.00    +0.000 A 
ATOM      2  C   UNL     1       1.554   7.056  20.533  0.00  0.00    +0.000 A 
ATOM      3  C   UNL     1       1.462   8.245  19.729  0.00  0.00    +0.000 A 
ATOM      4  C   UNL     1       2.274   8.125  18.568  0.00  0.00    +0.000 A 
ATOM      5  N   UNL     1       2.559   8.965  17.543  0.00  0.00    +0.000 NA
ATOM      6  O   UNL     1       3.467   8.293  16.699  0.00  0.00    +0.000 OA
ATOM      7  C   UNL     1       3.708   7.058  17.201  0.00  0.00    +0.000 A 
ATOM      8  C   UNL     1       2.998   6.915  18.346  0.00  0.00    +0.000 A 
ATOM      9  C   UNL     1       3.066   5.743  19.085  0.00  0.00    +0.000 A 
ATOM     10  C   UNL     1       3.816   4.597  18.481  0.00  0.00    +0.000 C 
ATOM     11  O   UNL     1       3.758   3.453  18.908  0.00  0.00    +0.000 OA
ATOM     12  C   UNL     1       4.644   4.839  17.254  0.00  0.00    +0.000 A 
ATOM     13  C   UNL     1       5.449   3.803  16.766  0.00  0.00    +0.000 A 
ATOM     14  C   UNL     1       6.204   4.004  15.617  0.00  0.00    +0.000 A 
ATOM     15  C   UNL     1       6.162   5.239  14.966  0.00  0.00    +0.000 A 
ATOM     16  C   UNL     1       5.354   6.281  15.449  0.00  0.00    +0.000 A 
ATOM     17  C   UNL     1       4.589   6.086  16.595  0.00  0.00    +0.000 A 
ENDROOT
BRANCH   3  18
ATOM     18  N   UNL     1       0.616   9.260  20.168  0.00  0.00    +0.000 N 
ATOM     19  C   UNL     1       0.087  10.280  19.256  0.00  0.00    +0.000 C 
ATOM     20  C   UNL     1      -1.198  10.910  19.900  0.00  0.00    +0.000 C 
ATOM     21  N   UNL     1      -1.072  11.436  21.305  0.00  0.00    +0.000 NA
ATOM     22  C   UNL     1      -0.461  10.337  22.101  0.00  0.00    +0.000 C 
ATOM     23  C   UNL     1       0.862   9.767  21.530  0.00  0.00    +0.000 C 
BRANCH  21  24
ATOM     24  C   UNL     1      -0.328  12.722  21.360  0.00  0.00    +0.000 C 
ATOM     25  C   UNL     1      -0.773  13.689  20.228  0.00  0.00    +0.000 C 
ATOM     26  C   UNL     1      -2.117  14.375  20.476  0.00  0.00    +0.000 C 
ATOM     27  C   UNL     1      -2.119  15.135  21.795  0.00  0.00    +0.000 C 
ATOM     28  C   UNL     1      -1.750  14.214  22.951  0.00  0.00    +0.000 C 
ATOM     29  C   UNL     1      -0.417  13.509  22.699  0.00  0.00    +0.000 C 
ENDBRANCH  21  24
ENDBRANCH   3  18
BRANCH   1  30
ATOM     30  N   UNL     1       2.207   4.868  21.282  0.00  0.00    +0.000 N 
ATOM     31  H   UNL     1       3.096   4.605  21.692  0.00  0.00    +0.000 HD
BRANCH  30  33
ATOM     32  C   UNL     1       1.910   2.495  21.767  0.00  0.00    +0.000 C 
ATOM     33  C   UNL     1       1.313   3.727  21.103  0.00  0.00    +0.000 C 
ENDBRANCH  30  33
ENDBRANCH   1  30
TORSDOF 4
ENDMDL
MODEL 2
REMARK VINA RESULT:      -8.1      2.803      9.636
REMARK  Name = 
REMARK  5 active torsions:
REMARK  status: ('A' for Active; 'I' for Inactive)
REMARK    1  A    between atoms: C_1  and  C_2
REMARK    2  A    between atoms: C_2  and  N_3
REMARK    3  A    between atoms: N_3  and  C_4
REMARK    4  A    between atoms: C_6  and  N_7
REMARK    5  A    between atoms: N_10  and  C_11
REMARK                            x       y       z     vdW  Elec       q    Type
REMARK                         _______ _______ _______ _____ _____    ______ ____
ROOT
ATOM      1  C   UNL     1      -1.249  11.063  18.434  0.00  0.00    +0.000 A 
ATOM      2  C   UNL     1      -0.204  10.054  18.372  0.00  0.00    +0.000 A 
ATOM      3  C   UNL     1       0.661   9.594  19.426  0.00  0.00    +0.000 A 
ATOM      4  C   UNL     1       0.374  10.277  20.639  0.00  0.00    +0.000 A 
ATOM      5  N   UNL     1       0.921  10.240  21.879  0.00  0.00    +0.000 NA
ATOM      6  O   UNL     1       0.227  11.180  22.666  0.00  0.00    +0.000 OA
ATOM      7  C   UNL     1      -0.739  11.761  21.914  0.00  0.00    +0.000 A 
ATOM      8  C   UNL     1      -0.683  11.237  20.666  0.00  0.00    +0.000 A 
ATOM      9  C   UNL     1      -1.555  11.662  19.674  0.00  0.00    +0.000 A 
ATOM     10  C   UNL     1      -2.656  12.590  20.085  0.00  0.00    +0.000 C 
ATOM     11  O   UNL     1      -3.616  12.852  19.375  0.00  0.00    +0.000 OA
ATOM     12  C   UNL     1      -2.621  13.195  21.456  0.00  0.00    +0.000 A 
ATOM     13  C   UNL     1      -3.574  14.162  21.794  0.00  0.00    +0.000 A 
ATOM     14  C   UNL     1      -3.569  14.716  23.068  0.00  0.00    +0.000 A 
ATOM     15  C   UNL     1      -2.606  14.311  23.997  0.00  0.00    +0.000 A 
ATOM     16  C   UNL     1      -1.649  13.338  23.665  0.00  0.00    +0.000 A 
ATOM     17  C   UNL     1      -1.652  12.774  22.393  0.00  0.00    +0.000 A 
ENDROOT
BRANCH   3  18
ATOM     18  N   UNL     1       1.574   8.587  19.122  0.00  0.00    +0.000 N 
ATOM     19  C   UNL     1       2.065   8.370  17.757  0.00  0.00    +0.000 C 
ATOM     20  C   UNL     1       3.417   7.576  17.832  0.00  0.00    +0.000 C 
ATOM     21  N   UNL     1       3.419   6.301  18.631  0.00  0.00    +0.000 NA
ATOM     22  C   UNL     1       2.835   6.645  19.956  0.00  0.00    +0.000 C 
ATOM     23  C   UNL     1       1.452   7.344  19.903  0.00  0.00    +0.000 C 
BRANCH  21  24
ATOM     24  C   UNL     1       2.727   5.192  17.922  0.00  0.00    +0.000 C 
ATOM     25  C   UNL     1       3.701   4.400  17.008  0.00  0.00    +0.000 C 
ATOM     26  C   UNL     1       4.626   3.438  17.755  0.00  0.00    +0.000 C 
ATOM     27  C   UNL     1       3.835   2.448  18.598  0.00  0.00    +0.000 C 
ATOM     28  C   UNL     1       2.907   3.176  19.560  0.00  0.00    +0.000 C 
ATOM     29  C   UNL     1       1.993   4.155  18.822  0.00  0.00    +0.000 C 
ENDBRANCH  21  24
ENDBRANCH   3  18
BRANCH   1  30
ATOM     30  N   UNL     1      -1.910  11.284  17.212  0.00  0.00    +0.000 N 
ATOM     31  H   UNL     1      -2.314  12.213  17.144  0.00  0.00    +0.000 HD
BRANCH  30  33
ATOM     32  C   UNL     1      -2.986  10.557  15.147  0.00  0.00    +0.000 C 
ATOM     33  C   UNL     1      -2.765  10.258  16.622  0.00  0.00    +0.000 C 
ENDBRANCH  30  33
ENDBRANCH   1  30
TORSDOF 4
ENDMDL
MODEL 3
REMARK VINA RESULT:      -8.0      0.822      1.342
REMARK  Name = 
REMARK  5 active torsions:
REMARK  status: ('A' for Active; 'I' for Inactive)
REMARK    1  A    between atoms: C_1  and  C_2
REMARK    2  A    between atoms: C_2  and  N_3
REMARK    3  A    between atoms: N_3  and  C_4
REMARK    4  A    between atoms: C_6  and  N_7
REMARK    5  A    between atoms: N_10  and  C_11
REMARK                            x       y       z     vdW  Elec       q    Type
REMARK                         _______ _______ _______ _____ _____    ______ ____
ROOT
ATOM      1  C   UNL     1       2.361   5.731  20.421  0.00  0.00    +0.000 A 
ATOM      2  C   UNL     1       1.708   6.972  20.807  0.00  0.00    +0.000 A 
ATOM      3  C   UNL     1       1.684   8.228  20.105  0.00  0.00    +0.000 A 
ATOM      4  C   UNL     1       2.419   8.134  18.893  0.00  0.00    +0.000 A 
ATOM      5  N   UNL     1       2.727   9.028  17.921  0.00  0.00    +0.000 NA
ATOM      6  O   UNL     1       3.523   8.353  16.975  0.00  0.00    +0.000 OA
ATOM      7  C   UNL     1       3.676   7.064  17.363  0.00  0.00    +0.000 A 
ATOM      8  C   UNL     1       3.017   6.888  18.534  0.00  0.00    +0.000 A 
ATOM      9  C   UNL     1       3.017   5.658  19.173  0.00  0.00    +0.000 A 
ATOM     10  C   UNL     1       3.626   4.505  18.438  0.00  0.00    +0.000 C 
ATOM     11  O   UNL     1       3.486   3.339  18.777  0.00  0.00    +0.000 OA
ATOM     12  C   UNL     1       4.408   4.775  17.187  0.00  0.00    +0.000 A 
ATOM     13  C   UNL     1       5.088   3.718  16.572  0.00  0.00    +0.000 A 
ATOM     14  C   UNL     1       5.798   3.947  15.400  0.00  0.00    +0.000 A 
ATOM     15  C   UNL     1       5.835   5.232  14.851  0.00  0.00    +0.000 A 
ATOM     16  C   UNL     1       5.151   6.295  15.462  0.00  0.00    +0.000 A 
ATOM     17  C   UNL     1       4.433   6.073  16.632  0.00  0.00    +0.000 A 
ENDROOT
BRANCH   3  18
ATOM     18  N   UNL     1       0.958   9.272  20.672  0.00  0.00    +0.000 N 
ATOM     19  C   UNL     1      -0.302   9.043  21.388  0.00  0.00    +0.000 C 
ATOM     20  C   UNL     1      -0.572  10.269  22.331  0.00  0.00    +0.000 C 
ATOM     21  N   UNL     1      -0.530  11.637  21.705  0.00  0.00    +0.000 NA
ATOM     22  C   UNL     1       0.755  11.708  20.958  0.00  0.00    +0.000 C 
ATOM     23  C   UNL     1       0.994  10.555  19.949  0.00  0.00    +0.000 C 
BRANCH  21  24
ATOM     24  C   UNL     1      -1.736  11.917  20.882  0.00  0.00    +0.000 C 
ATOM     25  C   UNL     1      -2.954  12.304  21.765  0.00  0.00    +0.000 C 
ATOM     26  C   UNL     1      -2.909  13.734  22.309  0.00  0.00    +0.000 C 
ATOM     27  C   UNL     1      -2.776  14.753  21.187  0.00  0.00    +0.000 C 
ATOM     28  C   UNL     1      -1.556  14.454  20.326  0.00  0.00    +0.000 C 
ATOM     29  C   UNL     1      -1.585  13.020  19.795  0.00  0.00    +0.000 C 
ENDBRANCH  21  24
ENDBRANCH   3  18
BRANCH   1  30
ATOM     30  N   UNL     1       2.197   4.681  21.343  0.00  0.00    +0.000 N 
ATOM     31  H   UNL     1       3.078   4.331  21.704  0.00  0.00    +0.000 HD
BRANCH  30  33
ATOM     32  C   UNL     1       1.723   2.319  21.727  0.00  0.00    +0.000 C 
ATOM     33  C   UNL     1       1.227   3.616  21.106  0.00  0.00    +0.000 C 
ENDBRANCH  30  33
ENDBRANCH   1  30
TORSDOF 4
ENDMDL
MODEL 4
REMARK VINA RESULT:      -7.9      0.860      1.119
REMARK  Name = 
REMARK  5 active torsions:
REMARK  status: ('A' for Active; 'I' for Inactive)
REMARK    1  A    between atoms: C_1  and  C_2
REMARK    2  A    between atoms: C_2  and  N_3
REMARK    3  A    between atoms: N_3  and  C_4
REMARK    4  A    between atoms: C_6  and  N_7
REMARK    5  A    between atoms: N_10  and  C_11
REMARK                            x       y       z     vdW  Elec       q    Type
REMARK                         _______ _______ _______ _____ _____    ______ ____
ROOT
ATOM      1  C   UNL     1       2.436   5.928  20.119  0.00  0.00    +0.000 A 
ATOM      2  C   UNL     1       1.716   7.178  20.312  0.00  0.00    +0.000 A 
ATOM      3  C   UNL     1       1.685   8.334  19.457  0.00  0.00    +0.000 A 
ATOM      4  C   UNL     1       2.491   8.124  18.305  0.00  0.00    +0.000 A 
ATOM      5  N   UNL     1       2.819   8.904  17.246  0.00  0.00    +0.000 NA
ATOM      6  O   UNL     1       3.693   8.152  16.435  0.00  0.00    +0.000 OA
ATOM      7  C   UNL     1       3.872   6.929  16.990  0.00  0.00    +0.000 A 
ATOM      8  C   UNL     1       3.154   6.871  18.137  0.00  0.00    +0.000 A 
ATOM      9  C   UNL     1       3.163   5.730  18.926  0.00  0.00    +0.000 A 
ATOM     10  C   UNL     1       3.856   4.523  18.374  0.00  0.00    +0.000 C 
ATOM     11  O   UNL     1       3.740   3.403  18.850  0.00  0.00    +0.000 OA
ATOM     12  C   UNL     1       4.696   4.670  17.141  0.00  0.00    +0.000 A 
ATOM     13  C   UNL     1       5.449   3.576  16.701  0.00  0.00    +0.000 A 
ATOM     14  C   UNL     1       6.215   3.690  15.547  0.00  0.00    +0.000 A 
ATOM     15  C   UNL     1       6.236   4.897  14.843  0.00  0.00    +0.000 A 
ATOM     16  C   UNL     1       5.479   5.997  15.279  0.00  0.00    +0.000 A 
ATOM     17  C   UNL     1       4.705   5.889  16.430  0.00  0.00    +0.000 A 
ENDROOT
BRANCH   3  18
ATOM     18  N   UNL     1       0.890   9.408  19.850  0.00  0.00    +0.000 N 
ATOM     19  C   UNL     1       1.434  10.762  20.002  0.00  0.00    +0.000 C 
ATOM     20  C   UNL     1       0.250  11.790  19.915  0.00  0.00    +0.000 C 
ATOM     21  N   UNL     1      -0.925  11.559  20.827  0.00  0.00    +0.000 NA
ATOM     22  C   UNL     1      -1.328  10.140  20.627  0.00  0.00    +0.000 C 
ATOM     23  C   UNL     1      -0.190   9.102  20.804  0.00  0.00    +0.000 C 
BRANCH  21  24
ATOM     24  C   UNL     1      -0.623  11.920  22.237  0.00  0.00    +0.000 C 
ATOM     25  C   UNL     1      -0.466  13.455  22.414  0.00  0.00    +0.000 C 
ATOM     26  C   UNL     1      -1.788  14.226  22.427  0.00  0.00    +0.000 C 
ATOM     27  C   UNL     1      -2.727  13.704  23.505  0.00  0.00    +0.000 C 
ATOM     28  C   UNL     1      -2.964  12.209  23.338  0.00  0.00    +0.000 C 
ATOM     29  C   UNL     1      -1.646  11.434  23.304  0.00  0.00    +0.000 C 
ENDBRANCH  21  24
ENDBRANCH   3  18
BRANCH   1  30
ATOM     30  N   UNL     1       2.258   4.995  21.156  0.00  0.00    +0.000 N 
ATOM     31  H   UNL     1       3.134   4.699  21.575  0.00  0.00    +0.000 HD
BRANCH  30  33
ATOM     32  C   UNL     1       1.873   2.638  21.661  0.00  0.00    +0.000 C 
ATOM     33  C   UNL     1       1.302   3.899  21.027  0.00  0.00    +0.000 C 
ENDBRANCH  30  33
ENDBRANCH   1  30
TORSDOF 4
ENDMDL
MODEL 5
REMARK VINA RESULT:      -7.9      2.783      9.519
REMARK  Name = 
REMARK  5 active torsions:
REMARK  status: ('A' for Active; 'I' for Inactive)
REMARK    1  A    between atoms: C_1  and  C_2
REMARK    2  A    between atoms: C_2  and  N_3
REMARK    3  A    between atoms: N_3  and  C_4
REMARK    4  A    between atoms: C_6  and  N_7
REMARK    5  A    between atoms: N_10  and  C_11
REMARK                            x       y       z     vdW  Elec       q    Type
REMARK                         _______ _______ _______ _____ _____    ______ ____
ROOT
ATOM      1  C   UNL     1      -1.027  10.633  18.084  0.00  0.00    +0.000 A 
ATOM      2  C   UNL     1       0.030   9.638  17.991  0.00  0.00    +0.000 A 
ATOM      3  C   UNL     1       0.919   9.175  19.023  0.00  0.00    +0.000 A 
ATOM      4  C   UNL     1       0.644   9.837  20.250  0.00  0.00    +0.000 A 
ATOM      5  N   UNL     1       1.213   9.791  21.479  0.00  0.00    +0.000 NA
ATOM      6  O   UNL     1       0.521  10.712  22.291  0.00  0.00    +0.000 OA
ATOM      7  C   UNL     1      -0.465  11.290  21.564  0.00  0.00    +0.000 A 
ATOM      8  C   UNL     1      -0.424  10.784  20.308  0.00  0.00    +0.000 A 
ATOM      9  C   UNL     1      -1.318  11.211  19.338  0.00  0.00    +0.000 A 
ATOM     10  C   UNL     1      -2.423  12.119  19.780  0.00  0.00    +0.000 C 
ATOM     11  O   UNL     1      -3.399  12.378  19.091  0.00  0.00    +0.000 OA
ATOM     12  C   UNL     1      -2.371  12.706  21.159  0.00  0.00    +0.000 A 
ATOM     13  C   UNL     1      -3.331  13.657  21.526  0.00  0.00    +0.000 A 
ATOM     14  C   UNL     1      -3.310  14.193  22.807  0.00  0.00    +0.000 A 
ATOM     15  C   UNL     1      -2.326  13.788  23.714  0.00  0.00    +0.000 A 
ATOM     16  C   UNL     1      -1.364  12.832  23.352  0.00  0.00    +0.000 A 
ATOM     17  C   UNL     1      -1.382  12.285  22.072  0.00  0.00    +0.000 A 
ENDROOT
BRANCH   3  18
ATOM     18  N   UNL     1       1.838   8.183  18.690  0.00  0.00    +0.000 N 
ATOM     19  C   UNL     1       2.301   7.193  19.669  0.00  0.00    +0.000 C 
ATOM     20  C   UNL     1       2.867   5.950  18.894  0.00  0.00    +0.000 C 
ATOM     21  N   UNL     1       3.907   6.216  17.839  0.00  0.00    +0.000 NA
ATOM     22  C   UNL     1       3.343   7.280  16.965  0.00  0.00    +0.000 C 
ATOM     23  C   UNL     1       2.868   8.557  17.705  0.00  0.00    +0.000 C 
BRANCH  21  24
ATOM     24  C   UNL     1       5.234   6.541  18.427  0.00  0.00    +0.000 C 
ATOM     25  C   UNL     1       5.805   5.350  19.244  0.00  0.00    +0.000 C 
ATOM     26  C   UNL     1       6.383   4.219  18.390  0.00  0.00    +0.000 C 
ATOM     27  C   UNL     1       7.465   4.730  17.449  0.00  0.00    +0.000 C 
ATOM     28  C   UNL     1       6.936   5.861  16.578  0.00  0.00    +0.000 C 
ATOM     29  C   UNL     1       6.338   6.985  17.425  0.00  0.00    +0.000 C 
ENDBRANCH  21  24
ENDBRANCH   3  18
BRANCH   1  30
ATOM     30  N   UNL     1      -1.711  10.862  16.877  0.00  0.00    +0.000 N 
ATOM     31  H   UNL     1      -1.924  11.842  16.724  0.00  0.00    +0.000 HD
BRANCH  30  33
ATOM     32  C   UNL     1      -2.952  10.059  14.935  0.00  0.00    +0.000 C 
ATOM     33  C   UNL     1      -2.794   9.982  16.447  0.00  0.00    +0.000 C 
ENDBRANCH  30  33
ENDBRANCH   1  30
TORSDOF 4
ENDMDL
MODEL 6
REMARK VINA RESULT:      -7.9      2.868      9.768
REMARK  Name = 
REMARK  5 active torsions:
REMARK  status: ('A' for Active; 'I' for Inactive)
REMARK    1  A    between atoms: C_1  and  C_2
REMARK    2  A    between atoms: C_2  and  N_3
REMARK    3  A    between atoms: N_3  and  C_4
REMARK    4  A    between atoms: C_6  and  N_7
REMARK    5  A    between atoms: N_10  and  C_11
REMARK                            x       y       z     vdW  Elec       q    Type
REMARK                         _______ _______ _______ _____ _____    ______ ____
ROOT
ATOM      1  C   UNL     1       0.706  11.701  19.266  0.00  0.00    +0.000 A 
ATOM      2  C   UNL     1       1.257  10.355  19.241  0.00  0.00    +0.000 A 
ATOM      3  C   UNL     1       1.057   9.287  20.184  0.00  0.00    +0.000 A 
ATOM      4  C   UNL     1       0.193   9.705  21.233  0.00  0.00    +0.000 A 
ATOM      5  N   UNL     1      -0.261   9.102  22.358  0.00  0.00    +0.000 NA
ATOM      6  O   UNL     1      -1.067  10.039  23.034  0.00  0.00    +0.000 OA
ATOM      7  C   UNL     1      -1.113  11.185  22.313  0.00  0.00    +0.000 A 
ATOM      8  C   UNL     1      -0.353  11.024  21.203  0.00  0.00    +0.000 A 
ATOM      9  C   UNL     1      -0.207  12.051  20.283  0.00  0.00    +0.000 A 
ATOM     10  C   UNL     1      -1.051  13.272  20.483  0.00  0.00    +0.000 C 
ATOM     11  O   UNL     1      -1.193  14.140  19.634  0.00  0.00    +0.000 OA
ATOM     12  C   UNL     1      -1.810  13.426  21.767  0.00  0.00    +0.000 A 
ATOM     13  C   UNL     1      -2.491  14.624  22.011  0.00  0.00    +0.000 A 
ATOM     14  C   UNL     1      -3.217  14.774  23.185  0.00  0.00    +0.000 A 
ATOM     15  C   UNL     1      -3.253  13.733  24.117  0.00  0.00    +0.000 A 
ATOM     16  C   UNL     1      -2.574  12.528  23.876  0.00  0.00    +0.000 A 
ATOM     17  C   UNL     1      -1.850  12.367  22.699  0.00  0.00    +0.000 A 
ENDROOT
BRANCH   3  18
ATOM     18  N   UNL     1       1.677   8.068  19.923  0.00  0.00    +0.000 N 
ATOM     19  C   UNL     1       2.271   7.763  18.616  0.00  0.00    +0.000 C 
ATOM     20  C   UNL     1       3.317   6.607  18.800  0.00  0.00    +0.000 C 
ATOM     21  N   UNL     1       2.844   5.360  19.498  0.00  0.00    +0.000 NA
ATOM     22  C   UNL     1       2.204   5.815  20.762  0.00  0.00    +0.000 C 
ATOM     23  C   UNL     1       1.098   6.889  20.590  0.00  0.00    +0.000 C 
BRANCH  21  24
ATOM     24  C   UNL     1       1.970   4.527  18.631  0.00  0.00    +0.000 C 
ATOM     25  C   UNL     1       2.742   3.980  17.398  0.00  0.00    +0.000 C 
ATOM     26  C   UNL     1       3.673   2.806  17.707  0.00  0.00    +0.000 C 
ATOM     27  C   UNL     1       2.921   1.656  18.362  0.00  0.00    +0.000 C 
ATOM     28  C   UNL     1       2.196   2.127  19.615  0.00  0.00    +0.000 C 
ATOM     29  C   UNL     1       1.278   3.314  19.317  0.00  0.00    +0.000 C 
ENDBRANCH  21  24
ENDBRANCH   3  18
BRANCH   1  30
ATOM     30  N   UNL     1       1.109  12.510  18.189  0.00  0.00    +0.000 N 
ATOM     31  H   UNL     1       0.898  12.099  17.286  0.00  0.00    +0.000 HD
BRANCH  30  33
ATOM     32  C   UNL     1       2.203  14.655  18.587  0.00  0.00    +0.000 C 
ATOM     33  C   UNL     1       2.398  13.195  18.203  0.00  0.00    +0.000 C 
ENDBRANCH  30  33
ENDBRANCH   1  30
TORSDOF 4
ENDMDL
MODEL 7
REMARK VINA RESULT:      -7.6      3.210     10.136
REMARK  Name = 
REMARK  5 active torsions:
REMARK  status: ('A' for Active; 'I' for Inactive)
REMARK    1  A    between atoms: C_1  and  C_2
REMARK    2  A    between atoms: C_2  and  N_3
REMARK    3  A    between atoms: N_3  and  C_4
REMARK    4  A    between atoms: C_6  and  N_7
REMARK    5  A    between atoms: N_10  and  C_11
REMARK                            x       y       z     vdW  Elec       q    Type
REMARK                         _______ _______ _______ _____ _____    ______ ____
ROOT
ATOM      1  C   UNL     1      -2.457  11.939  19.168  0.00  0.00    +0.000 A 
ATOM      2  C   UNL     1      -1.387  10.954  19.185  0.00  0.00    +0.000 A 
ATOM      3  C   UNL     1      -0.533  10.578  20.280  0.00  0.00    +0.000 A 
ATOM      4  C   UNL     1      -0.861  11.321  21.446  0.00  0.00    +0.000 A 
ATOM      5  N   UNL     1      -0.338  11.369  22.696  0.00  0.00    +0.000 NA
ATOM      6  O   UNL     1      -1.071  12.335  23.413  0.00  0.00    +0.000 OA
ATOM      7  C   UNL     1      -2.035  12.848  22.612  0.00  0.00    +0.000 A 
ATOM      8  C   UNL     1      -1.941  12.255  21.397  0.00  0.00    +0.000 A 
ATOM      9  C   UNL     1      -2.802  12.600  20.366  0.00  0.00    +0.000 A 
ATOM     10  C   UNL     1      -3.933  13.522  20.701  0.00  0.00    +0.000 C 
ATOM     11  O   UNL     1      -4.885  13.719  19.960  0.00  0.00    +0.000 OA
ATOM     12  C   UNL     1      -3.940  14.206  22.036  0.00  0.00    +0.000 A 
ATOM     13  C   UNL     1      -4.923  15.167  22.299  0.00  0.00    +0.000 A 
ATOM     14  C   UNL     1      -4.956  15.793  23.539  0.00  0.00    +0.000 A 
ATOM     15  C   UNL     1      -4.003  15.466  24.508  0.00  0.00    +0.000 A 
ATOM     16  C   UNL     1      -3.017  14.500  24.250  0.00  0.00    +0.000 A 
ATOM     17  C   UNL     1      -2.981  13.863  23.013  0.00  0.00    +0.000 A 
ENDROOT
BRANCH   3  18
ATOM     18  N   UNL     1       0.409   9.577  20.052  0.00  0.00    +0.000 N 
ATOM     19  C   UNL     1       0.816   9.188  18.698  0.00  0.00    +0.000 C 
ATOM     20  C   UNL     1       2.211   8.472  18.780  0.00  0.00    +0.000 C 
ATOM     21  N   UNL     1       2.336   7.326  19.748  0.00  0.00    +0.000 NA
ATOM     22  C   UNL     1       1.826   7.831  21.052  0.00  0.00    +0.000 C 
ATOM     23  C   UNL     1       0.408   8.455  21.007  0.00  0.00    +0.000 C 
BRANCH  21  24
ATOM     24  C   UNL     1       1.657   6.098  19.256  0.00  0.00    +0.000 C 
ATOM     25  C   UNL     1       2.394   5.488  18.032  0.00  0.00    +0.000 C 
ATOM     26  C   UNL     1       3.672   4.724  18.383  0.00  0.00    +0.000 C 
ATOM     27  C   UNL     1       3.401   3.617  19.391  0.00  0.00    +0.000 C 
ATOM     28  C   UNL     1       2.734   4.175  20.641  0.00  0.00    +0.000 C 
ATOM     29  C   UNL     1       1.466   4.957  20.296  0.00  0.00    +0.000 C 
ENDBRANCH  21  24
ENDBRANCH   3  18
BRANCH   1  30
ATOM     30  N   UNL     1      -3.098  12.073  17.924  0.00  0.00    +0.000 N 
ATOM     31  H   UNL     1      -3.785  12.820  17.912  0.00  0.00    +0.000 HD
BRANCH  30  33
ATOM     32  C   UNL     1      -2.942  10.935  15.771  0.00  0.00    +0.000 C 
ATOM     33  C   UNL     1      -3.535  10.901  17.172  0.00  0.00    +0.000 C 
ENDBRANCH  30  33
ENDBRANCH   1  30
TORSDOF 4
ENDMDL
MODEL 8
REMARK VINA RESULT:      -7.5      2.880      5.879
REMARK  Name = 
REMARK  5 active torsions:
REMARK  status: ('A' for Active; 'I' for Inactive)
REMARK    1  A    between atoms: C_1  and  C_2
REMARK    2  A    between atoms: C_2  and  N_3
REMARK    3  A    between atoms: N_3  and  C_4
REMARK    4  A    between atoms: C_6  and  N_7
REMARK    5  A    between atoms: N_10  and  C_11
REMARK                            x       y       z     vdW  Elec       q    Type
REMARK                         _______ _______ _______ _____ _____    ______ ____
ROOT
ATOM      1  C   UNL     1      -0.532  11.398  19.090  0.00  0.00    +0.000 A 
ATOM      2  C   UNL     1      -1.100  12.162  20.190  0.00  0.00    +0.000 A 
ATOM      3  C   UNL     1      -1.023  11.895  21.601  0.00  0.00    +0.000 A 
ATOM      4  C   UNL     1      -0.274  10.712  21.843  0.00  0.00    +0.000 A 
ATOM      5  N   UNL     1       0.043  10.026  22.969  0.00  0.00    +0.000 NA
ATOM      6  O   UNL     1       0.785   8.897  22.570  0.00  0.00    +0.000 OA
ATOM      7  C   UNL     1       0.931   8.914  21.224  0.00  0.00    +0.000 A 
ATOM      8  C   UNL     1       0.295  10.008  20.739  0.00  0.00    +0.000 A 
ATOM      9  C   UNL     1       0.269  10.272  19.378  0.00  0.00    +0.000 A 
ATOM     10  C   UNL     1       1.106   9.398  18.496  0.00  0.00    +0.000 C 
ATOM     11  O   UNL     1       1.356   9.661  17.329  0.00  0.00    +0.000 OA
ATOM     12  C   UNL     1       1.721   8.160  19.076  0.00  0.00    +0.000 A 
ATOM     13  C   UNL     1       2.392   7.275  18.225  0.00  0.00    +0.000 A 
ATOM     14  C   UNL     1       2.987   6.135  18.751  0.00  0.00    +0.000 A 
ATOM     15  C   UNL     1       2.902   5.877  20.122  0.00  0.00    +0.000 A 
ATOM     16  C   UNL     1       2.233   6.764  20.981  0.00  0.00    +0.000 A 
ATOM     17  C   UNL     1       1.640   7.911  20.463  0.00  0.00    +0.000 A 
ENDROOT
BRANCH   3  18
ATOM     18  N   UNL     1      -1.632  12.801  22.466  0.00  0.00    +0.000 N 
ATOM     19  C   UNL     1      -3.080  13.031  22.456  0.00  0.00    +0.000 C 
ATOM     20  C   UNL     1      -3.498  13.652  23.836  0.00  0.00    +0.000 C 
ATOM     21  N   UNL     1      -2.746  14.873  24.293  0.00  0.00    +0.000 NA
ATOM     22  C   UNL     1      -1.302  14.531  24.186  0.00  0.00    +0.000 C 
ATOM     23  C   UNL     1      -0.852  14.006  22.798  0.00  0.00    +0.000 C 
BRANCH  21  24
ATOM     24  C   UNL     1      -3.146  16.094  23.543  0.00  0.00    +0.000 C 
ATOM     25  C   UNL     1      -4.635  16.459  23.798  0.00  0.00    +0.000 C 
ATOM     26  C   UNL     1      -4.900  17.119  25.152  0.00  0.00    +0.000 C 
ATOM     27  C   UNL     1      -4.052  18.370  25.337  0.00  0.00    +0.000 C 
ATOM     28  C   UNL     1      -2.574  18.052  25.160  0.00  0.00    +0.000 C 
ATOM     29  C   UNL     1      -2.304  17.373  23.816  0.00  0.00    +0.000 C 
ENDBRANCH  21  24
ENDBRANCH   3  18
BRANCH   1  30
ATOM     30  N   UNL     1      -0.800  11.931  17.817  0.00  0.00    +0.000 N 
ATOM     31  H   UNL     1      -0.479  12.888  17.715  0.00  0.00    +0.000 HD
BRANCH  30  33
ATOM     32  C   UNL     1      -2.190  10.239  16.741  0.00  0.00    +0.000 C 
ATOM     33  C   UNL     1      -2.082  11.698  17.158  0.00  0.00    +0.000 C 
ENDBRANCH  30  33
ENDBRANCH   1  30
TORSDOF 4
ENDMDL
MODEL 9
REMARK VINA RESULT:      -7.5      2.838      6.028
REMARK  Name = 
REMARK  5 active torsions:
REMARK  status: ('A' for Active; 'I' for Inactive)
REMARK    1  A    between atoms: C_1  and  C_2
REMARK    2  A    between atoms: C_2  and  N_3
REMARK    3  A    between atoms: N_3  and  C_4
REMARK    4  A    between atoms: C_6  and  N_7
REMARK    5  A    between atoms: N_10  and  C_11
REMARK                            x       y       z     vdW  Elec       q    Type
REMARK                         _______ _______ _______ _____ _____    ______ ____
ROOT
ATOM      1  C   UNL     1       0.285  11.832  19.225  0.00  0.00    +0.000 A 
ATOM      2  C   UNL     1      -0.440  12.517  20.283  0.00  0.00    +0.000 A 
ATOM      3  C   UNL     1      -0.805  12.023  21.584  0.00  0.00    +0.000 A 
ATOM      4  C   UNL     1      -0.349  10.688  21.755  0.00  0.00    +0.000 A 
ATOM      5  N   UNL     1      -0.473   9.785  22.759  0.00  0.00    +0.000 NA
ATOM      6  O   UNL     1       0.164   8.603  22.332  0.00  0.00    +0.000 OA
ATOM      7  C   UNL     1       0.682   8.799  21.096  0.00  0.00    +0.000 A 
ATOM      8  C   UNL     1       0.388  10.062  20.705  0.00  0.00    +0.000 A 
ATOM      9  C   UNL     1       0.786  10.535  19.463  0.00  0.00    +0.000 A 
ATOM     10  C   UNL     1       1.688   9.655  18.655  0.00  0.00    +0.000 C 
ATOM     11  O   UNL     1       2.294  10.038  17.664  0.00  0.00    +0.000 OA
ATOM     12  C   UNL     1       1.913   8.241  19.102  0.00  0.00    +0.000 A 
ATOM     13  C   UNL     1       2.648   7.380  18.279  0.00  0.00    +0.000 A 
ATOM     14  C   UNL     1       2.884   6.074  18.689  0.00  0.00    +0.000 A 
ATOM     15  C   UNL     1       2.379   5.629  19.914  0.00  0.00    +0.000 A 
ATOM     16  C   UNL     1       1.644   6.490  20.745  0.00  0.00    +0.000 A 
ATOM     17  C   UNL     1       1.409   7.802  20.344  0.00  0.00    +0.000 A 
ENDROOT
BRANCH   3  18
ATOM     18  N   UNL     1      -1.481  12.890  22.440  0.00  0.00    +0.000 N 
ATOM     19  C   UNL     1      -2.937  13.055  22.386  0.00  0.00    +0.000 C 
ATOM     20  C   UNL     1      -3.427  13.638  23.759  0.00  0.00    +0.000 C 
ATOM     21  N   UNL     1      -2.745  14.885  24.255  0.00  0.00    +0.000 NA
ATOM     22  C   UNL     1      -1.284  14.609  24.190  0.00  0.00    +0.000 C 
ATOM     23  C   UNL     1      -0.767  14.124  22.811  0.00  0.00    +0.000 C 
BRANCH  21  24
ATOM     24  C   UNL     1      -3.176  16.097  23.507  0.00  0.00    +0.000 C 
ATOM     25  C   UNL     1      -4.671  16.429  23.768  0.00  0.00    +0.000 C 
ATOM     26  C   UNL     1      -4.944  17.083  25.124  0.00  0.00    +0.000 C 
ATOM     27  C   UNL     1      -4.123  18.352  25.305  0.00  0.00    +0.000 C 
ATOM     28  C   UNL     1      -2.638  18.067  25.121  0.00  0.00    +0.000 C 
ATOM     29  C   UNL     1      -2.361  17.394  23.776  0.00  0.00    +0.000 C 
ENDBRANCH  21  24
ENDBRANCH   3  18
BRANCH   1  30
ATOM     30  N   UNL     1       0.472  12.601  18.063  0.00  0.00    +0.000 N 
ATOM     31  H   UNL     1       0.660  12.036  17.241  0.00  0.00    +0.000 HD
BRANCH  30  33
ATOM     32  C   UNL     1       2.739  13.488  18.234  0.00  0.00    +0.000 C 
ATOM     33  C   UNL     1       1.263  13.828  18.090  0.00  0.00    +0.000 C 
ENDBRANCH  30  33
ENDBRANCH   1  30
TORSDOF 4
ENDMDL
