MODEL 1
REMARK VINA RESULT:      -8.6      0.000      0.000
REMARK  Name = 
REMARK  6 active torsions:
REMARK  status: ('A' for Active; 'I' for Inactive)
REMARK    1  A    between atoms: C_1  and  C_2
REMARK    2  A    between atoms: C_5  and  O_6
REMARK    3  A    between atoms: C_7  and  C_8
REMARK    4  A    between atoms: C_7  and  C_9
REMARK    5  A    between atoms: C_14  and  C_15
REMARK    6  A    between atoms: C_19  and  C_20
REMARK                            x       y       z     vdW  Elec       q    Type
REMARK                         _______ _______ _______ _____ _____    ______ ____
ROOT
ATOM      1  C   UNL     1       2.280   6.426  19.620  0.00  0.00    +0.000 C 
ATOM      2  C   UNL     1       2.317   4.901  19.738  0.00  0.00    +0.000 C 
ATOM      3  C   UNL     1       0.924   4.296  19.526  0.00  0.00    +0.000 C 
ATOM      4  C   UNL     1       0.908   2.823  19.929  0.00  0.00    +0.000 C 
ATOM      5  C   UNL     1       2.040   2.020  19.309  0.00  0.00    +0.000 C 
ATOM      6  C   UNL     1       3.475   2.634  19.429  0.00  0.00    +0.000 C 
ATOM      7  C   UNL     1       4.407   1.561  18.789  0.00  0.00    +0.000 C 
ATOM      8  C   UNL     1       4.093   2.719  20.872  0.00  0.00    +0.000 C 
ATOM      9  C   UNL     1       3.432   4.143  18.888  0.00  0.00    +0.000 C 
ATOM     10  C   UNL     1       3.190   4.388  17.377  0.00  0.00    +0.000 C 
ATOM     11  C   UNL     1       4.572   4.563  16.923  0.00  0.00    +0.000 A 
ATOM     12  C   UNL     1       5.042   4.586  15.615  0.00  0.00    +0.000 A 
ATOM     13  C   UNL     1       6.413   4.729  15.396  0.00  0.00    +0.000 A 
ATOM     14  C   UNL     1       7.283   4.853  16.505  0.00  0.00    +0.000 A 
ATOM     15  C   UNL     1       6.782   4.884  17.816  0.00  0.00    +0.000 A 
ATOM     16  C   UNL     1       5.417   4.743  17.995  0.00  0.00    +0.000 A 
ATOM     17  O   UNL     1       4.738   4.747  19.197  0.00  0.00    +0.000 OA
ENDROOT
BRANCH  13  18
ATOM     18  C   UNL     1       6.953   4.737  13.974  0.00  0.00    +0.000 C 
ATOM     19  O   UNL     1       6.410   3.939  13.159  0.00  0.00    +0.000 OA
ATOM     20  O   UNL     1       7.887   5.563  13.723  0.00  0.00    +0.000 OA
ENDBRANCH  13  18
BRANCH   5  21
ATOM     21  O   UNL     1       1.705   1.787  17.937  0.00  0.00    +0.000 OA
ATOM     22  H   UNL     1       1.324   0.902  17.801  0.00  0.00    +0.000 HD
ENDBRANCH   5  21
BRANCH  15  23
ATOM     23  C   UNL     1       7.641   5.014  18.939  0.00  0.00    +0.000 C 
ATOM     24  N   UNL     1       8.328   5.166  19.889  0.00  0.00    +0.000 NA
ENDBRANCH  15  23
TORSDOF 3
ENDMDL
MODEL 2
REMARK VINA RESULT:      -7.3      2.477      3.828
REMARK  Name = 
REMARK  6 active torsions:
REMARK  status: ('A' for Active; 'I' for Inactive)
REMARK    1  A    between atoms: C_1  and  C_2
REMARK    2  A    between atoms: C_5  and  O_6
REMARK    3  A    between atoms: C_7  and  C_8
REMARK    4  A    between atoms: C_7  and  C_9
REMARK    5  A    between atoms: C_14  and  C_15
REMARK    6  A    between atoms: C_19  and  C_20
REMARK                            x       y       z     vdW  Elec       q    Type
REMARK                         _______ _______ _______ _____ _____    ______ ____
ROOT
ATOM      1  C   UNL     1       4.473   1.417  19.742  0.00  0.00    +0.000 C 
ATOM      2  C   UNL     1       3.288   2.381  19.642  0.00  0.00    +0.000 C 
ATOM      3  C   UNL     1       2.552   2.494  20.982  0.00  0.00    +0.000 C 
ATOM      4  C   UNL     1       1.218   3.215  20.806  0.00  0.00    +0.000 C 
ATOM      5  C   UNL     1       1.341   4.526  20.047  0.00  0.00    +0.000 C 
ATOM      6  C   UNL     1       2.152   4.481  18.708  0.00  0.00    +0.000 C 
ATOM      7  C   UNL     1       2.028   5.925  18.135  0.00  0.00    +0.000 C 
ATOM      8  C   UNL     1       1.526   3.654  17.526  0.00  0.00    +0.000 C 
ATOM      9  C   UNL     1       3.578   3.809  18.998  0.00  0.00    +0.000 C 
ATOM     10  C   UNL     1       4.602   4.577  19.874  0.00  0.00    +0.000 C 
ATOM     11  C   UNL     1       5.420   5.194  18.828  0.00  0.00    +0.000 A 
ATOM     12  C   UNL     1       6.371   6.199  18.972  0.00  0.00    +0.000 A 
ATOM     13  C   UNL     1       7.020   6.678  17.834  0.00  0.00    +0.000 A 
ATOM     14  C   UNL     1       6.700   6.127  16.570  0.00  0.00    +0.000 A 
ATOM     15  C   UNL     1       5.780   5.074  16.453  0.00  0.00    +0.000 A 
ATOM     16  C   UNL     1       5.158   4.622  17.604  0.00  0.00    +0.000 A 
ATOM     17  O   UNL     1       4.229   3.604  17.694  0.00  0.00    +0.000 OA
ENDROOT
BRANCH  13  18
ATOM     18  C   UNL     1       8.049   7.791  17.964  0.00  0.00    +0.000 C 
ATOM     19  O   UNL     1       8.037   8.679  17.066  0.00  0.00    +0.000 OA
ATOM     20  O   UNL     1       8.814   7.744  18.978  0.00  0.00    +0.000 OA
ENDBRANCH  13  18
BRANCH   5  21
ATOM     21  O   UNL     1       1.899   5.494  20.941  0.00  0.00    +0.000 OA
ATOM     22  H   UNL     1       2.106   5.109  21.811  0.00  0.00    +0.000 HD
ENDBRANCH   5  21
BRANCH  15  23
ATOM     23  C   UNL     1       5.454   4.506  15.194  0.00  0.00    +0.000 C 
ATOM     24  N   UNL     1       5.206   4.076  14.121  0.00  0.00    +0.000 NA
ENDBRANCH  15  23
TORSDOF 3
ENDMDL
MODEL 3
REMARK VINA RESULT:      -6.4      9.820     12.347
REMARK  Name = 
REMARK  6 active torsions:
REMARK  status: ('A' for Active; 'I' for Inactive)
REMARK    1  A    between atoms: C_1  and  C_2
REMARK    2  A    between atoms: C_5  and  O_6
REMARK    3  A    between atoms: C_7  and  C_8
REMARK    4  A    between atoms: C_7  and  C_9
REMARK    5  A    between atoms: C_14  and  C_15
REMARK    6  A    between atoms: C_19  and  C_20
REMARK                            x       y       z     vdW  Elec       q    Type
REMARK                         _______ _______ _______ _____ _____    ______ ____
ROOT
ATOM      1  C   UNL     1       9.506  11.013  19.405  0.00  0.00    +0.000 C 
ATOM      2  C   UNL     1      10.353  12.192  18.921  0.00  0.00    +0.000 C 
ATOM      3  C   UNL     1      11.121  11.832  17.643  0.00  0.00    +0.000 C 
ATOM      4  C   UNL     1      12.176  12.891  17.331  0.00  0.00    +0.000 C 
ATOM      5  C   UNL     1      11.626  14.308  17.353  0.00  0.00    +0.000 C 
ATOM      6  C   UNL     1      10.767  14.702  18.601  0.00  0.00    +0.000 C 
ATOM      7  C   UNL     1      10.429  16.206  18.377  0.00  0.00    +0.000 C 
ATOM      8  C   UNL     1      11.516  14.785  19.982  0.00  0.00    +0.000 C 
ATOM      9  C   UNL     1       9.619  13.601  18.799  0.00  0.00    +0.000 C 
ATOM     10  C   UNL     1       8.485  13.507  17.745  0.00  0.00    +0.000 C 
ATOM     11  C   UNL     1       7.450  14.298  18.415  0.00  0.00    +0.000 A 
ATOM     12  C   UNL     1       6.264  14.782  17.873  0.00  0.00    +0.000 A 
ATOM     13  C   UNL     1       5.424  15.553  18.676  0.00  0.00    +0.000 A 
ATOM     14  C   UNL     1       5.795  15.815  20.017  0.00  0.00    +0.000 A 
ATOM     15  C   UNL     1       6.968  15.270  20.561  0.00  0.00    +0.000 A 
ATOM     16  C   UNL     1       7.775  14.507  19.736  0.00  0.00    +0.000 A 
ATOM     17  O   UNL     1       8.961  13.891  20.083  0.00  0.00    +0.000 OA
ENDROOT
BRANCH  13  18
ATOM     18  C   UNL     1       4.131  16.110  18.100  0.00  0.00    +0.000 C 
ATOM     19  O   UNL     1       3.614  15.463  17.146  0.00  0.00    +0.000 OA
ATOM     20  O   UNL     1       3.670  17.163  18.643  0.00  0.00    +0.000 OA
ENDBRANCH  13  18
BRANCH   5  21
ATOM     21  O   UNL     1      10.881  14.503  16.147  0.00  0.00    +0.000 OA
ATOM     22  H   UNL     1      11.444  14.816  15.418  0.00  0.00    +0.000 HD
ENDBRANCH   5  21
BRANCH  15  23
ATOM     23  C   UNL     1       7.350  15.518  21.906  0.00  0.00    +0.000 C 
ATOM     24  N   UNL     1       7.683  15.673  23.030  0.00  0.00    +0.000 NA
ENDBRANCH  15  23
TORSDOF 3
ENDMDL
MODEL 4
REMARK VINA RESULT:      -5.9      8.819     11.894
REMARK  Name = 
REMARK  6 active torsions:
REMARK  status: ('A' for Active; 'I' for Inactive)
REMARK    1  A    between atoms: C_1  and  C_2
REMARK    2  A    between atoms: C_5  and  O_6
REMARK    3  A    between atoms: C_7  and  C_8
REMARK    4  A    between atoms: C_7  and  C_9
REMARK    5  A    between atoms: C_14  and  C_15
REMARK    6  A    between atoms: C_19  and  C_20
REMARK                            x       y       z     vdW  Elec       q    Type
REMARK                         _______ _______ _______ _____ _____    ______ ____
ROOT
ATOM      1  C   UNL     1      -0.136  14.974  18.350  0.00  0.00    +0.000 C 
ATOM      2  C   UNL     1       0.352  13.705  19.051  0.00  0.00    +0.000 C 
ATOM      3  C   UNL     1       1.082  14.041  20.358  0.00  0.00    +0.000 C 
ATOM      4  C   UNL     1       1.814  12.815  20.898  0.00  0.00    +0.000 C 
ATOM      5  C   UNL     1       0.935  11.577  20.973  0.00  0.00    +0.000 C 
ATOM      6  C   UNL     1       0.107  11.233  19.689  0.00  0.00    +0.000 C 
ATOM      7  C   UNL     1      -0.609   9.895  20.040  0.00  0.00    +0.000 C 
ATOM      8  C   UNL     1       0.920  10.793  18.416  0.00  0.00    +0.000 C 
ATOM      9  C   UNL     1      -0.714  12.537  19.247  0.00  0.00    +0.000 C 
ATOM     10  C   UNL     1      -1.869  13.035  20.153  0.00  0.00    +0.000 C 
ATOM     11  C   UNL     1      -3.011  12.428  19.465  0.00  0.00    +0.000 A 
ATOM     12  C   UNL     1      -4.319  12.314  19.925  0.00  0.00    +0.000 A 
ATOM     13  C   UNL     1      -5.258  11.661  19.124  0.00  0.00    +0.000 A 
ATOM     14  C   UNL     1      -4.857  11.143  17.870  0.00  0.00    +0.000 A 
ATOM     15  C   UNL     1      -3.547  11.319  17.400  0.00  0.00    +0.000 A 
ATOM     16  C   UNL     1      -2.644  11.974  18.220  0.00  0.00    +0.000 A 
ATOM     17  O   UNL     1      -1.319  12.241  17.939  0.00  0.00    +0.000 OA
ENDROOT
BRANCH  13  18
ATOM     18  C   UNL     1      -6.690  11.506  19.614  0.00  0.00    +0.000 C 
ATOM     19  O   UNL     1      -7.584  12.078  18.930  0.00  0.00    +0.000 OA
ATOM     20  O   UNL     1      -6.863  10.796  20.653  0.00  0.00    +0.000 OA
ENDBRANCH  13  18
BRANCH   5  21
ATOM     21  O   UNL     1       0.071  11.726  22.104  0.00  0.00    +0.000 OA
ATOM     22  H   UNL     1       0.248  11.056  22.787  0.00  0.00    +0.000 HD
ENDBRANCH   5  21
BRANCH  15  23
ATOM     23  C   UNL     1      -3.132  10.810  16.141  0.00  0.00    +0.000 C 
ATOM     24  N   UNL     1      -2.740  10.413  15.099  0.00  0.00    +0.000 NA
ENDBRANCH  15  23
TORSDOF 3
ENDMDL
MODEL 5
REMARK VINA RESULT:      -5.8      9.885     12.995
REMARK  Name = 
REMARK  6 active torsions:
REMARK  status: ('A' for Active; 'I' for Inactive)
REMARK    1  A    between atoms: C_1  and  C_2
REMARK    2  A    between atoms: C_5  and  O_6
REMARK    3  A    between atoms: C_7  and  C_8
REMARK    4  A    between atoms: C_7  and  C_9
REMARK    5  A    between atoms: C_14  and  C_15
REMARK    6  A    between atoms: C_19  and  C_20
REMARK                            x       y       z     vdW  Elec       q    Type
REMARK                         _______ _______ _______ _____ _____    ______ ____
ROOT
ATOM      1  C   UNL     1      -5.971  13.279  21.424  0.00  0.00    +0.000 C 
ATOM      2  C   UNL     1      -5.204  14.336  22.222  0.00  0.00    +0.000 C 
ATOM      3  C   UNL     1      -5.950  14.705  23.510  0.00  0.00    +0.000 C 
ATOM      4  C   UNL     1      -5.343  15.953  24.147  0.00  0.00    +0.000 C 
ATOM      5  C   UNL     1      -3.832  15.872  24.299  0.00  0.00    +0.000 C 
ATOM      6  C   UNL     1      -3.028  15.424  23.032  0.00  0.00    +0.000 C 
ATOM      7  C   UNL     1      -1.536  15.521  23.469  0.00  0.00    +0.000 C 
ATOM      8  C   UNL     1      -3.028  16.408  21.806  0.00  0.00    +0.000 C 
ATOM      9  C   UNL     1      -3.659  14.054  22.486  0.00  0.00    +0.000 C 
ATOM     10  C   UNL     1      -3.504  12.769  23.339  0.00  0.00    +0.000 C 
ATOM     11  C   UNL     1      -2.341  12.167  22.681  0.00  0.00    +0.000 A 
ATOM     12  C   UNL     1      -1.565  11.103  23.131  0.00  0.00    +0.000 A 
ATOM     13  C   UNL     1      -0.468  10.703  22.366  0.00  0.00    +0.000 A 
ATOM     14  C   UNL     1      -0.181  11.381  21.158  0.00  0.00    +0.000 A 
ATOM     15  C   UNL     1      -1.010  12.414  20.695  0.00  0.00    +0.000 A 
ATOM     16  C   UNL     1      -2.090  12.782  21.477  0.00  0.00    +0.000 A 
ATOM     17  O   UNL     1      -3.014  13.769  21.195  0.00  0.00    +0.000 OA
ENDROOT
BRANCH  13  18
ATOM     18  C   UNL     1       0.407   9.555  22.847  0.00  0.00    +0.000 C 
ATOM     19  O   UNL     1       0.600   9.476  24.092  0.00  0.00    +0.000 OA
ATOM     20  O   UNL     1       0.847   8.762  21.956  0.00  0.00    +0.000 OA
ENDBRANCH  13  18
BRANCH   5  21
ATOM     21  O   UNL     1      -3.553  15.008  25.404  0.00  0.00    +0.000 OA
ATOM     22  H   UNL     1      -3.964  15.325  26.227  0.00  0.00    +0.000 HD
ENDBRANCH   5  21
BRANCH  15  23
ATOM     23  C   UNL     1      -0.738  13.099  19.481  0.00  0.00    +0.000 C 
ATOM     24  N   UNL     1      -0.476  13.701  18.498  0.00  0.00    +0.000 NA
ENDBRANCH  15  23
TORSDOF 3
ENDMDL
MODEL 6
REMARK VINA RESULT:      -5.8      7.966     10.892
REMARK  Name = 
REMARK  6 active torsions:
REMARK  status: ('A' for Active; 'I' for Inactive)
REMARK    1  A    between atoms: C_1  and  C_2
REMARK    2  A    between atoms: C_5  and  O_6
REMARK    3  A    between atoms: C_7  and  C_8
REMARK    4  A    between atoms: C_7  and  C_9
REMARK    5  A    between atoms: C_14  and  C_15
REMARK    6  A    between atoms: C_19  and  C_20
REMARK                            x       y       z     vdW  Elec       q    Type
REMARK                         _______ _______ _______ _____ _____    ______ ____
ROOT
ATOM      1  C   UNL     1      -2.927  12.089  23.330  0.00  0.00    +0.000 C 
ATOM      2  C   UNL     1      -2.155  13.303  22.807  0.00  0.00    +0.000 C 
ATOM      3  C   UNL     1      -1.400  14.008  23.940  0.00  0.00    +0.000 C 
ATOM      4  C   UNL     1      -0.879  15.367  23.479  0.00  0.00    +0.000 C 
ATOM      5  C   UNL     1      -0.117  15.300  22.165  0.00  0.00    +0.000 C 
ATOM      6  C   UNL     1      -0.811  14.523  20.996  0.00  0.00    +0.000 C 
ATOM      7  C   UNL     1       0.155  14.702  19.787  0.00  0.00    +0.000 C 
ATOM      8  C   UNL     1      -2.124  15.154  20.404  0.00  0.00    +0.000 C 
ATOM      9  C   UNL     1      -1.233  13.071  21.529  0.00  0.00    +0.000 C 
ATOM     10  C   UNL     1      -0.119  12.048  21.871  0.00  0.00    +0.000 C 
ATOM     11  C   UNL     1      -0.093  11.274  20.628  0.00  0.00    +0.000 A 
ATOM     12  C   UNL     1       0.863  10.350  20.220  0.00  0.00    +0.000 A 
ATOM     13  C   UNL     1       0.720   9.744  18.971  0.00  0.00    +0.000 A 
ATOM     14  C   UNL     1      -0.390  10.079  18.160  0.00  0.00    +0.000 A 
ATOM     15  C   UNL     1      -1.373  10.972  18.615  0.00  0.00    +0.000 A 
ATOM     16  C   UNL     1      -1.201  11.551  19.860  0.00  0.00    +0.000 A 
ATOM     17  O   UNL     1      -2.051  12.447  20.477  0.00  0.00    +0.000 OA
ENDROOT
BRANCH  13  18
ATOM     18  C   UNL     1       1.763   8.744  18.494  0.00  0.00    +0.000 C 
ATOM     19  O   UNL     1       2.199   8.901  17.319  0.00  0.00    +0.000 OA
ATOM     20  O   UNL     1       2.123   7.854  19.328  0.00  0.00    +0.000 OA
ENDBRANCH  13  18
BRANCH   5  21
ATOM     21  O   UNL     1       1.174  14.748  22.440  0.00  0.00    +0.000 OA
ATOM     22  H   UNL     1       1.675  15.291  23.073  0.00  0.00    +0.000 HD
ENDBRANCH   5  21
BRANCH  15  23
ATOM     23  C   UNL     1      -2.496  11.313  17.816  0.00  0.00    +0.000 C 
ATOM     24  N   UNL     1      -3.414  11.561  17.113  0.00  0.00    +0.000 NA
ENDBRANCH  15  23
TORSDOF 3
ENDMDL
MODEL 7
REMARK VINA RESULT:      -5.6     10.917     12.880
REMARK  Name = 
REMARK  6 active torsions:
REMARK  status: ('A' for Active; 'I' for Inactive)
REMARK    1  A    between atoms: C_1  and  C_2
REMARK    2  A    between atoms: C_5  and  O_6
REMARK    3  A    between atoms: C_7  and  C_8
REMARK    4  A    between atoms: C_7  and  C_9
REMARK    5  A    between atoms: C_14  and  C_15
REMARK    6  A    between atoms: C_19  and  C_20
REMARK                            x       y       z     vdW  Elec       q    Type
REMARK                         _______ _______ _______ _____ _____    ______ ____
ROOT
ATOM      1  C   UNL     1       9.808  12.631  21.365  0.00  0.00    +0.000 C 
ATOM      2  C   UNL     1      10.527  13.295  20.188  0.00  0.00    +0.000 C 
ATOM      3  C   UNL     1      11.183  12.248  19.279  0.00  0.00    +0.000 C 
ATOM      4  C   UNL     1      12.133  12.914  18.287  0.00  0.00    +0.000 C 
ATOM      5  C   UNL     1      11.502  14.080  17.544  0.00  0.00    +0.000 C 
ATOM      6  C   UNL     1      10.751  15.138  18.420  0.00  0.00    +0.000 C 
ATOM      7  C   UNL     1      10.299  16.229  17.403  0.00  0.00    +0.000 C 
ATOM      8  C   UNL     1      11.629  16.007  19.394  0.00  0.00    +0.000 C 
ATOM      9  C   UNL     1       9.699  14.372  19.356  0.00  0.00    +0.000 C 
ATOM     10  C   UNL     1       8.472  13.689  18.698  0.00  0.00    +0.000 C 
ATOM     11  C   UNL     1       7.463  14.732  18.899  0.00  0.00    +0.000 A 
ATOM     12  C   UNL     1       6.201  14.817  18.321  0.00  0.00    +0.000 A 
ATOM     13  C   UNL     1       5.400  15.921  18.617  0.00  0.00    +0.000 A 
ATOM     14  C   UNL     1       5.888  16.914  19.499  0.00  0.00    +0.000 A 
ATOM     15  C   UNL     1       7.141  16.781  20.115  0.00  0.00    +0.000 A 
ATOM     16  C   UNL     1       7.907  15.672  19.800  0.00  0.00    +0.000 A 
ATOM     17  O   UNL     1       9.157  15.365  20.298  0.00  0.00    +0.000 OA
ENDROOT
BRANCH  13  18
ATOM     18  C   UNL     1       4.023  16.046  17.982  0.00  0.00    +0.000 C 
ATOM     19  O   UNL     1       3.639  17.214  17.692  0.00  0.00    +0.000 OA
ATOM     20  O   UNL     1       3.389  14.963  17.776  0.00  0.00    +0.000 OA
ENDBRANCH  13  18
BRANCH   5  21
ATOM     21  O   UNL     1      10.627  13.539  16.549  0.00  0.00    +0.000 OA
ATOM     22  H   UNL     1      10.420  12.603  16.718  0.00  0.00    +0.000 HD
ENDBRANCH   5  21
BRANCH  15  23
ATOM     23  C   UNL     1       7.642  17.766  21.006  0.00  0.00    +0.000 C 
ATOM     24  N   UNL     1       8.050  18.624  21.710  0.00  0.00    +0.000 NA
ENDBRANCH  15  23
TORSDOF 3
ENDMDL
