MODEL 1
REMARK VINA RESULT:      -7.0      0.000      0.000
REMARK  Name = 
REMARK  10 active torsions:
REMARK  status: ('A' for Active; 'I' for Inactive)
REMARK    1  A    between atoms: C_1  and  O_2
REMARK    2  A    between atoms: O_2  and  C_3
REMARK    3  A    between atoms: C_6  and  C_7
REMARK    4  A    between atoms: C_7  and  N_8
REMARK    5  A    between atoms: C_7  and  P_15
REMARK    6  A    between atoms: N_8  and  C_9
REMARK    7  A    between atoms: P_15  and  O_17
REMARK    8  A    between atoms: P_15  and  O_19
REMARK    9  A    between atoms: O_17  and  C_18
REMARK   10  A    between atoms: O_19  and  C_20
REMARK                            x       y       z     vdW  Elec       q    Type
REMARK                         _______ _______ _______ _____ _____    ______ ____
ROOT
ATOM      1  C   UNL     1       3.626   5.701  19.291  0.00  0.00    +0.000 C 
ENDROOT
BRANCH   1   5
ATOM      2  C   UNL     1       6.755   5.420  16.226  0.00  0.00    +0.000 A 
ATOM      3  C   UNL     1       5.491   5.917  15.913  0.00  0.00    +0.000 A 
ATOM      4  C   UNL     1       4.487   5.999  16.891  0.00  0.00    +0.000 A 
ATOM      5  C   UNL     1       4.727   5.572  18.206  0.00  0.00    +0.000 A 
ATOM      6  C   UNL     1       5.988   5.010  18.489  0.00  0.00    +0.000 A 
ATOM      7  C   UNL     1       6.995   4.947  17.513  0.00  0.00    +0.000 A 
BRANCH   2   9
ATOM      8  C   UNL     1       7.182   4.851  13.968  0.00  0.00    +0.000 C 
ATOM      9  O   UNL     1       7.657   5.392  15.198  0.00  0.00    +0.000 OA
ENDBRANCH   2   9
ENDBRANCH   1   5
BRANCH   1  10
ATOM     10  N   UNL     1       2.448   6.332  18.635  0.00  0.00    +0.000 N 
ATOM     11  H   UNL     1       2.468   6.202  17.627  0.00  0.00    +0.000 HD
BRANCH  10  12
ATOM     12  C   UNL     1       2.050   7.640  18.953  0.00  0.00    +0.000 A 
ATOM     13  C   UNL     1       1.999   8.588  17.917  0.00  0.00    +0.000 A 
ATOM     14  C   UNL     1       1.539   9.894  18.134  0.00  0.00    +0.000 A 
ATOM     15  C   UNL     1       1.092  10.269  19.394  0.00  0.00    +0.000 A 
ATOM     16  C   UNL     1       1.098   9.341  20.426  0.00  0.00    +0.000 A 
ATOM     17  C   UNL     1       1.557   8.034  20.201  0.00  0.00    +0.000 A 
ENDBRANCH  10  12
ENDBRANCH   1  10
BRANCH   1  18
ATOM     18  P   UNL     1       3.165   4.084  20.012  0.00  0.00    +0.000 P 
ATOM     19  O   UNL     1       2.295   4.798  21.066  0.00  0.00    +0.000 OA
BRANCH  18  20
ATOM     20  O   UNL     1       2.236   3.711  18.691  0.00  0.00    +0.000 OA
ATOM     21  C   UNL     1       2.507   2.535  17.954  0.00  0.00    +0.000 C 
ENDBRANCH  18  20
BRANCH  18  22
ATOM     22  O   UNL     1       2.728   2.556  20.696  0.00  0.00    +0.000 OA
ATOM     23  C   UNL     1       1.656   2.633  21.618  0.00  0.00    +0.000 C 
ENDBRANCH  18  22
ENDBRANCH   1  18
TORSDOF 7
ENDMDL
MODEL 2
REMARK VINA RESULT:      -6.9      1.839      5.587
REMARK  Name = 
REMARK  10 active torsions:
REMARK  status: ('A' for Active; 'I' for Inactive)
REMARK    1  A    between atoms: C_1  and  O_2
REMARK    2  A    between atoms: O_2  and  C_3
REMARK    3  A    between atoms: C_6  and  C_7
REMARK    4  A    between atoms: C_7  and  N_8
REMARK    5  A    between atoms: C_7  and  P_15
REMARK    6  A    between atoms: N_8  and  C_9
REMARK    7  A    between atoms: P_15  and  O_17
REMARK    8  A    between atoms: P_15  and  O_19
REMARK    9  A    between atoms: O_17  and  C_18
REMARK   10  A    between atoms: O_19  and  C_20
REMARK                            x       y       z     vdW  Elec       q    Type
REMARK                         _______ _______ _______ _____ _____    ______ ____
ROOT
ATOM      1  C   UNL     1       2.858   5.269  18.360  0.00  0.00    +0.000 C 
ENDROOT
BRANCH   1   5
ATOM      2  C   UNL     1       1.397   9.223  19.581  0.00  0.00    +0.000 A 
ATOM      3  C   UNL     1       1.833   8.993  18.278  0.00  0.00    +0.000 A 
ATOM      4  C   UNL     1       2.308   7.731  17.889  0.00  0.00    +0.000 A 
ATOM      5  C   UNL     1       2.367   6.671  18.806  0.00  0.00    +0.000 A 
ATOM      6  C   UNL     1       1.987   6.938  20.137  0.00  0.00    +0.000 A 
ATOM      7  C   UNL     1       1.494   8.196  20.516  0.00  0.00    +0.000 A 
BRANCH   2   9
ATOM      8  C   UNL     1       1.200  11.462  18.839  0.00  0.00    +0.000 C 
ATOM      9  O   UNL     1       0.948  10.488  19.847  0.00  0.00    +0.000 OA
ENDBRANCH   2   9
ENDBRANCH   1   5
BRANCH   1  10
ATOM     10  N   UNL     1       4.318   5.215  18.639  0.00  0.00    +0.000 N 
ATOM     11  H   UNL     1       4.617   5.996  19.216  0.00  0.00    +0.000 HD
BRANCH  10  12
ATOM     12  C   UNL     1       5.248   4.978  17.615  0.00  0.00    +0.000 A 
ATOM     13  C   UNL     1       4.819   5.118  16.284  0.00  0.00    +0.000 A 
ATOM     14  C   UNL     1       5.702   4.974  15.205  0.00  0.00    +0.000 A 
ATOM     15  C   UNL     1       7.045   4.714  15.442  0.00  0.00    +0.000 A 
ATOM     16  C   UNL     1       7.502   4.606  16.747  0.00  0.00    +0.000 A 
ATOM     17  C   UNL     1       6.614   4.754  17.823  0.00  0.00    +0.000 A 
ENDBRANCH  10  12
ENDBRANCH   1  10
BRANCH   1  18
ATOM     18  P   UNL     1       1.990   3.915  19.236  0.00  0.00    +0.000 P 
ATOM     19  O   UNL     1       1.138   3.645  17.981  0.00  0.00    +0.000 OA
BRANCH  18  20
ATOM     20  O   UNL     1       3.347   2.964  19.198  0.00  0.00    +0.000 OA
ATOM     21  C   UNL     1       3.357   1.789  18.410  0.00  0.00    +0.000 C 
ENDBRANCH  18  20
BRANCH  18  22
ATOM     22  O   UNL     1       1.170   2.636  20.063  0.00  0.00    +0.000 OA
ATOM     23  C   UNL     1       1.361   2.655  21.467  0.00  0.00    +0.000 C 
ENDBRANCH  18  22
ENDBRANCH   1  18
TORSDOF 7
ENDMDL
MODEL 3
REMARK VINA RESULT:      -6.8      1.767      5.823
REMARK  Name = 
REMARK  10 active torsions:
REMARK  status: ('A' for Active; 'I' for Inactive)
REMARK    1  A    between atoms: C_1  and  O_2
REMARK    2  A    between atoms: O_2  and  C_3
REMARK    3  A    between atoms: C_6  and  C_7
REMARK    4  A    between atoms: C_7  and  N_8
REMARK    5  A    between atoms: C_7  and  P_15
REMARK    6  A    between atoms: N_8  and  C_9
REMARK    7  A    between atoms: P_15  and  O_17
REMARK    8  A    between atoms: P_15  and  O_19
REMARK    9  A    between atoms: O_17  and  C_18
REMARK   10  A    between atoms: O_19  and  C_20
REMARK                            x       y       z     vdW  Elec       q    Type
REMARK                         _______ _______ _______ _____ _____    ______ ____
ROOT
ATOM      1  C   UNL     1       2.811   5.579  18.263  0.00  0.00    +0.000 C 
ENDROOT
BRANCH   1   5
ATOM      2  C   UNL     1       1.232   9.449  19.599  0.00  0.00    +0.000 A 
ATOM      3  C   UNL     1       1.632   9.259  18.279  0.00  0.00    +0.000 A 
ATOM      4  C   UNL     1       2.145   8.024  17.852  0.00  0.00    +0.000 A 
ATOM      5  C   UNL     1       2.279   6.952  18.749  0.00  0.00    +0.000 A 
ATOM      6  C   UNL     1       1.934   7.182  20.095  0.00  0.00    +0.000 A 
ATOM      7  C   UNL     1       1.403   8.413  20.513  0.00  0.00    +0.000 A 
BRANCH   2   9
ATOM      8  C   UNL     1      -0.471  10.713  20.651  0.00  0.00    +0.000 C 
ATOM      9  O   UNL     1       0.741  10.690  19.902  0.00  0.00    +0.000 OA
ENDBRANCH   2   9
ENDBRANCH   1   5
BRANCH   1  10
ATOM     10  N   UNL     1       4.266   5.548  18.571  0.00  0.00    +0.000 N 
ATOM     11  H   UNL     1       4.535   6.313  19.184  0.00  0.00    +0.000 HD
BRANCH  10  12
ATOM     12  C   UNL     1       5.223   5.371  17.559  0.00  0.00    +0.000 A 
ATOM     13  C   UNL     1       6.456   4.792  17.906  0.00  0.00    +0.000 A 
ATOM     14  C   UNL     1       7.435   4.512  16.944  0.00  0.00    +0.000 A 
ATOM     15  C   UNL     1       7.186   4.780  15.604  0.00  0.00    +0.000 A 
ATOM     16  C   UNL     1       5.963   5.319  15.231  0.00  0.00    +0.000 A 
ATOM     17  C   UNL     1       4.985   5.595  16.199  0.00  0.00    +0.000 A 
ENDBRANCH  10  12
ENDBRANCH   1  10
BRANCH   1  18
ATOM     18  P   UNL     1       1.957   4.175  19.068  0.00  0.00    +0.000 P 
ATOM     19  O   UNL     1       1.157   3.916  17.777  0.00  0.00    +0.000 OA
BRANCH  18  20
ATOM     20  O   UNL     1       3.344   3.267  19.051  0.00  0.00    +0.000 OA
ATOM     21  C   UNL     1       3.412   2.109  18.241  0.00  0.00    +0.000 C 
ENDBRANCH  18  20
BRANCH  18  22
ATOM     22  O   UNL     1       1.149   2.848  19.829  0.00  0.00    +0.000 OA
ATOM     23  C   UNL     1       1.330   2.805  21.234  0.00  0.00    +0.000 C 
ENDBRANCH  18  22
ENDBRANCH   1  18
TORSDOF 7
ENDMDL
MODEL 4
REMARK VINA RESULT:      -6.8      0.177      1.039
REMARK  Name = 
REMARK  10 active torsions:
REMARK  status: ('A' for Active; 'I' for Inactive)
REMARK    1  A    between atoms: C_1  and  O_2
REMARK    2  A    between atoms: O_2  and  C_3
REMARK    3  A    between atoms: C_6  and  C_7
REMARK    4  A    between atoms: C_7  and  N_8
REMARK    5  A    between atoms: C_7  and  P_15
REMARK    6  A    between atoms: N_8  and  C_9
REMARK    7  A    between atoms: P_15  and  O_17
REMARK    8  A    between atoms: P_15  and  O_19
REMARK    9  A    between atoms: O_17  and  C_18
REMARK   10  A    between atoms: O_19  and  C_20
REMARK                            x       y       z     vdW  Elec       q    Type
REMARK                         _______ _______ _______ _____ _____    ______ ____
ROOT
ATOM      1  C   UNL     1       3.582   5.672  19.214  0.00  0.00    +0.000 C 
ENDROOT
BRANCH   1   5
ATOM      2  C   UNL     1       6.665   5.127  16.138  0.00  0.00    +0.000 A 
ATOM      3  C   UNL     1       6.891   4.730  17.454  0.00  0.00    +0.000 A 
ATOM      4  C   UNL     1       5.908   4.911  18.440  0.00  0.00    +0.000 A 
ATOM      5  C   UNL     1       4.678   5.509  18.129  0.00  0.00    +0.000 A 
ATOM      6  C   UNL     1       4.491   5.967  16.809  0.00  0.00    +0.000 A 
ATOM      7  C   UNL     1       5.469   5.766  15.822  0.00  0.00    +0.000 A 
BRANCH   2   9
ATOM      8  C   UNL     1       7.346   4.955  13.878  0.00  0.00    +0.000 C 
ATOM      9  O   UNL     1       7.688   4.897  15.260  0.00  0.00    +0.000 OA
ENDBRANCH   2   9
ENDBRANCH   1   5
BRANCH   1  10
ATOM     10  N   UNL     1       2.422   6.333  18.559  0.00  0.00    +0.000 N 
ATOM     11  H   UNL     1       2.441   6.207  17.550  0.00  0.00    +0.000 HD
BRANCH  10  12
ATOM     12  C   UNL     1       2.054   7.649  18.881  0.00  0.00    +0.000 A 
ATOM     13  C   UNL     1       2.044   8.606  17.852  0.00  0.00    +0.000 A 
ATOM     14  C   UNL     1       1.616   9.922  18.073  0.00  0.00    +0.000 A 
ATOM     15  C   UNL     1       1.160  10.299  19.330  0.00  0.00    +0.000 A 
ATOM     16  C   UNL     1       1.127   9.364  20.354  0.00  0.00    +0.000 A 
ATOM     17  C   UNL     1       1.553   8.047  20.126  0.00  0.00    +0.000 A 
ENDBRANCH  10  12
ENDBRANCH   1  10
BRANCH   1  18
ATOM     18  P   UNL     1       3.077   4.070  19.941  0.00  0.00    +0.000 P 
ATOM     19  O   UNL     1       2.219   4.810  20.985  0.00  0.00    +0.000 OA
BRANCH  18  20
ATOM     20  O   UNL     1       2.148   3.713  18.616  0.00  0.00    +0.000 OA
ATOM     21  C   UNL     1       2.322   2.476  17.952  0.00  0.00    +0.000 C 
ENDBRANCH  18  20
BRANCH  18  22
ATOM     22  O   UNL     1       2.599   2.556  20.629  0.00  0.00    +0.000 OA
ATOM     23  C   UNL     1       1.599   2.677  21.625  0.00  0.00    +0.000 C 
ENDBRANCH  18  22
ENDBRANCH   1  18
TORSDOF 7
ENDMDL
MODEL 5
REMARK VINA RESULT:      -6.7      3.026      7.034
REMARK  Name = 
REMARK  10 active torsions:
REMARK  status: ('A' for Active; 'I' for Inactive)
REMARK    1  A    between atoms: C_1  and  O_2
REMARK    2  A    between atoms: O_2  and  C_3
REMARK    3  A    between atoms: C_6  and  C_7
REMARK    4  A    between atoms: C_7  and  N_8
REMARK    5  A    between atoms: C_7  and  P_15
REMARK    6  A    between atoms: N_8  and  C_9
REMARK    7  A    between atoms: P_15  and  O_17
REMARK    8  A    between atoms: P_15  and  O_19
REMARK    9  A    between atoms: O_17  and  C_18
REMARK   10  A    between atoms: O_19  and  C_20
REMARK                            x       y       z     vdW  Elec       q    Type
REMARK                         _______ _______ _______ _____ _____    ______ ____
ROOT
ATOM      1  C   UNL     1       6.144   4.457  16.711  0.00  0.00    +0.000 C 
ENDROOT
BRANCH   1   5
ATOM      2  C   UNL     1       2.060   3.932  18.230  0.00  0.00    +0.000 A 
ATOM      3  C   UNL     1       2.867   2.831  17.954  0.00  0.00    +0.000 A 
ATOM      4  C   UNL     1       4.170   2.997  17.461  0.00  0.00    +0.000 A 
ATOM      5  C   UNL     1       4.690   4.278  17.220  0.00  0.00    +0.000 A 
ATOM      6  C   UNL     1       3.839   5.379  17.440  0.00  0.00    +0.000 A 
ATOM      7  C   UNL     1       2.542   5.209  17.952  0.00  0.00    +0.000 A 
BRANCH   2   9
ATOM      8  C   UNL     1       0.767   2.968  19.962  0.00  0.00    +0.000 C 
ATOM      9  O   UNL     1       0.811   3.653  18.713  0.00  0.00    +0.000 OA
ENDBRANCH   2   9
ENDBRANCH   1   5
BRANCH   1  10
ATOM     10  N   UNL     1       6.066   5.251  15.456  0.00  0.00    +0.000 N 
ATOM     11  H   UNL     1       5.214   5.805  15.416  0.00  0.00    +0.000 HD
BRANCH  10  12
ATOM     12  C   UNL     1       6.330   4.669  14.206  0.00  0.00    +0.000 A 
ATOM     13  C   UNL     1       5.362   3.811  13.656  0.00  0.00    +0.000 A 
ATOM     14  C   UNL     1       5.513   3.250  12.381  0.00  0.00    +0.000 A 
ATOM     15  C   UNL     1       6.629   3.562  11.616  0.00  0.00    +0.000 A 
ATOM     16  C   UNL     1       7.583   4.435  12.121  0.00  0.00    +0.000 A 
ATOM     17  C   UNL     1       7.424   4.996  13.397  0.00  0.00    +0.000 A 
ENDBRANCH  10  12
ENDBRANCH   1  10
BRANCH   1  18
ATOM     18  P   UNL     1       7.214   5.300  17.934  0.00  0.00    +0.000 P 
ATOM     19  O   UNL     1       8.299   4.224  17.732  0.00  0.00    +0.000 OA
BRANCH  18  20
ATOM     20  O   UNL     1       7.484   6.560  16.892  0.00  0.00    +0.000 OA
ATOM     21  C   UNL     1       7.700   7.860  17.406  0.00  0.00    +0.000 C 
ENDBRANCH  18  20
BRANCH  18  22
ATOM     22  O   UNL     1       8.225   6.096  19.090  0.00  0.00    +0.000 OA
ATOM     23  C   UNL     1       8.346   5.394  20.315  0.00  0.00    +0.000 C 
ENDBRANCH  18  22
ENDBRANCH   1  18
TORSDOF 7
ENDMDL
MODEL 6
REMARK VINA RESULT:      -6.7      1.773      5.826
REMARK  Name = 
REMARK  10 active torsions:
REMARK  status: ('A' for Active; 'I' for Inactive)
REMARK    1  A    between atoms: C_1  and  O_2
REMARK    2  A    between atoms: O_2  and  C_3
REMARK    3  A    between atoms: C_6  and  C_7
REMARK    4  A    between atoms: C_7  and  N_8
REMARK    5  A    between atoms: C_7  and  P_15
REMARK    6  A    between atoms: N_8  and  C_9
REMARK    7  A    between atoms: P_15  and  O_17
REMARK    8  A    between atoms: P_15  and  O_19
REMARK    9  A    between atoms: O_17  and  C_18
REMARK   10  A    between atoms: O_19  and  C_20
REMARK                            x       y       z     vdW  Elec       q    Type
REMARK                         _______ _______ _______ _____ _____    ______ ____
ROOT
ATOM      1  C   UNL     1       2.824   5.422  18.519  0.00  0.00    +0.000 C 
ENDROOT
BRANCH   1   5
ATOM      2  C   UNL     1       1.336   9.397  19.634  0.00  0.00    +0.000 A 
ATOM      3  C   UNL     1       1.374   8.361  20.565  0.00  0.00    +0.000 A 
ATOM      4  C   UNL     1       1.843   7.087  20.207  0.00  0.00    +0.000 A 
ATOM      5  C   UNL     1       2.273   6.821  18.898  0.00  0.00    +0.000 A 
ATOM      6  C   UNL     1       2.164   7.859  17.952  0.00  0.00    +0.000 A 
ATOM      7  C   UNL     1       1.713   9.137  18.320  0.00  0.00    +0.000 A 
BRANCH   2   9
ATOM      8  C   UNL     1      -0.257  10.534  20.966  0.00  0.00    +0.000 C 
ATOM      9  O   UNL     1       0.869  10.598  20.094  0.00  0.00    +0.000 OA
ENDBRANCH   2   9
ENDBRANCH   1   5
BRANCH   1  10
ATOM     10  N   UNL     1       4.284   5.443  18.805  0.00  0.00    +0.000 N 
ATOM     11  H   UNL     1       4.532   6.207  19.428  0.00  0.00    +0.000 HD
BRANCH  10  12
ATOM     12  C   UNL     1       5.231   5.322  17.777  0.00  0.00    +0.000 A 
ATOM     13  C   UNL     1       6.482   4.763  18.090  0.00  0.00    +0.000 A 
ATOM     14  C   UNL     1       7.455   4.536  17.107  0.00  0.00    +0.000 A 
ATOM     15  C   UNL     1       7.182   4.840  15.780  0.00  0.00    +0.000 A 
ATOM     16  C   UNL     1       5.942   5.360  15.439  0.00  0.00    +0.000 A 
ATOM     17  C   UNL     1       4.970   5.582  16.427  0.00  0.00    +0.000 A 
ENDBRANCH  10  12
ENDBRANCH   1  10
BRANCH   1  18
ATOM     18  P   UNL     1       2.010   4.074  19.451  0.00  0.00    +0.000 P 
ATOM     19  O   UNL     1       1.067   3.814  18.260  0.00  0.00    +0.000 OA
BRANCH  18  20
ATOM     20  O   UNL     1       3.352   3.111  19.315  0.00  0.00    +0.000 OA
ATOM     21  C   UNL     1       3.367   2.062  18.367  0.00  0.00    +0.000 C 
ENDBRANCH  18  20
BRANCH  18  22
ATOM     22  O   UNL     1       1.239   2.800  20.332  0.00  0.00    +0.000 OA
ATOM     23  C   UNL     1       1.697   2.677  21.668  0.00  0.00    +0.000 C 
ENDBRANCH  18  22
ENDBRANCH   1  18
TORSDOF 7
ENDMDL
MODEL 7
REMARK VINA RESULT:      -6.7      3.152      7.029
REMARK  Name = 
REMARK  10 active torsions:
REMARK  status: ('A' for Active; 'I' for Inactive)
REMARK    1  A    between atoms: C_1  and  O_2
REMARK    2  A    between atoms: O_2  and  C_3
REMARK    3  A    between atoms: C_6  and  C_7
REMARK    4  A    between atoms: C_7  and  N_8
REMARK    5  A    between atoms: C_7  and  P_15
REMARK    6  A    between atoms: N_8  and  C_9
REMARK    7  A    between atoms: P_15  and  O_17
REMARK    8  A    between atoms: P_15  and  O_19
REMARK    9  A    between atoms: O_17  and  C_18
REMARK   10  A    between atoms: O_19  and  C_20
REMARK                            x       y       z     vdW  Elec       q    Type
REMARK                         _______ _______ _______ _____ _____    ______ ____
ROOT
ATOM      1  C   UNL     1       5.874   4.181  16.683  0.00  0.00    +0.000 C 
ENDROOT
BRANCH   1   5
ATOM      2  C   UNL     1       1.953   3.385  18.487  0.00  0.00    +0.000 A 
ATOM      3  C   UNL     1       2.432   4.688  18.364  0.00  0.00    +0.000 A 
ATOM      4  C   UNL     1       3.689   4.942  17.795  0.00  0.00    +0.000 A 
ATOM      5  C   UNL     1       4.502   3.890  17.346  0.00  0.00    +0.000 A 
ATOM      6  C   UNL     1       4.033   2.576  17.540  0.00  0.00    +0.000 A 
ATOM      7  C   UNL     1       2.767   2.327  18.092  0.00  0.00    +0.000 A 
BRANCH   2   9
ATOM      8  C   UNL     1       0.677   3.224  20.474  0.00  0.00    +0.000 C 
ATOM      9  O   UNL     1       0.713   3.254  19.050  0.00  0.00    +0.000 OA
ENDBRANCH   2   9
ENDBRANCH   1   5
BRANCH   1  10
ATOM     10  N   UNL     1       5.597   4.947  15.439  0.00  0.00    +0.000 N 
ATOM     11  H   UNL     1       4.611   5.179  15.355  0.00  0.00    +0.000 HD
BRANCH  10  12
ATOM     12  C   UNL     1       6.111   4.537  14.199  0.00  0.00    +0.000 A 
ATOM     13  C   UNL     1       5.348   3.643  13.428  0.00  0.00    +0.000 A 
ATOM     14  C   UNL     1       5.753   3.243  12.147  0.00  0.00    +0.000 A 
ATOM     15  C   UNL     1       6.920   3.757  11.599  0.00  0.00    +0.000 A 
ATOM     16  C   UNL     1       7.674   4.668  12.325  0.00  0.00    +0.000 A 
ATOM     17  C   UNL     1       7.262   5.067  13.606  0.00  0.00    +0.000 A 
ENDBRANCH  10  12
ENDBRANCH   1  10
BRANCH   1  18
ATOM     18  P   UNL     1       6.992   5.127  17.780  0.00  0.00    +0.000 P 
ATOM     19  O   UNL     1       8.187   4.280  17.300  0.00  0.00    +0.000 OA
BRANCH  18  20
ATOM     20  O   UNL     1       6.854   6.477  16.828  0.00  0.00    +0.000 OA
ATOM     21  C   UNL     1       7.388   7.707  17.276  0.00  0.00    +0.000 C 
ENDBRANCH  18  20
BRANCH  18  22
ATOM     22  O   UNL     1       8.050   6.021  18.817  0.00  0.00    +0.000 OA
ATOM     23  C   UNL     1       8.156   5.479  20.122  0.00  0.00    +0.000 C 
ENDBRANCH  18  22
ENDBRANCH   1  18
TORSDOF 7
ENDMDL
MODEL 8
REMARK VINA RESULT:      -6.7      0.261      1.054
REMARK  Name = 
REMARK  10 active torsions:
REMARK  status: ('A' for Active; 'I' for Inactive)
REMARK    1  A    between atoms: C_1  and  O_2
REMARK    2  A    between atoms: O_2  and  C_3
REMARK    3  A    between atoms: C_6  and  C_7
REMARK    4  A    between atoms: C_7  and  N_8
REMARK    5  A    between atoms: C_7  and  P_15
REMARK    6  A    between atoms: N_8  and  C_9
REMARK    7  A    between atoms: P_15  and  O_17
REMARK    8  A    between atoms: P_15  and  O_19
REMARK    9  A    between atoms: O_17  and  C_18
REMARK   10  A    between atoms: O_19  and  C_20
REMARK                            x       y       z     vdW  Elec       q    Type
REMARK                         _______ _______ _______ _____ _____    ______ ____
ROOT
ATOM      1  C   UNL     1       3.611   5.590  19.215  0.00  0.00    +0.000 C 
ENDROOT
BRANCH   1   5
ATOM      2  C   UNL     1       6.832   5.119  16.273  0.00  0.00    +0.000 A 
ATOM      3  C   UNL     1       5.518   5.334  15.865  0.00  0.00    +0.000 A 
ATOM      4  C   UNL     1       4.486   5.477  16.805  0.00  0.00    +0.000 A 
ATOM      5  C   UNL     1       4.749   5.394  18.181  0.00  0.00    +0.000 A 
ATOM      6  C   UNL     1       6.072   5.108  18.575  0.00  0.00    +0.000 A 
ATOM      7  C   UNL     1       7.104   4.985  17.632  0.00  0.00    +0.000 A 
BRANCH   2   9
ATOM      8  C   UNL     1       7.235   4.893  13.951  0.00  0.00    +0.000 C 
ATOM      9  O   UNL     1       7.758   5.001  15.272  0.00  0.00    +0.000 OA
ENDBRANCH   2   9
ENDBRANCH   1   5
BRANCH   1  10
ATOM     10  N   UNL     1       2.453   6.162  18.477  0.00  0.00    +0.000 N 
ATOM     11  H   UNL     1       2.521   5.984  17.479  0.00  0.00    +0.000 HD
BRANCH  10  12
ATOM     12  C   UNL     1       2.015   7.475  18.711  0.00  0.00    +0.000 A 
ATOM     13  C   UNL     1       1.650   7.829  20.021  0.00  0.00    +0.000 A 
ATOM     14  C   UNL     1       1.276   9.138  20.354  0.00  0.00    +0.000 A 
ATOM     15  C   UNL     1       1.286  10.129  19.382  0.00  0.00    +0.000 A 
ATOM     16  C   UNL     1       1.676   9.814  18.088  0.00  0.00    +0.000 A 
ATOM     17  C   UNL     1       2.054   8.503  17.762  0.00  0.00    +0.000 A 
ENDBRANCH  10  12
ENDBRANCH   1  10
BRANCH   1  18
ATOM     18  P   UNL     1       3.135   4.024  20.035  0.00  0.00    +0.000 P 
ATOM     19  O   UNL     1       2.333   4.815  21.087  0.00  0.00    +0.000 OA
BRANCH  18  20
ATOM     20  O   UNL     1       2.139   3.618  18.774  0.00  0.00    +0.000 OA
ATOM     21  C   UNL     1       2.402   2.448  18.023  0.00  0.00    +0.000 C 
ENDBRANCH  18  20
BRANCH  18  22
ATOM     22  O   UNL     1       2.685   2.545  20.810  0.00  0.00    +0.000 OA
ATOM     23  C   UNL     1       1.552   2.669  21.653  0.00  0.00    +0.000 C 
ENDBRANCH  18  22
ENDBRANCH   1  18
TORSDOF 7
ENDMDL
MODEL 9
REMARK VINA RESULT:      -6.6      2.469      6.358
REMARK  Name = 
REMARK  10 active torsions:
REMARK  status: ('A' for Active; 'I' for Inactive)
REMARK    1  A    between atoms: C_1  and  O_2
REMARK    2  A    between atoms: O_2  and  C_3
REMARK    3  A    between atoms: C_6  and  C_7
REMARK    4  A    between atoms: C_7  and  N_8
REMARK    5  A    between atoms: C_7  and  P_15
REMARK    6  A    between atoms: N_8  and  C_9
REMARK    7  A    between atoms: P_15  and  O_17
REMARK    8  A    between atoms: P_15  and  O_19
REMARK    9  A    between atoms: O_17  and  C_18
REMARK   10  A    between atoms: O_19  and  C_20
REMARK                            x       y       z     vdW  Elec       q    Type
REMARK                         _______ _______ _______ _____ _____    ______ ____
ROOT
ATOM      1  C   UNL     1       3.821   6.168  18.280  0.00  0.00    +0.000 C 
ENDROOT
BRANCH   1   5
ATOM      2  C   UNL     1       1.035   9.443  19.159  0.00  0.00    +0.000 A 
ATOM      3  C   UNL     1       1.714   9.389  17.944  0.00  0.00    +0.000 A 
ATOM      4  C   UNL     1       2.611   8.346  17.665  0.00  0.00    +0.000 A 
ATOM      5  C   UNL     1       2.858   7.337  18.609  0.00  0.00    +0.000 A 
ATOM      6  C   UNL     1       2.216   7.444  19.859  0.00  0.00    +0.000 A 
ATOM      7  C   UNL     1       1.304   8.478  20.126  0.00  0.00    +0.000 A 
BRANCH   2   9
ATOM      8  C   UNL     1      -1.000  10.471  18.524  0.00  0.00    +0.000 C 
ATOM      9  O   UNL     1       0.181  10.499  19.321  0.00  0.00    +0.000 OA
ENDBRANCH   2   9
ENDBRANCH   1   5
BRANCH   1  10
ATOM     10  N   UNL     1       3.075   5.230  17.399  0.00  0.00    +0.000 N 
ATOM     11  H   UNL     1       2.354   5.711  16.867  0.00  0.00    +0.000 HD
BRANCH  10  12
ATOM     12  C   UNL     1       2.592   4.003  17.881  0.00  0.00    +0.000 A 
ATOM     13  C   UNL     1       3.508   2.950  18.048  0.00  0.00    +0.000 A 
ATOM     14  C   UNL     1       3.123   1.719  18.595  0.00  0.00    +0.000 A 
ATOM     15  C   UNL     1       1.813   1.527  19.014  0.00  0.00    +0.000 A 
ATOM     16  C   UNL     1       0.897   2.563  18.893  0.00  0.00    +0.000 A 
ATOM     17  C   UNL     1       1.290   3.795  18.347  0.00  0.00    +0.000 A 
ENDBRANCH  10  12
ENDBRANCH   1  10
BRANCH   1  18
ATOM     18  P   UNL     1       5.353   6.736  17.456  0.00  0.00    +0.000 P 
ATOM     19  O   UNL     1       6.191   5.835  18.384  0.00  0.00    +0.000 OA
BRANCH  18  20
ATOM     20  O   UNL     1       4.970   5.903  16.075  0.00  0.00    +0.000 OA
ATOM     21  C   UNL     1       5.998   5.304  15.311  0.00  0.00    +0.000 C 
ENDBRANCH  18  20
BRANCH  18  22
ATOM     22  O   UNL     1       6.802   7.274  16.678  0.00  0.00    +0.000 OA
ATOM     23  C   UNL     1       7.747   7.840  17.569  0.00  0.00    +0.000 C 
ENDBRANCH  18  22
ENDBRANCH   1  18
TORSDOF 7
ENDMDL
