MODEL 1
REMARK VINA RESULT:      -8.2      0.000      0.000
REMARK  Name = 
REMARK  9 active torsions:
REMARK  status: ('A' for Active; 'I' for Inactive)
REMARK    1  A    between atoms: C_1  and  C_2
REMARK    2  A    between atoms: C_2  and  C_3
REMARK    3  A    between atoms: C_2  and  N_4
REMARK    4  A    between atoms: N_4  and  C_5
REMARK    5  A    between atoms: C_5  and  C_6
REMARK    6  A    between atoms: C_5  and  C_14
REMARK    7  A    between atoms: C_9  and  C_10
REMARK    8  A    between atoms: N_19  and  C_20
REMARK    9  A    between atoms: C_23  and  C_24
REMARK                            x       y       z     vdW  Elec       q    Type
REMARK                         _______ _______ _______ _____ _____    ______ ____
ROOT
ATOM      1  C   UNL     1       6.799   6.284  17.127  0.00  0.00    +0.000 A 
ATOM      2  C   UNL     1       7.232   5.616  18.256  0.00  0.00    +0.000 A 
ATOM      3  C   UNL     1       8.073   6.312  19.082  0.00  0.00    +0.000 A 
ATOM      4  N   UNL     1       8.463   7.571  18.839  0.00  0.00    +0.000 NA
ATOM      5  C   UNL     1       8.019   8.162  17.719  0.00  0.00    +0.000 A 
ATOM      6  N   UNL     1       8.423   9.461  17.420  0.00  0.00    +0.000 N 
ATOM      7  N   UNL     1       7.212   7.549  16.835  0.00  0.00    +0.000 NA
ATOM      8  H   UNL     1       8.143   9.739  16.497  0.00  0.00    +0.000 HD
ENDROOT
BRANCH   6   9
ATOM      9  C   UNL     1       8.861  10.462  18.299  0.00  0.00    +0.000 A 
ATOM     10  C   UNL     1       9.240  10.129  19.605  0.00  0.00    +0.000 A 
ATOM     11  C   UNL     1       9.563  11.128  20.535  0.00  0.00    +0.000 A 
ATOM     12  C   UNL     1       9.524  12.475  20.165  0.00  0.00    +0.000 A 
ATOM     13  C   UNL     1       9.176  12.818  18.859  0.00  0.00    +0.000 A 
ATOM     14  C   UNL     1       8.841  11.818  17.944  0.00  0.00    +0.000 A 
BRANCH  12  15
ATOM     15  C   UNL     1       9.814  13.504  21.119  0.00  0.00    +0.000 C 
ATOM     16  N   UNL     1      10.048  14.345  21.884  0.00  0.00    +0.000 NA
ENDBRANCH  12  15
ENDBRANCH   6   9
BRANCH   1  17
ATOM     17  C   UNL     1       5.855   5.609  16.128  0.00  0.00    +0.000 C 
BRANCH  17  18
ATOM     18  C   UNL     1       4.581   5.064  16.780  0.00  0.00    +0.000 A 
ATOM     19  C   UNL     1       3.708   5.903  17.497  0.00  0.00    +0.000 A 
ATOM     20  C   UNL     1       2.664   5.371  18.252  0.00  0.00    +0.000 A 
ATOM     21  C   UNL     1       2.456   3.991  18.278  0.00  0.00    +0.000 A 
ATOM     22  C   UNL     1       3.260   3.152  17.500  0.00  0.00    +0.000 A 
ATOM     23  C   UNL     1       4.313   3.686  16.750  0.00  0.00    +0.000 A 
BRANCH  21  24
ATOM     24  C   UNL     1       1.453   3.439  19.140  0.00  0.00    +0.000 C 
ATOM     25  N   UNL     1       0.630   3.020  19.843  0.00  0.00    +0.000 NA
ENDBRANCH  21  24
ENDBRANCH  17  18
BRANCH  17  26
ATOM     26  N   UNL     1       6.561   4.585  15.313  0.00  0.00    +0.000 NA
ATOM     27  H   UNL     1       7.534   4.571  15.622  0.00  0.00    +0.000 HD
BRANCH  26  29
ATOM     28  C   UNL     1       7.894   5.203  13.276  0.00  0.00    +0.000 C 
ATOM     29  C   UNL     1       6.529   4.836  13.858  0.00  0.00    +0.000 C 
ATOM     30  C   UNL     1       5.986   3.584  13.161  0.00  0.00    +0.000 C 
ENDBRANCH  26  29
ENDBRANCH  17  26
ENDBRANCH   1  17
TORSDOF 7
ENDMDL
MODEL 2
REMARK VINA RESULT:      -8.1      0.534      1.240
REMARK  Name = 
REMARK  9 active torsions:
REMARK  status: ('A' for Active; 'I' for Inactive)
REMARK    1  A    between atoms: C_1  and  C_2
REMARK    2  A    between atoms: C_2  and  C_3
REMARK    3  A    between atoms: C_2  and  N_4
REMARK    4  A    between atoms: N_4  and  C_5
REMARK    5  A    between atoms: C_5  and  C_6
REMARK    6  A    between atoms: C_5  and  C_14
REMARK    7  A    between atoms: C_9  and  C_10
REMARK    8  A    between atoms: N_19  and  C_20
REMARK    9  A    between atoms: C_23  and  C_24
REMARK                            x       y       z     vdW  Elec       q    Type
REMARK                         _______ _______ _______ _____ _____    ______ ____
ROOT
ATOM      1  C   UNL     1       6.742   5.851  17.207  0.00  0.00    +0.000 A 
ATOM      2  C   UNL     1       7.254   5.258  18.345  0.00  0.00    +0.000 A 
ATOM      3  C   UNL     1       8.075   6.038  19.113  0.00  0.00    +0.000 A 
ATOM      4  N   UNL     1       8.375   7.308  18.809  0.00  0.00    +0.000 NA
ATOM      5  C   UNL     1       7.857   7.825  17.683  0.00  0.00    +0.000 A 
ATOM      6  N   UNL     1       8.166   9.134  17.321  0.00  0.00    +0.000 N 
ATOM      7  N   UNL     1       7.062   7.127  16.852  0.00  0.00    +0.000 NA
ATOM      8  H   UNL     1       7.838   9.356  16.400  0.00  0.00    +0.000 HD
ENDROOT
BRANCH   6   9
ATOM      9  C   UNL     1       8.568  10.194  18.145  0.00  0.00    +0.000 A 
ATOM     10  C   UNL     1       8.436  11.516  17.700  0.00  0.00    +0.000 A 
ATOM     11  C   UNL     1       8.944  12.582  18.456  0.00  0.00    +0.000 A 
ATOM     12  C   UNL     1       9.580  12.340  19.678  0.00  0.00    +0.000 A 
ATOM     13  C   UNL     1       9.691  11.032  20.146  0.00  0.00    +0.000 A 
ATOM     14  C   UNL     1       9.197   9.975  19.379  0.00  0.00    +0.000 A 
BRANCH  12  15
ATOM     15  C   UNL     1      10.135  13.419  20.438  0.00  0.00    +0.000 C 
ATOM     16  N   UNL     1      10.593  14.289  21.057  0.00  0.00    +0.000 NA
ENDBRANCH  12  15
ENDBRANCH   6   9
BRANCH   1  17
ATOM     17  C   UNL     1       5.810   5.079  16.269  0.00  0.00    +0.000 C 
BRANCH  17  18
ATOM     18  C   UNL     1       4.490   4.675  16.932  0.00  0.00    +0.000 A 
ATOM     19  C   UNL     1       3.647   5.632  17.528  0.00  0.00    +0.000 A 
ATOM     20  C   UNL     1       2.555   5.240  18.300  0.00  0.00    +0.000 A 
ATOM     21  C   UNL     1       2.267   3.884  18.462  0.00  0.00    +0.000 A 
ATOM     22  C   UNL     1       3.042   2.925  17.802  0.00  0.00    +0.000 A 
ATOM     23  C   UNL     1       4.144   3.318  17.036  0.00  0.00    +0.000 A 
BRANCH  21  24
ATOM     24  C   UNL     1       1.211   3.481  19.344  0.00  0.00    +0.000 C 
ATOM     25  N   UNL     1       0.341   3.142  20.033  0.00  0.00    +0.000 NA
ENDBRANCH  21  24
ENDBRANCH  17  18
BRANCH  17  26
ATOM     26  N   UNL     1       6.504   3.926  15.634  0.00  0.00    +0.000 NA
ATOM     27  H   UNL     1       7.455   3.905  16.006  0.00  0.00    +0.000 HD
BRANCH  26  29
ATOM     28  C   UNL     1       5.200   4.061  13.492  0.00  0.00    +0.000 C 
ATOM     29  C   UNL     1       6.573   3.993  14.160  0.00  0.00    +0.000 C 
ATOM     30  C   UNL     1       7.405   5.217  13.767  0.00  0.00    +0.000 C 
ENDBRANCH  26  29
ENDBRANCH  17  26
ENDBRANCH   1  17
TORSDOF 7
ENDMDL
MODEL 3
REMARK VINA RESULT:      -7.9      5.078      7.594
REMARK  Name = 
REMARK  9 active torsions:
REMARK  status: ('A' for Active; 'I' for Inactive)
REMARK    1  A    between atoms: C_1  and  C_2
REMARK    2  A    between atoms: C_2  and  C_3
REMARK    3  A    between atoms: C_2  and  N_4
REMARK    4  A    between atoms: N_4  and  C_5
REMARK    5  A    between atoms: C_5  and  C_6
REMARK    6  A    between atoms: C_5  and  C_14
REMARK    7  A    between atoms: C_9  and  C_10
REMARK    8  A    between atoms: N_19  and  C_20
REMARK    9  A    between atoms: C_23  and  C_24
REMARK                            x       y       z     vdW  Elec       q    Type
REMARK                         _______ _______ _______ _____ _____    ______ ____
ROOT
ATOM      1  C   UNL     1       2.989   6.590  19.071  0.00  0.00    +0.000 A 
ATOM      2  C   UNL     1       3.018   7.397  17.950  0.00  0.00    +0.000 A 
ATOM      3  C   UNL     1       2.265   8.537  18.010  0.00  0.00    +0.000 A 
ATOM      4  N   UNL     1       1.538   8.881  19.082  0.00  0.00    +0.000 NA
ATOM      5  C   UNL     1       1.539   8.049  20.136  0.00  0.00    +0.000 A 
ATOM      6  N   UNL     1       0.775   8.361  21.259  0.00  0.00    +0.000 N 
ATOM      7  N   UNL     1       2.226   6.894  20.159  0.00  0.00    +0.000 NA
ATOM      8  H   UNL     1       0.746   7.602  21.915  0.00  0.00    +0.000 HD
ENDROOT
BRANCH   6   9
ATOM      9  C   UNL     1       0.340   9.619  21.695  0.00  0.00    +0.000 A 
ATOM     10  C   UNL     1      -0.561   9.717  22.763  0.00  0.00    +0.000 A 
ATOM     11  C   UNL     1      -1.102  10.957  23.134  0.00  0.00    +0.000 A 
ATOM     12  C   UNL     1      -0.737  12.119  22.449  0.00  0.00    +0.000 A 
ATOM     13  C   UNL     1       0.181  12.039  21.403  0.00  0.00    +0.000 A 
ATOM     14  C   UNL     1       0.703  10.799  21.030  0.00  0.00    +0.000 A 
BRANCH  12  15
ATOM     15  C   UNL     1      -1.314  13.384  22.796  0.00  0.00    +0.000 C 
ATOM     16  N   UNL     1      -1.779  14.412  23.068  0.00  0.00    +0.000 NA
ENDBRANCH  12  15
ENDBRANCH   6   9
BRANCH   1  17
ATOM     17  C   UNL     1       3.792   5.287  19.124  0.00  0.00    +0.000 C 
BRANCH  17  18
ATOM     18  C   UNL     1       4.790   5.150  17.970  0.00  0.00    +0.000 A 
ATOM     19  C   UNL     1       5.993   5.879  17.952  0.00  0.00    +0.000 A 
ATOM     20  C   UNL     1       6.797   5.904  16.814  0.00  0.00    +0.000 A 
ATOM     21  C   UNL     1       6.428   5.172  15.684  0.00  0.00    +0.000 A 
ATOM     22  C   UNL     1       5.281   4.372  15.719  0.00  0.00    +0.000 A 
ATOM     23  C   UNL     1       4.470   4.356  16.857  0.00  0.00    +0.000 A 
BRANCH  21  24
ATOM     24  C   UNL     1       7.196   5.285  14.480  0.00  0.00    +0.000 C 
ATOM     25  N   UNL     1       7.838   5.355  13.516  0.00  0.00    +0.000 NA
ENDBRANCH  21  24
ENDBRANCH  17  18
BRANCH  17  26
ATOM     26  N   UNL     1       2.904   4.100  19.254  0.00  0.00    +0.000 NA
ATOM     27  H   UNL     1       1.942   4.442  19.258  0.00  0.00    +0.000 HD
BRANCH  26  29
ATOM     28  C   UNL     1       1.856   2.649  21.015  0.00  0.00    +0.000 C 
ATOM     29  C   UNL     1       3.129   3.302  20.475  0.00  0.00    +0.000 C 
ATOM     30  C   UNL     1       4.175   2.226  20.167  0.00  0.00    +0.000 C 
ENDBRANCH  26  29
ENDBRANCH  17  26
ENDBRANCH   1  17
TORSDOF 7
ENDMDL
MODEL 4
REMARK VINA RESULT:      -7.8      5.201      7.601
REMARK  Name = 
REMARK  9 active torsions:
REMARK  status: ('A' for Active; 'I' for Inactive)
REMARK    1  A    between atoms: C_1  and  C_2
REMARK    2  A    between atoms: C_2  and  C_3
REMARK    3  A    between atoms: C_2  and  N_4
REMARK    4  A    between atoms: N_4  and  C_5
REMARK    5  A    between atoms: C_5  and  C_6
REMARK    6  A    between atoms: C_5  and  C_14
REMARK    7  A    between atoms: C_9  and  C_10
REMARK    8  A    between atoms: N_19  and  C_20
REMARK    9  A    between atoms: C_23  and  C_24
REMARK                            x       y       z     vdW  Elec       q    Type
REMARK                         _______ _______ _______ _____ _____    ______ ____
ROOT
ATOM      1  C   UNL     1       2.744   6.857  19.136  0.00  0.00    +0.000 A 
ATOM      2  C   UNL     1       2.827   7.592  17.970  0.00  0.00    +0.000 A 
ATOM      3  C   UNL     1       2.105   8.754  17.938  0.00  0.00    +0.000 A 
ATOM      4  N   UNL     1       1.359   9.183  18.965  0.00  0.00    +0.000 NA
ATOM      5  C   UNL     1       1.307   8.418  20.067  0.00  0.00    +0.000 A 
ATOM      6  N   UNL     1       0.523   8.818  21.147  0.00  0.00    +0.000 N 
ATOM      7  N   UNL     1       1.961   7.248  20.181  0.00  0.00    +0.000 NA
ATOM      8  H   UNL     1       0.455   8.103  21.847  0.00  0.00    +0.000 HD
ENDROOT
BRANCH   6   9
ATOM      9  C   UNL     1       0.112  10.113  21.493  0.00  0.00    +0.000 A 
ATOM     10  C   UNL     1       0.691  11.222  20.864  0.00  0.00    +0.000 A 
ATOM     11  C   UNL     1       0.383  12.526  21.281  0.00  0.00    +0.000 A 
ATOM     12  C   UNL     1      -0.519  12.736  22.328  0.00  0.00    +0.000 A 
ATOM     13  C   UNL     1      -1.123  11.641  22.944  0.00  0.00    +0.000 A 
ATOM     14  C   UNL     1      -0.800  10.346  22.532  0.00  0.00    +0.000 A 
BRANCH  12  15
ATOM     15  C   UNL     1      -0.810  14.061  22.787  0.00  0.00    +0.000 C 
ATOM     16  N   UNL     1      -1.036  15.139  23.156  0.00  0.00    +0.000 NA
ENDBRANCH  12  15
ENDBRANCH   6   9
BRANCH   1  17
ATOM     17  C   UNL     1       3.508   5.539  19.291  0.00  0.00    +0.000 C 
BRANCH  17  18
ATOM     18  C   UNL     1       4.533   5.305  18.178  0.00  0.00    +0.000 A 
ATOM     19  C   UNL     1       5.781   5.954  18.183  0.00  0.00    +0.000 A 
ATOM     20  C   UNL     1       6.623   5.894  17.073  0.00  0.00    +0.000 A 
ATOM     21  C   UNL     1       6.244   5.155  15.951  0.00  0.00    +0.000 A 
ATOM     22  C   UNL     1       5.047   4.431  15.967  0.00  0.00    +0.000 A 
ATOM     23  C   UNL     1       4.199   4.500  17.076  0.00  0.00    +0.000 A 
BRANCH  21  24
ATOM     24  C   UNL     1       7.058   5.184  14.772  0.00  0.00    +0.000 C 
ATOM     25  N   UNL     1       7.742   5.219  13.835  0.00  0.00    +0.000 NA
ENDBRANCH  21  24
ENDBRANCH  17  18
BRANCH  17  26
ATOM     26  N   UNL     1       2.583   4.387  19.467  0.00  0.00    +0.000 NA
ATOM     27  H   UNL     1       1.637   4.766  19.524  0.00  0.00    +0.000 HD
BRANCH  26  29
ATOM     28  C   UNL     1       1.573   3.010  21.309  0.00  0.00    +0.000 C 
ATOM     29  C   UNL     1       2.843   3.575  20.673  0.00  0.00    +0.000 C 
ATOM     30  C   UNL     1       3.788   2.431  20.294  0.00  0.00    +0.000 C 
ENDBRANCH  26  29
ENDBRANCH  17  26
ENDBRANCH   1  17
TORSDOF 7
ENDMDL
MODEL 5
REMARK VINA RESULT:      -7.7      4.973      7.578
REMARK  Name = 
REMARK  9 active torsions:
REMARK  status: ('A' for Active; 'I' for Inactive)
REMARK    1  A    between atoms: C_1  and  C_2
REMARK    2  A    between atoms: C_2  and  C_3
REMARK    3  A    between atoms: C_2  and  N_4
REMARK    4  A    between atoms: N_4  and  C_5
REMARK    5  A    between atoms: C_5  and  C_6
REMARK    6  A    between atoms: C_5  and  C_14
REMARK    7  A    between atoms: C_9  and  C_10
REMARK    8  A    between atoms: N_19  and  C_20
REMARK    9  A    between atoms: C_23  and  C_24
REMARK                            x       y       z     vdW  Elec       q    Type
REMARK                         _______ _______ _______ _____ _____    ______ ____
ROOT
ATOM      1  C   UNL     1       3.112   6.546  19.186  0.00  0.00    +0.000 A 
ATOM      2  C   UNL     1       3.027   7.246  17.998  0.00  0.00    +0.000 A 
ATOM      3  C   UNL     1       2.164   8.308  17.986  0.00  0.00    +0.000 A 
ATOM      4  N   UNL     1       1.437   8.676  19.050  0.00  0.00    +0.000 NA
ATOM      5  C   UNL     1       1.553   7.948  20.172  0.00  0.00    +0.000 A 
ATOM      6  N   UNL     1       0.795   8.284  21.291  0.00  0.00    +0.000 N 
ATOM      7  N   UNL     1       2.355   6.872  20.271  0.00  0.00    +0.000 NA
ATOM      8  H   UNL     1       0.862   7.590  22.012  0.00  0.00    +0.000 HD
ENDROOT
BRANCH   6   9
ATOM      9  C   UNL     1       0.248   9.529  21.631  0.00  0.00    +0.000 A 
ATOM     10  C   UNL     1       0.644  10.680  20.939  0.00  0.00    +0.000 A 
ATOM     11  C   UNL     1       0.202  11.949  21.343  0.00  0.00    +0.000 A 
ATOM     12  C   UNL     1      -0.654  12.080  22.441  0.00  0.00    +0.000 A 
ATOM     13  C   UNL     1      -1.078  10.939  23.121  0.00  0.00    +0.000 A 
ATOM     14  C   UNL     1      -0.622   9.682  22.721  0.00  0.00    +0.000 A 
BRANCH  12  15
ATOM     15  C   UNL     1      -1.079  13.374  22.885  0.00  0.00    +0.000 C 
ATOM     16  N   UNL     1      -1.430  14.418  23.252  0.00  0.00    +0.000 NA
ENDBRANCH  12  15
ENDBRANCH   6   9
BRANCH   1  17
ATOM     17  C   UNL     1       4.044   5.339  19.323  0.00  0.00    +0.000 C 
BRANCH  17  18
ATOM     18  C   UNL     1       4.996   5.178  18.134  0.00  0.00    +0.000 A 
ATOM     19  C   UNL     1       6.185   5.923  18.041  0.00  0.00    +0.000 A 
ATOM     20  C   UNL     1       6.941   5.921  16.871  0.00  0.00    +0.000 A 
ATOM     21  C   UNL     1       6.538   5.146  15.782  0.00  0.00    +0.000 A 
ATOM     22  C   UNL     1       5.406   4.331  15.891  0.00  0.00    +0.000 A 
ATOM     23  C   UNL     1       4.643   4.341  17.062  0.00  0.00    +0.000 A 
BRANCH  21  24
ATOM     24  C   UNL     1       7.254   5.230  14.544  0.00  0.00    +0.000 C 
ATOM     25  N   UNL     1       7.844   5.327  13.549  0.00  0.00    +0.000 NA
ENDBRANCH  21  24
ENDBRANCH  17  18
BRANCH  17  26
ATOM     26  N   UNL     1       3.287   4.093  19.620  0.00  0.00    +0.000 NA
ATOM     27  H   UNL     1       3.668   3.359  19.023  0.00  0.00    +0.000 HD
BRANCH  26  29
ATOM     28  C   UNL     1       1.375   3.468  18.116  0.00  0.00    +0.000 C 
ATOM     29  C   UNL     1       1.833   4.192  19.382  0.00  0.00    +0.000 C 
ATOM     30  C   UNL     1       1.101   3.623  20.601  0.00  0.00    +0.000 C 
ENDBRANCH  26  29
ENDBRANCH  17  26
ENDBRANCH   1  17
TORSDOF 7
ENDMDL
MODEL 6
REMARK VINA RESULT:      -7.4      4.737      7.001
REMARK  Name = 
REMARK  9 active torsions:
REMARK  status: ('A' for Active; 'I' for Inactive)
REMARK    1  A    between atoms: C_1  and  C_2
REMARK    2  A    between atoms: C_2  and  C_3
REMARK    3  A    between atoms: C_2  and  N_4
REMARK    4  A    between atoms: N_4  and  C_5
REMARK    5  A    between atoms: C_5  and  C_6
REMARK    6  A    between atoms: C_5  and  C_14
REMARK    7  A    between atoms: C_9  and  C_10
REMARK    8  A    between atoms: N_19  and  C_20
REMARK    9  A    between atoms: C_23  and  C_24
REMARK                            x       y       z     vdW  Elec       q    Type
REMARK                         _______ _______ _______ _____ _____    ______ ____
ROOT
ATOM      1  C   UNL     1       3.215   5.150  18.533  0.00  0.00    +0.000 A 
ATOM      2  C   UNL     1       3.097   5.159  19.909  0.00  0.00    +0.000 A 
ATOM      3  C   UNL     1       2.706   6.343  20.472  0.00  0.00    +0.000 A 
ATOM      4  N   UNL     1       2.438   7.443  19.756  0.00  0.00    +0.000 NA
ATOM      5  C   UNL     1       2.584   7.376  18.423  0.00  0.00    +0.000 A 
ATOM      6  N   UNL     1       2.339   8.507  17.647  0.00  0.00    +0.000 N 
ATOM      7  N   UNL     1       2.989   6.265  17.783  0.00  0.00    +0.000 NA
ATOM      8  H   UNL     1       2.616   8.373  16.692  0.00  0.00    +0.000 HD
ENDROOT
BRANCH   6   9
ATOM      9  C   UNL     1       1.524   9.608  17.944  0.00  0.00    +0.000 A 
ATOM     10  C   UNL     1       2.104  10.836  18.286  0.00  0.00    +0.000 A 
ATOM     11  C   UNL     1       1.309  11.913  18.704  0.00  0.00    +0.000 A 
ATOM     12  C   UNL     1      -0.080  11.779  18.774  0.00  0.00    +0.000 A 
ATOM     13  C   UNL     1      -0.672  10.571  18.408  0.00  0.00    +0.000 A 
ATOM     14  C   UNL     1       0.128   9.498  18.007  0.00  0.00    +0.000 A 
BRANCH  12  15
ATOM     15  C   UNL     1      -0.897  12.861  19.237  0.00  0.00    +0.000 C 
ATOM     16  N   UNL     1      -1.565  13.731  19.617  0.00  0.00    +0.000 NA
ENDBRANCH  12  15
ENDBRANCH   6   9
BRANCH   1  17
ATOM     17  C   UNL     1       3.645   3.883  17.788  0.00  0.00    +0.000 C 
BRANCH  17  18
ATOM     18  C   UNL     1       4.791   4.126  16.802  0.00  0.00    +0.000 A 
ATOM     19  C   UNL     1       5.997   4.724  17.213  0.00  0.00    +0.000 A 
ATOM     20  C   UNL     1       6.952   5.124  16.280  0.00  0.00    +0.000 A 
ATOM     21  C   UNL     1       6.732   4.900  14.920  0.00  0.00    +0.000 A 
ATOM     22  C   UNL     1       5.579   4.225  14.503  0.00  0.00    +0.000 A 
ATOM     23  C   UNL     1       4.618   3.834  15.439  0.00  0.00    +0.000 A 
BRANCH  21  24
ATOM     24  C   UNL     1       7.662   5.408  13.956  0.00  0.00    +0.000 C 
ATOM     25  N   UNL     1       8.434   5.830  13.198  0.00  0.00    +0.000 NA
ENDBRANCH  21  24
ENDBRANCH  17  18
BRANCH  17  26
ATOM     26  N   UNL     1       2.485   3.199  17.156  0.00  0.00    +0.000 NA
ATOM     27  H   UNL     1       1.707   3.861  17.157  0.00  0.00    +0.000 HD
BRANCH  26  29
ATOM     28  C   UNL     1       3.180   1.288  18.629  0.00  0.00    +0.000 C 
ATOM     29  C   UNL     1       2.057   1.964  17.842  0.00  0.00    +0.000 C 
ATOM     30  C   UNL     1       0.897   2.306  18.781  0.00  0.00    +0.000 C 
ENDBRANCH  26  29
ENDBRANCH  17  26
ENDBRANCH   1  17
TORSDOF 7
ENDMDL
MODEL 7
REMARK VINA RESULT:      -7.3      5.572      7.822
REMARK  Name = 
REMARK  9 active torsions:
REMARK  status: ('A' for Active; 'I' for Inactive)
REMARK    1  A    between atoms: C_1  and  C_2
REMARK    2  A    between atoms: C_2  and  C_3
REMARK    3  A    between atoms: C_2  and  N_4
REMARK    4  A    between atoms: N_4  and  C_5
REMARK    5  A    between atoms: C_5  and  C_6
REMARK    6  A    between atoms: C_5  and  C_14
REMARK    7  A    between atoms: C_9  and  C_10
REMARK    8  A    between atoms: N_19  and  C_20
REMARK    9  A    between atoms: C_23  and  C_24
REMARK                            x       y       z     vdW  Elec       q    Type
REMARK                         _______ _______ _______ _____ _____    ______ ____
ROOT
ATOM      1  C   UNL     1       2.263   7.387  19.041  0.00  0.00    +0.000 A 
ATOM      2  C   UNL     1       2.131   8.128  17.883  0.00  0.00    +0.000 A 
ATOM      3  C   UNL     1       1.396   9.278  17.985  0.00  0.00    +0.000 A 
ATOM      4  N   UNL     1       0.833   9.691  19.129  0.00  0.00    +0.000 NA
ATOM      5  C   UNL     1       0.986   8.921  20.218  0.00  0.00    +0.000 A 
ATOM      6  N   UNL     1       0.394   9.304  21.420  0.00  0.00    +0.000 N 
ATOM      7  N   UNL     1       1.667   7.761  20.209  0.00  0.00    +0.000 NA
ATOM      8  H   UNL     1       0.460   8.585  22.116  0.00  0.00    +0.000 HD
ENDROOT
BRANCH   6   9
ATOM      9  C   UNL     1       0.030  10.590  21.840  0.00  0.00    +0.000 A 
ATOM     10  C   UNL     1      -0.955  10.752  22.822  0.00  0.00    +0.000 A 
ATOM     11  C   UNL     1      -1.420  12.030  23.168  0.00  0.00    +0.000 A 
ATOM     12  C   UNL     1      -0.894  13.165  22.544  0.00  0.00    +0.000 A 
ATOM     13  C   UNL     1       0.108  13.018  21.586  0.00  0.00    +0.000 A 
ATOM     14  C   UNL     1       0.554  11.742  21.236  0.00  0.00    +0.000 A 
BRANCH  12  15
ATOM     15  C   UNL     1      -1.390  14.470  22.863  0.00  0.00    +0.000 C 
ATOM     16  N   UNL     1      -1.784  15.530  23.128  0.00  0.00    +0.000 NA
ENDBRANCH  12  15
ENDBRANCH   6   9
BRANCH   1  17
ATOM     17  C   UNL     1       3.063   6.081  19.053  0.00  0.00    +0.000 C 
BRANCH  17  18
ATOM     18  C   UNL     1       3.980   5.929  17.836  0.00  0.00    +0.000 A 
ATOM     19  C   UNL     1       3.938   4.778  17.027  0.00  0.00    +0.000 A 
ATOM     20  C   UNL     1       4.906   4.557  16.048  0.00  0.00    +0.000 A 
ATOM     21  C   UNL     1       5.913   5.500  15.838  0.00  0.00    +0.000 A 
ATOM     22  C   UNL     1       5.915   6.691  16.574  0.00  0.00    +0.000 A 
ATOM     23  C   UNL     1       4.950   6.907  17.562  0.00  0.00    +0.000 A 
BRANCH  21  24
ATOM     24  C   UNL     1       6.967   5.221  14.909  0.00  0.00    +0.000 C 
ATOM     25  N   UNL     1       7.814   5.022  14.141  0.00  0.00    +0.000 NA
ENDBRANCH  21  24
ENDBRANCH  17  18
BRANCH  17  26
ATOM     26  N   UNL     1       2.181   4.900  19.254  0.00  0.00    +0.000 NA
ATOM     27  H   UNL     1       1.308   5.241  19.660  0.00  0.00    +0.000 HD
BRANCH  26  29
ATOM     28  C   UNL     1       2.181   3.908  21.561  0.00  0.00    +0.000 C 
ATOM     29  C   UNL     1       2.744   3.863  20.141  0.00  0.00    +0.000 C 
ATOM     30  C   UNL     1       2.472   2.491  19.517  0.00  0.00    +0.000 C 
ENDBRANCH  26  29
ENDBRANCH  17  26
ENDBRANCH   1  17
TORSDOF 7
ENDMDL
MODEL 8
REMARK VINA RESULT:      -7.2      5.188      7.670
REMARK  Name = 
REMARK  9 active torsions:
REMARK  status: ('A' for Active; 'I' for Inactive)
REMARK    1  A    between atoms: C_1  and  C_2
REMARK    2  A    between atoms: C_2  and  C_3
REMARK    3  A    between atoms: C_2  and  N_4
REMARK    4  A    between atoms: N_4  and  C_5
REMARK    5  A    between atoms: C_5  and  C_6
REMARK    6  A    between atoms: C_5  and  C_14
REMARK    7  A    between atoms: C_9  and  C_10
REMARK    8  A    between atoms: N_19  and  C_20
REMARK    9  A    between atoms: C_23  and  C_24
REMARK                            x       y       z     vdW  Elec       q    Type
REMARK                         _______ _______ _______ _____ _____    ______ ____
ROOT
ATOM      1  C   UNL     1       2.897   6.928  18.954  0.00  0.00    +0.000 A 
ATOM      2  C   UNL     1       2.708   7.691  17.817  0.00  0.00    +0.000 A 
ATOM      3  C   UNL     1       1.852   8.752  17.940  0.00  0.00    +0.000 A 
ATOM      4  N   UNL     1       1.226   9.061  19.084  0.00  0.00    +0.000 NA
ATOM      5  C   UNL     1       1.439   8.274  20.150  0.00  0.00    +0.000 A 
ATOM      6  N   UNL     1       0.787   8.549  21.349  0.00  0.00    +0.000 N 
ATOM      7  N   UNL     1       2.242   7.195  20.118  0.00  0.00    +0.000 NA
ATOM      8  H   UNL     1       0.916   7.817  22.023  0.00  0.00    +0.000 HD
ENDROOT
BRANCH   6   9
ATOM      9  C   UNL     1       0.278   9.773  21.804  0.00  0.00    +0.000 A 
ATOM     10  C   UNL     1      -0.673   9.798  22.832  0.00  0.00    +0.000 A 
ATOM     11  C   UNL     1      -1.284  11.001  23.216  0.00  0.00    +0.000 A 
ATOM     12  C   UNL     1      -0.941  12.199  22.583  0.00  0.00    +0.000 A 
ATOM     13  C   UNL     1       0.025  12.192  21.578  0.00  0.00    +0.000 A 
ATOM     14  C   UNL     1       0.617  10.988  21.191  0.00  0.00    +0.000 A 
BRANCH  12  15
ATOM     15  C   UNL     1      -1.588  13.426  22.942  0.00  0.00    +0.000 C 
ATOM     16  N   UNL     1      -2.119  14.415  23.238  0.00  0.00    +0.000 NA
ENDBRANCH  12  15
ENDBRANCH   6   9
BRANCH   1  17
ATOM     17  C   UNL     1       3.832   5.716  18.940  0.00  0.00    +0.000 C 
BRANCH  17  18
ATOM     18  C   UNL     1       4.391   5.404  17.549  0.00  0.00    +0.000 A 
ATOM     19  C   UNL     1       4.631   4.081  17.136  0.00  0.00    +0.000 A 
ATOM     20  C   UNL     1       5.322   3.814  15.955  0.00  0.00    +0.000 A 
ATOM     21  C   UNL     1       5.756   4.868  15.149  0.00  0.00    +0.000 A 
ATOM     22  C   UNL     1       5.446   6.186  15.502  0.00  0.00    +0.000 A 
ATOM     23  C   UNL     1       4.762   6.453  16.692  0.00  0.00    +0.000 A 
BRANCH  21  24
ATOM     24  C   UNL     1       6.560   4.597  13.995  0.00  0.00    +0.000 C 
ATOM     25  N   UNL     1       7.185   4.371  13.042  0.00  0.00    +0.000 NA
ENDBRANCH  21  24
ENDBRANCH  17  18
BRANCH  17  26
ATOM     26  N   UNL     1       3.202   4.530  19.581  0.00  0.00    +0.000 NA
ATOM     27  H   UNL     1       3.654   3.702  19.193  0.00  0.00    +0.000 HD
BRANCH  26  29
ATOM     28  C   UNL     1       1.378   3.625  18.111  0.00  0.00    +0.000 C 
ATOM     29  C   UNL     1       1.745   4.422  19.362  0.00  0.00    +0.000 C 
ATOM     30  C   UNL     1       1.115   3.772  20.597  0.00  0.00    +0.000 C 
ENDBRANCH  26  29
ENDBRANCH  17  26
ENDBRANCH   1  17
TORSDOF 7
ENDMDL
MODEL 9
REMARK VINA RESULT:      -7.2      4.834      7.358
REMARK  Name = 
REMARK  9 active torsions:
REMARK  status: ('A' for Active; 'I' for Inactive)
REMARK    1  A    between atoms: C_1  and  C_2
REMARK    2  A    between atoms: C_2  and  C_3
REMARK    3  A    between atoms: C_2  and  N_4
REMARK    4  A    between atoms: N_4  and  C_5
REMARK    5  A    between atoms: C_5  and  C_6
REMARK    6  A    between atoms: C_5  and  C_14
REMARK    7  A    between atoms: C_9  and  C_10
REMARK    8  A    between atoms: N_19  and  C_20
REMARK    9  A    between atoms: C_23  and  C_24
REMARK                            x       y       z     vdW  Elec       q    Type
REMARK                         _______ _______ _______ _____ _____    ______ ____
ROOT
ATOM      1  C   UNL     1       2.960   5.425  18.532  0.00  0.00    +0.000 A 
ATOM      2  C   UNL     1       2.908   5.362  19.912  0.00  0.00    +0.000 A 
ATOM      3  C   UNL     1       2.453   6.484  20.548  0.00  0.00    +0.000 A 
ATOM      4  N   UNL     1       2.067   7.591  19.898  0.00  0.00    +0.000 NA
ATOM      5  C   UNL     1       2.155   7.596  18.559  0.00  0.00    +0.000 A 
ATOM      6  N   UNL     1       1.786   8.738  17.850  0.00  0.00    +0.000 N 
ATOM      7  N   UNL     1       2.614   6.551  17.848  0.00  0.00    +0.000 NA
ATOM      8  H   UNL     1       2.027   8.669  16.878  0.00  0.00    +0.000 HD
ENDROOT
BRANCH   6   9
ATOM      9  C   UNL     1       0.904   9.756  18.235  0.00  0.00    +0.000 A 
ATOM     10  C   UNL     1       1.366  10.826  19.010  0.00  0.00    +0.000 A 
ATOM     11  C   UNL     1       0.476  11.789  19.508  0.00  0.00    +0.000 A 
ATOM     12  C   UNL     1      -0.890  11.699  19.225  0.00  0.00    +0.000 A 
ATOM     13  C   UNL     1      -1.359  10.654  18.430  0.00  0.00    +0.000 A 
ATOM     14  C   UNL     1      -0.468   9.692  17.951  0.00  0.00    +0.000 A 
BRANCH  12  15
ATOM     15  C   UNL     1      -1.812  12.656  19.761  0.00  0.00    +0.000 C 
ATOM     16  N   UNL     1      -2.559  13.437  20.186  0.00  0.00    +0.000 NA
ENDBRANCH  12  15
ENDBRANCH   6   9
BRANCH   1  17
ATOM     17  C   UNL     1       3.451   4.230  17.709  0.00  0.00    +0.000 C 
BRANCH  17  18
ATOM     18  C   UNL     1       4.438   4.626  16.608  0.00  0.00    +0.000 A 
ATOM     19  C   UNL     1       4.717   3.765  15.530  0.00  0.00    +0.000 A 
ATOM     20  C   UNL     1       5.758   4.041  14.645  0.00  0.00    +0.000 A 
ATOM     21  C   UNL     1       6.517   5.202  14.803  0.00  0.00    +0.000 A 
ATOM     22  C   UNL     1       6.194   6.111  15.815  0.00  0.00    +0.000 A 
ATOM     23  C   UNL     1       5.157   5.828  16.709  0.00  0.00    +0.000 A 
BRANCH  21  24
ATOM     24  C   UNL     1       7.654   5.429  13.961  0.00  0.00    +0.000 C 
ATOM     25  N   UNL     1       8.580   5.640  13.293  0.00  0.00    +0.000 NA
ENDBRANCH  21  24
ENDBRANCH  17  18
BRANCH  17  26
ATOM     26  N   UNL     1       2.316   3.418  17.193  0.00  0.00    +0.000 NA
ATOM     27  H   UNL     1       1.472   3.984  17.289  0.00  0.00    +0.000 HD
BRANCH  26  29
ATOM     28  C   UNL     1       3.362   1.639  18.625  0.00  0.00    +0.000 C 
ATOM     29  C   UNL     1       2.112   2.137  17.899  0.00  0.00    +0.000 C 
ATOM     30  C   UNL     1       0.964   2.311  18.898  0.00  0.00    +0.000 C 
ENDBRANCH  26  29
ENDBRANCH  17  26
ENDBRANCH   1  17
TORSDOF 7
ENDMDL
