MODEL 1
REMARK VINA RESULT:      -6.8      0.000      0.000
REMARK  Name = 
REMARK  10 active torsions:
REMARK  status: ('A' for Active; 'I' for Inactive)
REMARK    1  A    between atoms: C_2  and  C_3
REMARK    2  A    between atoms: C_3  and  O_4
REMARK    3  A    between atoms: O_4  and  C_5
REMARK    4  A    between atoms: C_5  and  C_7
REMARK    5  A    between atoms: C_8  and  C_9
REMARK    6  A    between atoms: C_11  and  O_12
REMARK    7  A    between atoms: O_12  and  C_13
REMARK    8  A    between atoms: C_14  and  O_15
REMARK    9  A    between atoms: C_16  and  O_17
REMARK   10  A    between atoms: O_17  and  C_18
REMARK                            x       y       z     vdW  Elec       q    Type
REMARK                         _______ _______ _______ _____ _____    ______ ____
ROOT
ATOM      1  C   UNL     1       5.722   4.535  15.846  0.00  0.00    +0.000 A 
ATOM      2  C   UNL     1       5.002   3.895  16.869  0.00  0.00    +0.000 A 
ATOM      3  C   UNL     1       5.241   4.201  18.213  0.00  0.00    +0.000 A 
ATOM      4  C   UNL     1       6.223   5.149  18.530  0.00  0.00    +0.000 A 
ATOM      5  C   UNL     1       6.963   5.793  17.534  0.00  0.00    +0.000 A 
ATOM      6  C   UNL     1       6.705   5.476  16.194  0.00  0.00    +0.000 A 
ENDROOT
BRANCH   1   8
ATOM      7  C   UNL     1       6.431   3.707  13.579  0.00  0.00    +0.000 C 
ATOM      8  C   UNL     1       5.491   4.131  14.445  0.00  0.00    +0.000 C 
BRANCH   7   9
ATOM      9  C   UNL     1       6.036   3.290  12.210  0.00  0.00    +0.000 C 
ATOM     10  O   UNL     1       6.703   2.562  11.493  0.00  0.00    +0.000 OA
BRANCH   9  11
ATOM     11  O   UNL     1       4.842   3.857  11.895  0.00  0.00    +0.000 OA
BRANCH  11  12
ATOM     12  C   UNL     1       3.957   3.026  11.113  0.00  0.00    +0.000 C 
BRANCH  12  14
ATOM     13  C   UNL     1       2.549   4.624   9.258  0.00  0.00    +0.000 C 
ATOM     14  C   UNL     1       3.199   3.886  10.115  0.00  0.00    +0.000 C 
ENDBRANCH  12  14
ENDBRANCH  11  12
ENDBRANCH   9  11
ENDBRANCH   7   9
ENDBRANCH   1   8
BRANCH   3  15
ATOM     15  O   UNL     1       4.598   3.646  19.293  0.00  0.00    +0.000 OA
ATOM     16  C   UNL     1       3.178   3.745  19.309  0.00  0.00    +0.000 C 
ENDBRANCH   3  15
BRANCH   4  17
ATOM     17  O   UNL     1       6.467   5.438  19.853  0.00  0.00    +0.000 OA
ATOM     18  H   UNL     1       6.551   6.409  19.898  0.00  0.00    +0.000 HD
ENDBRANCH   4  17
BRANCH   5  19
ATOM     19  O   UNL     1       7.908   6.691  17.956  0.00  0.00    +0.000 OA
ATOM     20  C   UNL     1       7.760   8.038  17.529  0.00  0.00    +0.000 C 
ENDBRANCH   5  19
TORSDOF 8
ENDMDL
MODEL 2
REMARK VINA RESULT:      -6.8      2.357      3.285
REMARK  Name = 
REMARK  10 active torsions:
REMARK  status: ('A' for Active; 'I' for Inactive)
REMARK    1  A    between atoms: C_2  and  C_3
REMARK    2  A    between atoms: C_3  and  O_4
REMARK    3  A    between atoms: O_4  and  C_5
REMARK    4  A    between atoms: C_5  and  C_7
REMARK    5  A    between atoms: C_8  and  C_9
REMARK    6  A    between atoms: C_11  and  O_12
REMARK    7  A    between atoms: O_12  and  C_13
REMARK    8  A    between atoms: C_14  and  O_15
REMARK    9  A    between atoms: C_16  and  O_17
REMARK   10  A    between atoms: O_17  and  C_18
REMARK                            x       y       z     vdW  Elec       q    Type
REMARK                         _______ _______ _______ _____ _____    ______ ____
ROOT
ATOM      1  C   UNL     1       4.226   4.850  17.304  0.00  0.00    +0.000 A 
ATOM      2  C   UNL     1       4.210   3.786  18.222  0.00  0.00    +0.000 A 
ATOM      3  C   UNL     1       3.601   3.926  19.473  0.00  0.00    +0.000 A 
ATOM      4  C   UNL     1       3.014   5.154  19.809  0.00  0.00    +0.000 A 
ATOM      5  C   UNL     1       3.026   6.234  18.921  0.00  0.00    +0.000 A 
ATOM      6  C   UNL     1       3.637   6.070  17.672  0.00  0.00    +0.000 A 
ENDROOT
BRANCH   1   8
ATOM      7  C   UNL     1       6.221   5.034  15.784  0.00  0.00    +0.000 C 
ATOM      8  C   UNL     1       4.944   4.684  16.025  0.00  0.00    +0.000 C 
BRANCH   7   9
ATOM      9  C   UNL     1       6.820   4.761  14.452  0.00  0.00    +0.000 C 
ATOM     10  O   UNL     1       7.731   5.408  13.963  0.00  0.00    +0.000 OA
BRANCH   9  11
ATOM     11  O   UNL     1       6.184   3.705  13.881  0.00  0.00    +0.000 OA
BRANCH  11  12
ATOM     12  C   UNL     1       6.407   3.549  12.464  0.00  0.00    +0.000 C 
BRANCH  12  14
ATOM     13  C   UNL     1       3.940   3.129  11.155  0.00  0.00    +0.000 C 
ATOM     14  C   UNL     1       5.080   3.323  11.759  0.00  0.00    +0.000 C 
ENDBRANCH  12  14
ENDBRANCH  11  12
ENDBRANCH   9  11
ENDBRANCH   7   9
ENDBRANCH   1   8
BRANCH   3  15
ATOM     15  O   UNL     1       3.519   2.958  20.444  0.00  0.00    +0.000 OA
ATOM     16  C   UNL     1       4.528   1.953  20.430  0.00  0.00    +0.000 C 
ENDBRANCH   3  15
BRANCH   4  17
ATOM     17  O   UNL     1       2.428   5.295  21.045  0.00  0.00    +0.000 OA
ATOM     18  H   UNL     1       3.156   5.511  21.658  0.00  0.00    +0.000 HD
ENDBRANCH   4  17
BRANCH   5  19
ATOM     19  O   UNL     1       2.437   7.392  19.358  0.00  0.00    +0.000 OA
ATOM     20  C   UNL     1       2.194   8.402  18.389  0.00  0.00    +0.000 C 
ENDBRANCH   5  19
TORSDOF 8
ENDMDL
MODEL 3
REMARK VINA RESULT:      -6.7      2.099      6.292
REMARK  Name = 
REMARK  10 active torsions:
REMARK  status: ('A' for Active; 'I' for Inactive)
REMARK    1  A    between atoms: C_2  and  C_3
REMARK    2  A    between atoms: C_3  and  O_4
REMARK    3  A    between atoms: O_4  and  C_5
REMARK    4  A    between atoms: C_5  and  C_7
REMARK    5  A    between atoms: C_8  and  C_9
REMARK    6  A    between atoms: C_11  and  O_12
REMARK    7  A    between atoms: O_12  and  C_13
REMARK    8  A    between atoms: C_14  and  O_15
REMARK    9  A    between atoms: C_16  and  O_17
REMARK   10  A    between atoms: O_17  and  C_18
REMARK                            x       y       z     vdW  Elec       q    Type
REMARK                         _______ _______ _______ _____ _____    ______ ____
ROOT
ATOM      1  C   UNL     1       4.859   4.293  16.984  0.00  0.00    +0.000 A 
ATOM      2  C   UNL     1       5.082   3.636  15.761  0.00  0.00    +0.000 A 
ATOM      3  C   UNL     1       6.115   4.039  14.909  0.00  0.00    +0.000 A 
ATOM      4  C   UNL     1       6.922   5.122  15.284  0.00  0.00    +0.000 A 
ATOM      5  C   UNL     1       6.716   5.802  16.489  0.00  0.00    +0.000 A 
ATOM      6  C   UNL     1       5.678   5.379  17.330  0.00  0.00    +0.000 A 
ENDROOT
BRANCH   1   8
ATOM      7  C   UNL     1       2.952   2.788  17.636  0.00  0.00    +0.000 C 
ATOM      8  C   UNL     1       3.712   3.884  17.819  0.00  0.00    +0.000 C 
BRANCH   7   9
ATOM      9  C   UNL     1       1.856   2.485  18.591  0.00  0.00    +0.000 C 
ATOM     10  O   UNL     1       0.685   2.349  18.273  0.00  0.00    +0.000 OA
BRANCH   9  11
ATOM     11  O   UNL     1       2.364   2.404  19.848  0.00  0.00    +0.000 OA
BRANCH  11  12
ATOM     12  C   UNL     1       1.571   3.043  20.872  0.00  0.00    +0.000 C 
BRANCH  12  14
ATOM     13  C   UNL     1       1.775   5.848  20.618  0.00  0.00    +0.000 C 
ATOM     14  C   UNL     1       1.680   4.552  20.735  0.00  0.00    +0.000 C 
ENDBRANCH  12  14
ENDBRANCH  11  12
ENDBRANCH   9  11
ENDBRANCH   7   9
ENDBRANCH   1   8
BRANCH   3  15
ATOM     15  O   UNL     1       6.430   3.472  13.699  0.00  0.00    +0.000 OA
ATOM     16  C   UNL     1       5.455   3.587  12.668  0.00  0.00    +0.000 C 
ENDBRANCH   3  15
BRANCH   4  17
ATOM     17  O   UNL     1       7.929   5.527  14.439  0.00  0.00    +0.000 OA
ATOM     18  H   UNL     1       7.539   6.226  13.882  0.00  0.00    +0.000 HD
ENDBRANCH   4  17
BRANCH   5  19
ATOM     19  O   UNL     1       7.553   6.855  16.749  0.00  0.00    +0.000 OA
ATOM     20  C   UNL     1       7.843   7.132  18.112  0.00  0.00    +0.000 C 
ENDBRANCH   5  19
TORSDOF 8
ENDMDL
MODEL 4
REMARK VINA RESULT:      -6.7      2.177      6.566
REMARK  Name = 
REMARK  10 active torsions:
REMARK  status: ('A' for Active; 'I' for Inactive)
REMARK    1  A    between atoms: C_2  and  C_3
REMARK    2  A    between atoms: C_3  and  O_4
REMARK    3  A    between atoms: O_4  and  C_5
REMARK    4  A    between atoms: C_5  and  C_7
REMARK    5  A    between atoms: C_8  and  C_9
REMARK    6  A    between atoms: C_11  and  O_12
REMARK    7  A    between atoms: O_12  and  C_13
REMARK    8  A    between atoms: C_14  and  O_15
REMARK    9  A    between atoms: C_16  and  O_17
REMARK   10  A    between atoms: O_17  and  C_18
REMARK                            x       y       z     vdW  Elec       q    Type
REMARK                         _______ _______ _______ _____ _____    ______ ____
ROOT
ATOM      1  C   UNL     1       4.424   4.424  16.709  0.00  0.00    +0.000 A 
ATOM      2  C   UNL     1       5.189   5.504  17.180  0.00  0.00    +0.000 A 
ATOM      3  C   UNL     1       6.341   5.917  16.504  0.00  0.00    +0.000 A 
ATOM      4  C   UNL     1       6.735   5.227  15.349  0.00  0.00    +0.000 A 
ATOM      5  C   UNL     1       6.001   4.140  14.863  0.00  0.00    +0.000 A 
ATOM      6  C   UNL     1       4.848   3.747  15.554  0.00  0.00    +0.000 A 
ENDROOT
BRANCH   1   8
ATOM      7  C   UNL     1       3.029   2.718  17.921  0.00  0.00    +0.000 C 
ATOM      8  C   UNL     1       3.257   3.974  17.493  0.00  0.00    +0.000 C 
BRANCH   7   9
ATOM      9  C   UNL     1       1.826   2.428  18.743  0.00  0.00    +0.000 C 
ATOM     10  O   UNL     1       0.693   2.348  18.298  0.00  0.00    +0.000 OA
BRANCH   9  11
ATOM     11  O   UNL     1       2.193   2.287  20.043  0.00  0.00    +0.000 OA
BRANCH  11  12
ATOM     12  C   UNL     1       1.402   3.039  20.988  0.00  0.00    +0.000 C 
BRANCH  12  14
ATOM     13  C   UNL     1       1.802   5.803  20.570  0.00  0.00    +0.000 C 
ATOM     14  C   UNL     1       1.617   4.527  20.763  0.00  0.00    +0.000 C 
ENDBRANCH  12  14
ENDBRANCH  11  12
ENDBRANCH   9  11
ENDBRANCH   7   9
ENDBRANCH   1   8
BRANCH   3  15
ATOM     15  O   UNL     1       7.160   6.959  16.866  0.00  0.00    +0.000 OA
ATOM     16  C   UNL     1       7.762   6.878  18.153  0.00  0.00    +0.000 C 
ENDBRANCH   3  15
BRANCH   4  17
ATOM     17  O   UNL     1       7.877   5.625  14.693  0.00  0.00    +0.000 OA
ATOM     18  H   UNL     1       8.359   4.803  14.483  0.00  0.00    +0.000 HD
ENDBRANCH   4  17
BRANCH   5  19
ATOM     19  O   UNL     1       6.485   3.529  13.736  0.00  0.00    +0.000 OA
ATOM     20  C   UNL     1       5.641   3.515  12.593  0.00  0.00    +0.000 C 
ENDBRANCH   5  19
TORSDOF 8
ENDMDL
MODEL 5
REMARK VINA RESULT:      -6.7      0.412      2.887
REMARK  Name = 
REMARK  10 active torsions:
REMARK  status: ('A' for Active; 'I' for Inactive)
REMARK    1  A    between atoms: C_2  and  C_3
REMARK    2  A    between atoms: C_3  and  O_4
REMARK    3  A    between atoms: O_4  and  C_5
REMARK    4  A    between atoms: C_5  and  C_7
REMARK    5  A    between atoms: C_8  and  C_9
REMARK    6  A    between atoms: C_11  and  O_12
REMARK    7  A    between atoms: O_12  and  C_13
REMARK    8  A    between atoms: C_14  and  O_15
REMARK    9  A    between atoms: C_16  and  O_17
REMARK   10  A    between atoms: O_17  and  C_18
REMARK                            x       y       z     vdW  Elec       q    Type
REMARK                         _______ _______ _______ _____ _____    ______ ____
ROOT
ATOM      1  C   UNL     1       5.744   4.250  15.944  0.00  0.00    +0.000 A 
ATOM      2  C   UNL     1       6.743   5.190  16.249  0.00  0.00    +0.000 A 
ATOM      3  C   UNL     1       6.951   5.614  17.565  0.00  0.00    +0.000 A 
ATOM      4  C   UNL     1       6.135   5.099  18.582  0.00  0.00    +0.000 A 
ATOM      5  C   UNL     1       5.125   4.172  18.307  0.00  0.00    +0.000 A 
ATOM      6  C   UNL     1       4.937   3.757  16.982  0.00  0.00    +0.000 A 
ENDROOT
BRANCH   1   8
ATOM      7  C   UNL     1       6.459   3.686  13.600  0.00  0.00    +0.000 C 
ATOM      8  C   UNL     1       5.509   3.885  14.533  0.00  0.00    +0.000 C 
BRANCH   7   9
ATOM      9  C   UNL     1       6.067   3.277  12.227  0.00  0.00    +0.000 C 
ATOM     10  O   UNL     1       6.736   2.553  11.508  0.00  0.00    +0.000 OA
BRANCH   9  11
ATOM     11  O   UNL     1       4.874   3.847  11.912  0.00  0.00    +0.000 OA
BRANCH  11  12
ATOM     12  C   UNL     1       3.988   3.018  11.128  0.00  0.00    +0.000 C 
BRANCH  12  14
ATOM     13  C   UNL     1       2.645   4.606   9.218  0.00  0.00    +0.000 C 
ATOM     14  C   UNL     1       3.266   3.873  10.101  0.00  0.00    +0.000 C 
ENDBRANCH  12  14
ENDBRANCH  11  12
ENDBRANCH   9  11
ENDBRANCH   7   9
ENDBRANCH   1   8
BRANCH   3  15
ATOM     15  O   UNL     1       7.897   6.519  17.982  0.00  0.00    +0.000 OA
ATOM     16  C   UNL     1       7.734   7.862  17.537  0.00  0.00    +0.000 C 
ENDBRANCH   3  15
BRANCH   4  17
ATOM     17  O   UNL     1       6.331   5.528  19.875  0.00  0.00    +0.000 OA
ATOM     18  H   UNL     1       6.610   4.738  20.374  0.00  0.00    +0.000 HD
ENDBRANCH   4  17
BRANCH   5  19
ATOM     19  O   UNL     1       4.377   3.746  19.374  0.00  0.00    +0.000 OA
ATOM     20  C   UNL     1       4.059   2.362  19.431  0.00  0.00    +0.000 C 
ENDBRANCH   5  19
TORSDOF 8
ENDMDL
MODEL 6
REMARK VINA RESULT:      -6.7      2.455      3.919
REMARK  Name = 
REMARK  10 active torsions:
REMARK  status: ('A' for Active; 'I' for Inactive)
REMARK    1  A    between atoms: C_2  and  C_3
REMARK    2  A    between atoms: C_3  and  O_4
REMARK    3  A    between atoms: O_4  and  C_5
REMARK    4  A    between atoms: C_5  and  C_7
REMARK    5  A    between atoms: C_8  and  C_9
REMARK    6  A    between atoms: C_11  and  O_12
REMARK    7  A    between atoms: O_12  and  C_13
REMARK    8  A    between atoms: C_14  and  O_15
REMARK    9  A    between atoms: C_16  and  O_17
REMARK   10  A    between atoms: O_17  and  C_18
REMARK                            x       y       z     vdW  Elec       q    Type
REMARK                         _______ _______ _______ _____ _____    ______ ____
ROOT
ATOM      1  C   UNL     1       4.344   4.976  17.409  0.00  0.00    +0.000 A 
ATOM      2  C   UNL     1       3.753   6.230  17.637  0.00  0.00    +0.000 A 
ATOM      3  C   UNL     1       3.036   6.483  18.811  0.00  0.00    +0.000 A 
ATOM      4  C   UNL     1       2.901   5.459  19.759  0.00  0.00    +0.000 A 
ATOM      5  C   UNL     1       3.468   4.197  19.554  0.00  0.00    +0.000 A 
ATOM      6  C   UNL     1       4.186   3.967  18.373  0.00  0.00    +0.000 A 
ENDROOT
BRANCH   1   8
ATOM      7  C   UNL     1       6.237   5.203  15.768  0.00  0.00    +0.000 C 
ATOM      8  C   UNL     1       5.029   4.728  16.125  0.00  0.00    +0.000 C 
BRANCH   7   9
ATOM      9  C   UNL     1       6.816   4.828  14.453  0.00  0.00    +0.000 C 
ATOM     10  O   UNL     1       7.802   5.352  13.962  0.00  0.00    +0.000 OA
BRANCH   9  11
ATOM     11  O   UNL     1       6.068   3.838  13.899  0.00  0.00    +0.000 OA
BRANCH  11  12
ATOM     12  C   UNL     1       6.341   3.572  12.506  0.00  0.00    +0.000 C 
BRANCH  12  14
ATOM     13  C   UNL     1       3.916   3.087  11.142  0.00  0.00    +0.000 C 
ATOM     14  C   UNL     1       5.036   3.312  11.772  0.00  0.00    +0.000 C 
ENDBRANCH  12  14
ENDBRANCH  11  12
ENDBRANCH   9  11
ENDBRANCH   7   9
ENDBRANCH   1   8
BRANCH   3  15
ATOM     15  O   UNL     1       2.423   7.666  19.143  0.00  0.00    +0.000 OA
ATOM     16  C   UNL     1       2.200   8.589  18.082  0.00  0.00    +0.000 C 
ENDBRANCH   3  15
BRANCH   4  17
ATOM     17  O   UNL     1       2.184   5.704  20.907  0.00  0.00    +0.000 OA
ATOM     18  H   UNL     1       2.841   5.987  21.571  0.00  0.00    +0.000 HD
ENDBRANCH   4  17
BRANCH   5  19
ATOM     19  O   UNL     1       3.262   3.266  20.538  0.00  0.00    +0.000 OA
ATOM     20  C   UNL     1       4.156   2.163  20.585  0.00  0.00    +0.000 C 
ENDBRANCH   5  19
TORSDOF 8
ENDMDL
MODEL 7
REMARK VINA RESULT:      -6.6      2.384      3.751
REMARK  Name = 
REMARK  10 active torsions:
REMARK  status: ('A' for Active; 'I' for Inactive)
REMARK    1  A    between atoms: C_2  and  C_3
REMARK    2  A    between atoms: C_3  and  O_4
REMARK    3  A    between atoms: O_4  and  C_5
REMARK    4  A    between atoms: C_5  and  C_7
REMARK    5  A    between atoms: C_8  and  C_9
REMARK    6  A    between atoms: C_11  and  O_12
REMARK    7  A    between atoms: O_12  and  C_13
REMARK    8  A    between atoms: C_14  and  O_15
REMARK    9  A    between atoms: C_16  and  O_17
REMARK   10  A    between atoms: O_17  and  C_18
REMARK                            x       y       z     vdW  Elec       q    Type
REMARK                         _______ _______ _______ _____ _____    ______ ____
ROOT
ATOM      1  C   UNL     1       4.835   5.269  16.373  0.00  0.00    +0.000 A 
ATOM      2  C   UNL     1       4.359   6.382  17.088  0.00  0.00    +0.000 A 
ATOM      3  C   UNL     1       3.366   6.237  18.061  0.00  0.00    +0.000 A 
ATOM      4  C   UNL     1       2.836   4.964  18.308  0.00  0.00    +0.000 A 
ATOM      5  C   UNL     1       3.281   3.840  17.605  0.00  0.00    +0.000 A 
ATOM      6  C   UNL     1       4.280   4.006  16.637  0.00  0.00    +0.000 A 
ENDROOT
BRANCH   1   8
ATOM      7  C   UNL     1       6.318   4.526  14.483  0.00  0.00    +0.000 C 
ATOM      8  C   UNL     1       5.830   5.475  15.303  0.00  0.00    +0.000 C 
BRANCH   7   9
ATOM      9  C   UNL     1       7.286   4.898  13.420  0.00  0.00    +0.000 C 
ATOM     10  O   UNL     1       8.206   5.685  13.574  0.00  0.00    +0.000 OA
BRANCH   9  11
ATOM     11  O   UNL     1       6.970   4.241  12.274  0.00  0.00    +0.000 OA
BRANCH  11  12
ATOM     12  C   UNL     1       6.136   3.076  12.446  0.00  0.00    +0.000 C 
BRANCH  12  14
ATOM     13  C   UNL     1       3.778   3.363  10.919  0.00  0.00    +0.000 C 
ATOM     14  C   UNL     1       4.867   3.230  11.624  0.00  0.00    +0.000 C 
ENDBRANCH  12  14
ENDBRANCH  11  12
ENDBRANCH   9  11
ENDBRANCH   7   9
ENDBRANCH   1   8
BRANCH   3  15
ATOM     15  O   UNL     1       2.830   7.247  18.823  0.00  0.00    +0.000 OA
ATOM     16  C   UNL     1       2.274   8.352  18.118  0.00  0.00    +0.000 C 
ENDBRANCH   3  15
BRANCH   4  17
ATOM     17  O   UNL     1       1.848   4.825  19.257  0.00  0.00    +0.000 OA
ATOM     18  H   UNL     1       1.518   3.912  19.160  0.00  0.00    +0.000 HD
ENDBRANCH   4  17
BRANCH   5  19
ATOM     19  O   UNL     1       2.684   2.646  17.916  0.00  0.00    +0.000 OA
ATOM     20  C   UNL     1       3.502   1.646  18.506  0.00  0.00    +0.000 C 
ENDBRANCH   5  19
TORSDOF 8
ENDMDL
MODEL 8
REMARK VINA RESULT:      -6.5      1.301      1.705
REMARK  Name = 
REMARK  10 active torsions:
REMARK  status: ('A' for Active; 'I' for Inactive)
REMARK    1  A    between atoms: C_2  and  C_3
REMARK    2  A    between atoms: C_3  and  O_4
REMARK    3  A    between atoms: O_4  and  C_5
REMARK    4  A    between atoms: C_5  and  C_7
REMARK    5  A    between atoms: C_8  and  C_9
REMARK    6  A    between atoms: C_11  and  O_12
REMARK    7  A    between atoms: O_12  and  C_13
REMARK    8  A    between atoms: C_14  and  O_15
REMARK    9  A    between atoms: C_16  and  O_17
REMARK   10  A    between atoms: O_17  and  C_18
REMARK                            x       y       z     vdW  Elec       q    Type
REMARK                         _______ _______ _______ _____ _____    ______ ____
ROOT
ATOM      1  C   UNL     1       5.613   4.137  16.172  0.00  0.00    +0.000 A 
ATOM      2  C   UNL     1       4.273   3.785  16.407  0.00  0.00    +0.000 A 
ATOM      3  C   UNL     1       3.698   3.957  17.670  0.00  0.00    +0.000 A 
ATOM      4  C   UNL     1       4.483   4.473  18.710  0.00  0.00    +0.000 A 
ATOM      5  C   UNL     1       5.822   4.820  18.509  0.00  0.00    +0.000 A 
ATOM      6  C   UNL     1       6.377   4.645  17.234  0.00  0.00    +0.000 A 
ENDROOT
BRANCH   1   8
ATOM      7  C   UNL     1       5.587   4.040  13.658  0.00  0.00    +0.000 C 
ATOM      8  C   UNL     1       6.202   3.872  14.844  0.00  0.00    +0.000 C 
BRANCH   7   9
ATOM      9  C   UNL     1       6.330   3.771  12.400  0.00  0.00    +0.000 C 
ATOM     10  O   UNL     1       7.416   4.255  12.126  0.00  0.00    +0.000 OA
BRANCH   9  11
ATOM     11  O   UNL     1       5.603   2.929  11.621  0.00  0.00    +0.000 OA
BRANCH  11  12
ATOM     12  C   UNL     1       4.173   3.001  11.809  0.00  0.00    +0.000 C 
BRANCH  12  14
ATOM     13  C   UNL     1       2.971   4.128   9.515  0.00  0.00    +0.000 C 
ATOM     14  C   UNL     1       3.526   3.607  10.575  0.00  0.00    +0.000 C 
ENDBRANCH  12  14
ENDBRANCH  11  12
ENDBRANCH   9  11
ENDBRANCH   7   9
ENDBRANCH   1   8
BRANCH   3  15
ATOM     15  O   UNL     1       2.402   3.656  18.014  0.00  0.00    +0.000 OA
ATOM     16  C   UNL     1       2.071   2.274  18.105  0.00  0.00    +0.000 C 
ENDBRANCH   3  15
BRANCH   4  17
ATOM     17  O   UNL     1       3.920   4.628  19.956  0.00  0.00    +0.000 OA
ATOM     18  H   UNL     1       3.244   5.324  19.853  0.00  0.00    +0.000 HD
ENDBRANCH   4  17
BRANCH   5  19
ATOM     19  O   UNL     1       6.501   5.302  19.598  0.00  0.00    +0.000 OA
ATOM     20  C   UNL     1       7.861   5.666  19.406  0.00  0.00    +0.000 C 
ENDBRANCH   5  19
TORSDOF 8
ENDMDL
MODEL 9
REMARK VINA RESULT:      -6.5      2.117      6.508
REMARK  Name = 
REMARK  10 active torsions:
REMARK  status: ('A' for Active; 'I' for Inactive)
REMARK    1  A    between atoms: C_2  and  C_3
REMARK    2  A    between atoms: C_3  and  O_4
REMARK    3  A    between atoms: O_4  and  C_5
REMARK    4  A    between atoms: C_5  and  C_7
REMARK    5  A    between atoms: C_8  and  C_9
REMARK    6  A    between atoms: C_11  and  O_12
REMARK    7  A    between atoms: O_12  and  C_13
REMARK    8  A    between atoms: C_14  and  O_15
REMARK    9  A    between atoms: C_16  and  O_17
REMARK   10  A    between atoms: O_17  and  C_18
REMARK                            x       y       z     vdW  Elec       q    Type
REMARK                         _______ _______ _______ _____ _____    ______ ____
ROOT
ATOM      1  C   UNL     1       4.897   4.219  16.430  0.00  0.00    +0.000 A 
ATOM      2  C   UNL     1       5.098   3.706  15.137  0.00  0.00    +0.000 A 
ATOM      3  C   UNL     1       6.175   4.134  14.355  0.00  0.00    +0.000 A 
ATOM      4  C   UNL     1       7.051   5.098  14.873  0.00  0.00    +0.000 A 
ATOM      5  C   UNL     1       6.869   5.636  16.151  0.00  0.00    +0.000 A 
ATOM      6  C   UNL     1       5.787   5.190  16.920  0.00  0.00    +0.000 A 
ENDROOT
BRANCH   1   8
ATOM      7  C   UNL     1       2.721   4.602  17.632  0.00  0.00    +0.000 C 
ATOM      8  C   UNL     1       3.707   3.796  17.193  0.00  0.00    +0.000 C 
BRANCH   7   9
ATOM      9  C   UNL     1       1.561   4.019  18.352  0.00  0.00    +0.000 C 
ATOM     10  O   UNL     1       1.042   2.951  18.070  0.00  0.00    +0.000 OA
BRANCH   9  11
ATOM     11  O   UNL     1       1.175   4.866  19.343  0.00  0.00    +0.000 OA
BRANCH  11  12
ATOM     12  C   UNL     1       2.033   4.881  20.504  0.00  0.00    +0.000 C 
BRANCH  12  14
ATOM     13  C   UNL     1       1.766   2.449  21.913  0.00  0.00    +0.000 C 
ATOM     14  C   UNL     1       1.889   3.572  21.262  0.00  0.00    +0.000 C 
ENDBRANCH  12  14
ENDBRANCH  11  12
ENDBRANCH   9  11
ENDBRANCH   7   9
ENDBRANCH   1   8
BRANCH   3  15
ATOM     15  O   UNL     1       6.473   3.700  13.086  0.00  0.00    +0.000 OA
ATOM     16  C   UNL     1       5.369   3.364  12.251  0.00  0.00    +0.000 C 
ENDBRANCH   3  15
BRANCH   4  17
ATOM     17  O   UNL     1       8.102   5.529  14.097  0.00  0.00    +0.000 OA
ATOM     18  H   UNL     1       8.290   4.796  13.480  0.00  0.00    +0.000 HD
ENDBRANCH   4  17
BRANCH   5  19
ATOM     19  O   UNL     1       7.776   6.582  16.552  0.00  0.00    +0.000 OA
ATOM     20  C   UNL     1       7.320   7.573  17.462  0.00  0.00    +0.000 C 
ENDBRANCH   5  19
TORSDOF 8
ENDMDL
