MODEL 1
REMARK VINA RESULT:      -7.4      0.000      0.000
REMARK  Name = 
REMARK  6 active torsions:
REMARK  status: ('A' for Active; 'I' for Inactive)
REMARK    1  A    between atoms: C_1  and  C_2
REMARK    2  A    between atoms: C_2  and  C_3
REMARK    3  A    between atoms: C_3  and  C_4
REMARK    4  A    between atoms: C_6  and  C_7
REMARK    5  A    between atoms: N_9  and  C_10
REMARK    6  A    between atoms: C_10  and  C_11
REMARK                            x       y       z     vdW  Elec       q    Type
REMARK                         _______ _______ _______ _____ _____    ______ ____
ROOT
ATOM      1  C   UNL     1       6.488   4.330  17.496  0.00  0.00    +0.000 C 
ATOM      2  O   UNL     1       7.385   4.488  18.339  0.00  0.00    +0.000 OA
ATOM      3  N   UNL     1       5.206   3.973  17.856  0.00  0.00    +0.000 N 
ATOM      4  H   UNL     1       4.497   3.843  17.141  0.00  0.00    +0.000 HD
ENDROOT
BRANCH   1   7
ATOM      5  C   UNL     1       6.754   4.354  13.849  0.00  0.00    +0.000 A 
ATOM      6  C   UNL     1       6.192   3.793  14.969  0.00  0.00    +0.000 A 
ATOM      7  C   UNL     1       6.732   4.525  16.063  0.00  0.00    +0.000 A 
ATOM      8  N   UNL     1       7.560   5.486  15.610  0.00  0.00    +0.000 NA
ATOM      9  O   UNL     1       7.562   5.378  14.226  0.00  0.00    +0.000 OA
BRANCH   5  10
ATOM     10  C   UNL     1       6.614   4.064  12.400  0.00  0.00    +0.000 C 
BRANCH  10  12
ATOM     11  C   UNL     1       4.406   3.330  11.476  0.00  0.00    +0.000 C 
ATOM     12  C   UNL     1       5.722   2.864  12.089  0.00  0.00    +0.000 C 
ENDBRANCH  10  12
ENDBRANCH   5  10
ENDBRANCH   1   7
BRANCH   3  13
ATOM     13  C   UNL     1       4.857   3.769  19.238  0.00  0.00    +0.000 C 
BRANCH  13  14
ATOM     14  C   UNL     1       3.700   4.615  19.628  0.00  0.00    +0.000 A 
ATOM     15  C   UNL     1       2.612   4.368  20.438  0.00  0.00    +0.000 A 
ATOM     16  C   UNL     1       1.847   5.555  20.471  0.00  0.00    +0.000 A 
ATOM     17  C   UNL     1       2.521   6.462  19.686  0.00  0.00    +0.000 A 
ATOM     18  O   UNL     1       3.653   5.905  19.174  0.00  0.00    +0.000 OA
ENDBRANCH  13  14
ENDBRANCH   3  13
TORSDOF 5
ENDMDL
MODEL 2
REMARK VINA RESULT:      -7.3      1.380      1.662
REMARK  Name = 
REMARK  6 active torsions:
REMARK  status: ('A' for Active; 'I' for Inactive)
REMARK    1  A    between atoms: C_1  and  C_2
REMARK    2  A    between atoms: C_2  and  C_3
REMARK    3  A    between atoms: C_3  and  C_4
REMARK    4  A    between atoms: C_6  and  C_7
REMARK    5  A    between atoms: N_9  and  C_10
REMARK    6  A    between atoms: C_10  and  C_11
REMARK                            x       y       z     vdW  Elec       q    Type
REMARK                         _______ _______ _______ _____ _____    ______ ____
ROOT
ATOM      1  C   UNL     1       6.169   4.362  17.787  0.00  0.00    +0.000 C 
ATOM      2  O   UNL     1       6.833   4.890  18.692  0.00  0.00    +0.000 OA
ATOM      3  N   UNL     1       5.061   3.585  18.054  0.00  0.00    +0.000 N 
ATOM      4  H   UNL     1       4.544   3.161  17.291  0.00  0.00    +0.000 HD
ENDROOT
BRANCH   1   7
ATOM      5  C   UNL     1       6.686   4.347  14.166  0.00  0.00    +0.000 A 
ATOM      6  C   UNL     1       6.039   3.805  15.250  0.00  0.00    +0.000 A 
ATOM      7  C   UNL     1       6.513   4.540  16.372  0.00  0.00    +0.000 A 
ATOM      8  N   UNL     1       7.384   5.486  15.969  0.00  0.00    +0.000 NA
ATOM      9  O   UNL     1       7.480   5.365  14.589  0.00  0.00    +0.000 OA
BRANCH   5  10
ATOM     10  C   UNL     1       6.641   4.045  12.714  0.00  0.00    +0.000 C 
BRANCH  10  12
ATOM     11  C   UNL     1       5.703   2.068  11.499  0.00  0.00    +0.000 C 
ATOM     12  C   UNL     1       5.363   3.342  12.263  0.00  0.00    +0.000 C 
ENDBRANCH  10  12
ENDBRANCH   5  10
ENDBRANCH   1   7
BRANCH   3  13
ATOM     13  C   UNL     1       4.629   3.357  19.408  0.00  0.00    +0.000 C 
BRANCH  13  14
ATOM     14  C   UNL     1       3.152   3.230  19.484  0.00  0.00    +0.000 A 
ATOM     15  C   UNL     1       2.211   3.886  20.251  0.00  0.00    +0.000 A 
ATOM     16  C   UNL     1       0.948   3.374  19.877  0.00  0.00    +0.000 A 
ATOM     17  C   UNL     1       1.193   2.443  18.894  0.00  0.00    +0.000 A 
ATOM     18  O   UNL     1       2.527   2.353  18.641  0.00  0.00    +0.000 OA
ENDBRANCH  13  14
ENDBRANCH   3  13
TORSDOF 5
ENDMDL
MODEL 3
REMARK VINA RESULT:      -7.1      1.686      2.116
REMARK  Name = 
REMARK  6 active torsions:
REMARK  status: ('A' for Active; 'I' for Inactive)
REMARK    1  A    between atoms: C_1  and  C_2
REMARK    2  A    between atoms: C_2  and  C_3
REMARK    3  A    between atoms: C_3  and  C_4
REMARK    4  A    between atoms: C_6  and  C_7
REMARK    5  A    between atoms: N_9  and  C_10
REMARK    6  A    between atoms: C_10  and  C_11
REMARK                            x       y       z     vdW  Elec       q    Type
REMARK                         _______ _______ _______ _____ _____    ______ ____
ROOT
ATOM      1  C   UNL     1       5.554   4.413  18.751  0.00  0.00    +0.000 C 
ATOM      2  O   UNL     1       5.469   5.246  19.666  0.00  0.00    +0.000 OA
ATOM      3  N   UNL     1       5.073   3.128  18.890  0.00  0.00    +0.000 N 
ATOM      4  H   UNL     1       5.165   2.467  18.124  0.00  0.00    +0.000 HD
ENDROOT
BRANCH   1   7
ATOM      5  C   UNL     1       6.741   4.810  15.315  0.00  0.00    +0.000 A 
ATOM      6  C   UNL     1       5.895   4.167  16.184  0.00  0.00    +0.000 A 
ATOM      7  C   UNL     1       6.160   4.745  17.457  0.00  0.00    +0.000 A 
ATOM      8  N   UNL     1       7.105   5.698  17.343  0.00  0.00    +0.000 NA
ATOM      9  O   UNL     1       7.457   5.739  16.001  0.00  0.00    +0.000 OA
BRANCH   5  10
ATOM     10  C   UNL     1       6.966   4.685  13.854  0.00  0.00    +0.000 C 
BRANCH  10  12
ATOM     11  C   UNL     1       6.602   3.189  11.880  0.00  0.00    +0.000 C 
ATOM     12  C   UNL     1       5.978   3.759  13.148  0.00  0.00    +0.000 C 
ENDBRANCH  10  12
ENDBRANCH   5  10
ENDBRANCH   1   7
BRANCH   3  13
ATOM     13  C   UNL     1       4.448   2.702  20.114  0.00  0.00    +0.000 C 
BRANCH  13  14
ATOM     14  C   UNL     1       2.979   2.915  20.067  0.00  0.00    +0.000 A 
ATOM     15  C   UNL     1       2.132   3.662  20.860  0.00  0.00    +0.000 A 
ATOM     16  C   UNL     1       0.833   3.515  20.324  0.00  0.00    +0.000 A 
ATOM     17  C   UNL     1       0.966   2.695  19.228  0.00  0.00    +0.000 A 
ATOM     18  O   UNL     1       2.266   2.330  19.057  0.00  0.00    +0.000 OA
ENDBRANCH  13  14
ENDBRANCH   3  13
TORSDOF 5
ENDMDL
MODEL 4
REMARK VINA RESULT:      -7.0      1.527      1.807
REMARK  Name = 
REMARK  6 active torsions:
REMARK  status: ('A' for Active; 'I' for Inactive)
REMARK    1  A    between atoms: C_1  and  C_2
REMARK    2  A    between atoms: C_2  and  C_3
REMARK    3  A    between atoms: C_3  and  C_4
REMARK    4  A    between atoms: C_6  and  C_7
REMARK    5  A    between atoms: N_9  and  C_10
REMARK    6  A    between atoms: C_10  and  C_11
REMARK                            x       y       z     vdW  Elec       q    Type
REMARK                         _______ _______ _______ _____ _____    ______ ____
ROOT
ATOM      1  C   UNL     1       5.600   4.318  18.498  0.00  0.00    +0.000 C 
ATOM      2  O   UNL     1       5.553   5.284  19.274  0.00  0.00    +0.000 OA
ATOM      3  N   UNL     1       5.077   3.087  18.834  0.00  0.00    +0.000 N 
ATOM      4  H   UNL     1       5.139   2.314  18.179  0.00  0.00    +0.000 HD
ENDROOT
BRANCH   1   7
ATOM      5  C   UNL     1       6.609   4.361  14.983  0.00  0.00    +0.000 A 
ATOM      6  C   UNL     1       5.624   4.108  15.905  0.00  0.00    +0.000 A 
ATOM      7  C   UNL     1       6.204   4.427  17.165  0.00  0.00    +0.000 A 
ATOM      8  N   UNL     1       7.466   4.865  16.994  0.00  0.00    +0.000 NA
ATOM      9  O   UNL     1       7.709   4.829  15.628  0.00  0.00    +0.000 OA
BRANCH   5  10
ATOM     10  C   UNL     1       6.657   4.241  13.505  0.00  0.00    +0.000 C 
BRANCH  10  12
ATOM     11  C   UNL     1       5.696   2.684  11.796  0.00  0.00    +0.000 C 
ATOM     12  C   UNL     1       5.371   3.704  12.881  0.00  0.00    +0.000 C 
ENDBRANCH  10  12
ENDBRANCH   5  10
ENDBRANCH   1   7
BRANCH   3  13
ATOM     13  C   UNL     1       4.451   2.876  20.113  0.00  0.00    +0.000 C 
BRANCH  13  14
ATOM     14  C   UNL     1       2.981   3.075  20.028  0.00  0.00    +0.000 A 
ATOM     15  C   UNL     1       1.981   2.313  19.462  0.00  0.00    +0.000 A 
ATOM     16  C   UNL     1       0.763   2.982  19.714  0.00  0.00    +0.000 A 
ATOM     17  C   UNL     1       1.090   4.109  20.431  0.00  0.00    +0.000 A 
ATOM     18  O   UNL     1       2.435   4.173  20.635  0.00  0.00    +0.000 OA
ENDBRANCH  13  14
ENDBRANCH   3  13
TORSDOF 5
ENDMDL
MODEL 5
REMARK VINA RESULT:      -7.0      1.529      1.809
REMARK  Name = 
REMARK  6 active torsions:
REMARK  status: ('A' for Active; 'I' for Inactive)
REMARK    1  A    between atoms: C_1  and  C_2
REMARK    2  A    between atoms: C_2  and  C_3
REMARK    3  A    between atoms: C_3  and  C_4
REMARK    4  A    between atoms: C_6  and  C_7
REMARK    5  A    between atoms: N_9  and  C_10
REMARK    6  A    between atoms: C_10  and  C_11
REMARK                            x       y       z     vdW  Elec       q    Type
REMARK                         _______ _______ _______ _____ _____    ______ ____
ROOT
ATOM      1  C   UNL     1       5.296   4.824  17.110  0.00  0.00    +0.000 C 
ATOM      2  O   UNL     1       4.939   5.897  17.619  0.00  0.00    +0.000 OA
ATOM      3  N   UNL     1       5.160   3.622  17.772  0.00  0.00    +0.000 N 
ATOM      4  H   UNL     1       5.470   2.762  17.330  0.00  0.00    +0.000 HD
ENDROOT
BRANCH   1   7
ATOM      5  C   UNL     1       6.413   4.200  13.684  0.00  0.00    +0.000 A 
ATOM      6  C   UNL     1       5.586   3.841  14.719  0.00  0.00    +0.000 A 
ATOM      7  C   UNL     1       5.875   4.763  15.763  0.00  0.00    +0.000 A 
ATOM      8  N   UNL     1       6.817   5.638  15.358  0.00  0.00    +0.000 NA
ATOM      9  O   UNL     1       7.141   5.285  14.055  0.00  0.00    +0.000 OA
BRANCH   5  10
ATOM     10  C   UNL     1       6.609   3.655  12.318  0.00  0.00    +0.000 C 
BRANCH  10  12
ATOM     11  C   UNL     1       4.312   3.293  11.390  0.00  0.00    +0.000 C 
ATOM     12  C   UNL     1       5.572   2.611  11.909  0.00  0.00    +0.000 C 
ENDBRANCH  10  12
ENDBRANCH   5  10
ENDBRANCH   1   7
BRANCH   3  13
ATOM     13  C   UNL     1       4.591   3.568  19.093  0.00  0.00    +0.000 C 
BRANCH  13  14
ATOM     14  C   UNL     1       3.138   3.267  19.038  0.00  0.00    +0.000 A 
ATOM     15  C   UNL     1       2.403   2.428  18.227  0.00  0.00    +0.000 A 
ATOM     16  C   UNL     1       1.058   2.522  18.650  0.00  0.00    +0.000 A 
ATOM     17  C   UNL     1       1.054   3.405  19.705  0.00  0.00    +0.000 A 
ATOM     18  O   UNL     1       2.313   3.858  19.955  0.00  0.00    +0.000 OA
ENDBRANCH  13  14
ENDBRANCH   3  13
TORSDOF 5
ENDMDL
MODEL 6
REMARK VINA RESULT:      -7.0      1.150      1.420
REMARK  Name = 
REMARK  6 active torsions:
REMARK  status: ('A' for Active; 'I' for Inactive)
REMARK    1  A    between atoms: C_1  and  C_2
REMARK    2  A    between atoms: C_2  and  C_3
REMARK    3  A    between atoms: C_3  and  C_4
REMARK    4  A    between atoms: C_6  and  C_7
REMARK    5  A    between atoms: N_9  and  C_10
REMARK    6  A    between atoms: C_10  and  C_11
REMARK                            x       y       z     vdW  Elec       q    Type
REMARK                         _______ _______ _______ _____ _____    ______ ____
ROOT
ATOM      1  C   UNL     1       6.178   4.750  17.756  0.00  0.00    +0.000 C 
ATOM      2  O   UNL     1       7.030   4.548  18.634  0.00  0.00    +0.000 OA
ATOM      3  N   UNL     1       4.852   4.970  18.065  0.00  0.00    +0.000 N 
ATOM      4  H   UNL     1       4.177   5.124  17.322  0.00  0.00    +0.000 HD
ENDROOT
BRANCH   1   7
ATOM      5  C   UNL     1       6.708   4.357  14.159  0.00  0.00    +0.000 A 
ATOM      6  C   UNL     1       6.056   3.932  15.290  0.00  0.00    +0.000 A 
ATOM      7  C   UNL     1       6.528   4.779  16.332  0.00  0.00    +0.000 A 
ATOM      8  N   UNL     1       7.403   5.675  15.836  0.00  0.00    +0.000 NA
ATOM      9  O   UNL     1       7.504   5.411  14.477  0.00  0.00    +0.000 OA
BRANCH   5  10
ATOM     10  C   UNL     1       6.668   3.906  12.746  0.00  0.00    +0.000 C 
BRANCH  10  12
ATOM     11  C   UNL     1       5.539   2.095  11.438  0.00  0.00    +0.000 C 
ATOM     12  C   UNL     1       5.324   3.322  12.317  0.00  0.00    +0.000 C 
ENDBRANCH  10  12
ENDBRANCH   5  10
ENDBRANCH   1   7
BRANCH   3  13
ATOM     13  C   UNL     1       4.404   4.975  19.433  0.00  0.00    +0.000 C 
BRANCH  13  14
ATOM     14  C   UNL     1       3.199   4.124  19.605  0.00  0.00    +0.000 A 
ATOM     15  C   UNL     1       3.053   2.791  19.925  0.00  0.00    +0.000 A 
ATOM     16  C   UNL     1       1.665   2.532  19.981  0.00  0.00    +0.000 A 
ATOM     17  C   UNL     1       1.045   3.727  19.702  0.00  0.00    +0.000 A 
ATOM     18  O   UNL     1       1.966   4.705  19.480  0.00  0.00    +0.000 OA
ENDBRANCH  13  14
ENDBRANCH   3  13
TORSDOF 5
ENDMDL
MODEL 7
REMARK VINA RESULT:      -7.0      1.543      1.835
REMARK  Name = 
REMARK  6 active torsions:
REMARK  status: ('A' for Active; 'I' for Inactive)
REMARK    1  A    between atoms: C_1  and  C_2
REMARK    2  A    between atoms: C_2  and  C_3
REMARK    3  A    between atoms: C_3  and  C_4
REMARK    4  A    between atoms: C_6  and  C_7
REMARK    5  A    between atoms: N_9  and  C_10
REMARK    6  A    between atoms: C_10  and  C_11
REMARK                            x       y       z     vdW  Elec       q    Type
REMARK                         _______ _______ _______ _____ _____    ______ ____
ROOT
ATOM      1  C   UNL     1       5.118   5.987  17.174  0.00  0.00    +0.000 C 
ATOM      2  O   UNL     1       4.657   7.136  17.249  0.00  0.00    +0.000 OA
ATOM      3  N   UNL     1       4.940   5.063  18.182  0.00  0.00    +0.000 N 
ATOM      4  H   UNL     1       5.337   4.133  18.093  0.00  0.00    +0.000 HD
ENDROOT
BRANCH   1   7
ATOM      5  C   UNL     1       6.512   4.586  14.097  0.00  0.00    +0.000 A 
ATOM      6  C   UNL     1       5.412   4.757  14.901  0.00  0.00    +0.000 A 
ATOM      7  C   UNL     1       5.873   5.533  16.001  0.00  0.00    +0.000 A 
ATOM      8  N   UNL     1       7.180   5.822  15.845  0.00  0.00    +0.000 NA
ATOM      9  O   UNL     1       7.569   5.235  14.649  0.00  0.00    +0.000 OA
BRANCH   5  10
ATOM     10  C   UNL     1       6.714   3.884  12.805  0.00  0.00    +0.000 C 
BRANCH  10  12
ATOM     11  C   UNL     1       5.733   1.968  11.526  0.00  0.00    +0.000 C 
ATOM     12  C   UNL     1       5.436   3.298  12.209  0.00  0.00    +0.000 C 
ENDBRANCH  10  12
ENDBRANCH   5  10
ENDBRANCH   1   7
BRANCH   3  13
ATOM     13  C   UNL     1       4.202   5.402  19.371  0.00  0.00    +0.000 C 
BRANCH  13  14
ATOM     14  C   UNL     1       2.936   4.631  19.453  0.00  0.00    +0.000 A 
ATOM     15  C   UNL     1       1.932   4.610  20.399  0.00  0.00    +0.000 A 
ATOM     16  C   UNL     1       0.952   3.704  19.936  0.00  0.00    +0.000 A 
ATOM     17  C   UNL     1       1.410   3.235  18.727  0.00  0.00    +0.000 A 
ATOM     18  O   UNL     1       2.612   3.796  18.419  0.00  0.00    +0.000 OA
ENDBRANCH  13  14
ENDBRANCH   3  13
TORSDOF 5
ENDMDL
MODEL 8
REMARK VINA RESULT:      -6.9      1.229      1.649
REMARK  Name = 
REMARK  6 active torsions:
REMARK  status: ('A' for Active; 'I' for Inactive)
REMARK    1  A    between atoms: C_1  and  C_2
REMARK    2  A    between atoms: C_2  and  C_3
REMARK    3  A    between atoms: C_3  and  C_4
REMARK    4  A    between atoms: C_6  and  C_7
REMARK    5  A    between atoms: N_9  and  C_10
REMARK    6  A    between atoms: C_10  and  C_11
REMARK                            x       y       z     vdW  Elec       q    Type
REMARK                         _______ _______ _______ _____ _____    ______ ____
ROOT
ATOM      1  C   UNL     1       6.945   5.211  16.166  0.00  0.00    +0.000 C 
ATOM      2  O   UNL     1       7.435   6.296  16.514  0.00  0.00    +0.000 OA
ATOM      3  N   UNL     1       6.436   4.314  17.083  0.00  0.00    +0.000 N 
ATOM      4  H   UNL     1       6.049   3.431  16.767  0.00  0.00    +0.000 HD
ENDROOT
BRANCH   1   7
ATOM      5  C   UNL     1       6.313   3.877  12.820  0.00  0.00    +0.000 A 
ATOM      6  C   UNL     1       5.944   3.920  14.142  0.00  0.00    +0.000 A 
ATOM      7  C   UNL     1       6.864   4.816  14.756  0.00  0.00    +0.000 A 
ATOM      8  N   UNL     1       7.724   5.295  13.836  0.00  0.00    +0.000 NA
ATOM      9  O   UNL     1       7.369   4.710  12.628  0.00  0.00    +0.000 OA
BRANCH   5  10
ATOM     10  C   UNL     1       5.772   3.145  11.648  0.00  0.00    +0.000 C 
BRANCH  10  12
ATOM     11  C   UNL     1       3.699   3.679  10.350  0.00  0.00    +0.000 C 
ATOM     12  C   UNL     1       4.248   3.049  11.624  0.00  0.00    +0.000 C 
ENDBRANCH  10  12
ENDBRANCH   5  10
ENDBRANCH   1   7
BRANCH   3  13
ATOM     13  C   UNL     1       6.454   4.609  18.492  0.00  0.00    +0.000 C 
BRANCH  13  14
ATOM     14  C   UNL     1       5.094   4.505  19.078  0.00  0.00    +0.000 A 
ATOM     15  C   UNL     1       4.358   3.421  19.507  0.00  0.00    +0.000 A 
ATOM     16  C   UNL     1       3.135   3.925  20.003  0.00  0.00    +0.000 A 
ATOM     17  C   UNL     1       3.202   5.291  19.859  0.00  0.00    +0.000 A 
ATOM     18  O   UNL     1       4.391   5.657  19.305  0.00  0.00    +0.000 OA
ENDBRANCH  13  14
ENDBRANCH   3  13
TORSDOF 5
ENDMDL
MODEL 9
REMARK VINA RESULT:      -6.8      3.580      4.939
REMARK  Name = 
REMARK  6 active torsions:
REMARK  status: ('A' for Active; 'I' for Inactive)
REMARK    1  A    between atoms: C_1  and  C_2
REMARK    2  A    between atoms: C_2  and  C_3
REMARK    3  A    between atoms: C_3  and  C_4
REMARK    4  A    between atoms: C_6  and  C_7
REMARK    5  A    between atoms: N_9  and  C_10
REMARK    6  A    between atoms: C_10  and  C_11
REMARK                            x       y       z     vdW  Elec       q    Type
REMARK                         _______ _______ _______ _____ _____    ______ ____
ROOT
ATOM      1  C   UNL     1       5.647   4.272  17.958  0.00  0.00    +0.000 C 
ATOM      2  O   UNL     1       5.350   3.828  16.839  0.00  0.00    +0.000 OA
ATOM      3  N   UNL     1       5.158   3.709  19.118  0.00  0.00    +0.000 N 
ATOM      4  H   UNL     1       5.414   4.101  20.019  0.00  0.00    +0.000 HD
ENDROOT
BRANCH   1   7
ATOM      5  C   UNL     1       7.580   7.377  17.940  0.00  0.00    +0.000 A 
ATOM      6  C   UNL     1       6.510   6.672  17.446  0.00  0.00    +0.000 A 
ATOM      7  C   UNL     1       6.546   5.420  18.121  0.00  0.00    +0.000 A 
ATOM      8  N   UNL     1       7.578   5.393  18.987  0.00  0.00    +0.000 NA
ATOM      9  O   UNL     1       8.213   6.622  18.875  0.00  0.00    +0.000 OA
BRANCH   5  10
ATOM     10  C   UNL     1       8.102   8.738  17.662  0.00  0.00    +0.000 C 
BRANCH  10  12
ATOM     11  C   UNL     1       9.292  10.784  18.476  0.00  0.00    +0.000 C 
ATOM     12  C   UNL     1       8.834   9.377  18.840  0.00  0.00    +0.000 C 
ENDBRANCH  10  12
ENDBRANCH   5  10
ENDBRANCH   1   7
BRANCH   3  13
ATOM     13  C   UNL     1       4.278   2.570  19.071  0.00  0.00    +0.000 C 
BRANCH  13  14
ATOM     14  C   UNL     1       3.036   2.823  19.846  0.00  0.00    +0.000 A 
ATOM     15  C   UNL     1       1.752   3.132  19.449  0.00  0.00    +0.000 A 
ATOM     16  C   UNL     1       0.972   3.229  20.623  0.00  0.00    +0.000 A 
ATOM     17  C   UNL     1       1.825   2.961  21.668  0.00  0.00    +0.000 A 
ATOM     18  O   UNL     1       3.081   2.705  21.208  0.00  0.00    +0.000 OA
ENDBRANCH  13  14
ENDBRANCH   3  13
TORSDOF 5
ENDMDL
